@<TRIPOS>MOLECULE
tmp/4oqbB00.pdb
 183 177 0 0 0
SMALL
GASTEIGER

@<TRIPOS>ATOM
      1  N         -7.1200   34.5570  -22.6570 N.3   211  ASP211     -0.1239
      2  CA        -6.6590   33.8420  -23.8510 C.3   211  ASP211      0.1674
      3  C         -5.7610   34.7270  -24.7180 C.2   211  ASP211      0.2266
      4  O         -4.7030   34.2870  -25.1700 O.2   211  ASP211     -0.2867
      5  CB        -7.8460   33.3400  -24.6840 C.3   211  ASP211      0.1410
      6  CG        -8.6170   32.2190  -24.0010 C.2   211  ASP211      0.3668
      7  OD1       -9.8650   32.2380  -24.0570 O.co2 211  ASP211     -0.2456
      8  OD2       -7.9810   31.3160  -23.4150 O.co2 211  ASP211     -0.2456
      9  N         -1.3610   34.8290  -25.1810 N.3   215  ASP215     -0.1239
     10  CA        -0.6890   34.7860  -26.4860 C.3   215  ASP215      0.1674
     11  C          0.2820   35.9480  -26.7200 C.2   215  ASP215      0.2266
     12  O          1.2220   35.8170  -27.5050 O.2   215  ASP215     -0.2867
     13  CB        -1.7190   34.7330  -27.6220 C.3   215  ASP215      0.1410
     14  CG        -2.4870   33.4230  -27.6550 C.2   215  ASP215      0.3668
     15  OD1       -2.5660   32.7450  -26.6040 O.co2 215  ASP215     -0.2456
     16  OD2       -3.0140   33.0750  -28.7350 O.co2 215  ASP215     -0.2456
     17  N        -10.9030   28.7550  -40.3140 N.3   307  HIS307     -0.1226
     18  CA       -10.7310   29.0410  -38.8920 C.3   307  HIS307      0.1752
     19  C        -10.0690   30.4060  -38.7020 C.2   307  HIS307      0.2597
     20  O         -8.8960   30.5810  -39.0280 O.2   307  HIS307     -0.2718
     21  CB        -9.9010   27.9530  -38.2060 C.3   307  HIS307      0.0759
     22  CG        -9.6250   28.2260  -36.7580 C.ar  307  HIS307      0.0818
     23  ND1      -10.5940   28.1240  -35.7830 N.ar  307  HIS307     -0.2268
     24  CD2       -8.4900   28.6000  -36.1220 C.ar  307  HIS307      0.1154
     25  CE1      -10.0690   28.4260  -34.6090 C.ar  307  HIS307      0.1986
     26  NE2       -8.7920   28.7170  -34.7870 N.ar  307  HIS307     -0.2212
     27  N        -10.8260   31.3630  -38.1720 N.am  308  GLY308     -0.1942
     28  CA       -10.3200   32.7110  -37.9340 C.3   308  GLY308      0.2014
     29  C         -9.9840   32.9630  -36.4780 C.2   308  GLY308      0.2639
     30  O        -10.5550   32.3470  -35.5800 O.2   308  GLY308     -0.2714
     31  N         -9.0470   33.8740  -36.2500 N.am  309  SER309     -0.1949
     32  CA        -8.6560   34.2680  -34.9010 C.3   309  SER309      0.1924
     33  C         -7.9480   35.6170  -34.9530 C.2   309  SER309      0.2314
     34  O         -7.5410   36.0690  -36.0250 O.2   309  SER309     -0.2863
     35  CB        -7.7470   33.2080  -34.2730 C.3   309  SER309      0.2116
     36  OG        -7.3680   33.5700  -32.9570 O.3   309  SER309     -0.2180
     37  N         -3.0790   36.4190  -31.9490 N.3   313  ASN313     -0.1240
     38  CA        -2.9400   34.9880  -31.6660 C.3   313  ASN313      0.1653
     39  C         -2.0600   34.2440  -32.6730 C.2   313  ASN313      0.2266
     40  O         -1.4350   33.2420  -32.3250 O.2   313  ASN313     -0.2867
     41  CB        -4.3180   34.3160  -31.6170 C.3   313  ASN313      0.1155
     42  CG        -5.2120   34.8810  -30.5250 C.2   313  ASN313      0.2627
     43  OD1       -4.7320   35.4290  -29.5300 O.2   313  ASN313     -0.2716
     44  ND2       -6.5220   34.7440  -30.7040 N.am  313  ASN313     -0.0877
     45  N         -0.1650   30.6940  -32.7790 N.3   317  ILE317     -0.1245
     46  CA        -0.8130   29.6330  -33.5620 C.3   317  ILE317      0.1561
     47  C          0.1700   28.9770  -34.5370 C.2   317  ILE317      0.2260
     48  O          0.0950   27.7730  -34.7760 O.2   317  ILE317     -0.2867
     49  CB        -2.0550   30.1590  -34.3240 C.3   317  ILE317      0.0252
     50  CG1       -3.1450   30.5920  -33.3360 C.3   317  ILE317      0.0019
     51  CG2       -2.6170   29.0910  -35.2590 C.3   317  ILE317      0.0019
     52  CD1       -4.1740   31.5350  -33.9240 C.3   317  ILE317      0.0001
     53  N         -2.8010   24.8590  -33.5760 N.3   322  LEU322     -0.1231
     54  CA        -4.0800   25.1820  -32.9410 C.3   322  LEU322      0.1693
     55  C         -4.2430   24.3690  -31.6610 C.2   322  LEU322      0.2592
     56  O         -4.1000   23.1440  -31.6720 O.2   322  LEU322     -0.2718
     57  CB        -5.2560   24.9360  -33.8930 C.3   322  LEU322      0.0284
     58  CG        -5.4560   25.9740  -35.0030 C.3   322  LEU322      0.0019
     59  CD1       -6.6030   25.5650  -35.9140 C.3   322  LEU322      0.0001
     60  CD2       -5.7130   27.3640  -34.4360 C.3   322  LEU322      0.0001
     61  N         -4.5460   25.0640  -30.5660 N.am  323  ARG323     -0.1966
     62  CA        -4.5900   24.4640  -29.2360 C.3   323  ARG323      0.1729
     63  C         -5.9980   24.5140  -28.6550 C.2   323  ARG323      0.2616
     64  O         -6.7740   25.4220  -28.9560 O.2   323  ARG323     -0.2715
     65  CB        -3.6320   25.2020  -28.2980 C.3   323  ARG323      0.0348
     66  CG        -2.2020   25.2900  -28.8110 C.3   323  ARG323      0.0492
     67  CD        -1.3540   26.2530  -27.9910 C.3   323  ARG323      0.2205
     68  NE        -1.9300   27.5980  -27.9100 N.pl3 323  ARG323     -0.0865
     69  CZ        -1.9370   28.4940  -28.8980 C.cat 323  ARG323      0.5346
     70  NH1       -1.4070   28.2150  -30.0860 N.pl3 323  ARG323      0.1354
     71  NH2       -2.4910   29.6860  -28.6990 N.pl3 323  ARG323      0.1354
     72  N         -6.3170   23.5280  -27.8210 N.am  324  ILE324     -0.1963
     73  CA        -7.5980   23.4810  -27.1230 C.3   324  ILE324      0.1727
     74  C         -7.4720   24.3290  -25.8600 C.2   324  ILE324      0.2616
     75  O         -6.3730   24.4930  -25.3270 O.2   324  ILE324     -0.2715
     76  CB        -7.9910   22.0320  -26.7490 C.3   324  ILE324      0.0290
     77  CG1       -7.9970   21.1360  -27.9960 C.3   324  ILE324      0.0022
     78  CG2       -9.3560   22.0020  -26.0670 C.3   324  ILE324      0.0023
     79  CD1       -8.1540   19.6600  -27.6970 C.3   324  ILE324      0.0001
     80  N         -8.5920   24.8710  -25.3890 N.am  325  ALA325     -0.1964
     81  CA        -8.6080   25.6530  -24.1520 C.3   325  ALA325      0.1713
     82  C         -8.1330   24.8140  -22.9660 C.2   325  ALA325      0.2458
     83  O         -8.3500   23.6000  -22.9420 O.2   325  ALA325     -0.2730
     84  CB       -10.0040   26.1860  -23.8820 C.3   325  ALA325      0.0333
     85  N         -7.4850   25.4590  -21.9760 N.am  326  PRO326     -0.2727
     86  CA        -7.0130   24.7270  -20.7990 C.3   326  PRO326      0.1402
     87  C         -8.1640   24.1940  -19.9390 C.2   326  PRO326      0.2269
     88  O         -9.2880   24.6920  -20.0420 O.2   326  PRO326     -0.2865
     89  CB        -6.1920   25.7720  -20.0310 C.3   326  PRO326      0.0296
     90  CG        -6.7030   27.0900  -20.4940 C.3   326  PRO326      0.0237
     91  CD        -7.1460   26.8930  -21.9120 C.3   326  PRO326      0.0939
     92  N        -19.1790   30.4490  -23.7250 N.3   333  GLY333     -0.1210
     93  CA       -18.8230   30.9070  -25.0680 C.3   333  GLY333      0.1956
     94  C        -18.7960   29.7670  -26.0670 C.2   333  GLY333      0.2612
     95  O        -19.2470   29.9210  -27.2040 O.2   333  GLY333     -0.2717
     96  N        -18.2580   28.6250  -25.6420 N.am  334  TYR334     -0.1962
     97  CA       -18.2330   27.4220  -26.4680 C.3   334  TYR334      0.1771
     98  C        -19.6360   26.8470  -26.6150 C.2   334  TYR334      0.2619
     99  O        -20.4350   26.8960  -25.6790 O.2   334  TYR334     -0.2715
    100  CB       -17.3140   26.3640  -25.8540 C.3   334  TYR334      0.0574
    101  CG       -15.8710   26.7940  -25.7610 C.ar  334  TYR334     -0.0198
    102  CD1      -15.3110   27.1790  -24.5450 C.ar  334  TYR334     -0.0009
    103  CD2      -15.0670   26.8260  -26.8910 C.ar  334  TYR334     -0.0009
    104  CE1      -13.9880   27.5770  -24.4600 C.ar  334  TYR334      0.0417
    105  CE2      -13.7440   27.2180  -26.8170 C.ar  334  TYR334      0.0417
    106  CZ       -13.2100   27.5950  -25.6010 C.ar  334  TYR334      0.1957
    107  OH       -11.8990   27.9950  -25.5290 O.3   334  TYR334     -0.2866
    108  N        -19.9260   26.3040  -27.7930 N.am  335  MET335     -0.1977
    109  CA       -21.2270   25.6990  -28.0640 C.3   335  MET335      0.1605
    110  C        -21.2280   24.2360  -27.6280 C.2   335  MET335      0.2287
    111  O        -22.1880   23.7690  -27.0120 O.2   335  MET335     -0.2864
    112  CB       -21.5680   25.8030  -29.5550 C.3   335  MET335      0.0413
    113  CG       -23.0590   25.9020  -29.8510 C.3   335  MET335      0.0598
    114  SD       -23.6290   27.5890  -30.1540 S.3   335  MET335     -0.1393
    115  CE       -23.0530   28.4440  -28.6880 C.3   335  MET335      0.0692
    116  N        -12.4430   22.7740  -27.4850 N.3   339  GLY339     -0.1225
    117  CA       -11.8690   22.0840  -28.6400 C.3   339  GLY339      0.1811
    118  C        -11.5740   23.0740  -29.7530 C.2   339  GLY339      0.2280
    119  O        -11.8180   24.2710  -29.5960 O.2   339  GLY339     -0.2866
    120  N        -12.5200   24.7680  -33.0950 N.3   341  TYR341     -0.1227
    121  CA       -13.7360   24.9950  -33.8760 C.3   341  TYR341      0.1736
    122  C        -13.4090   25.4220  -35.3050 C.2   341  TYR341      0.2595
    123  O        -12.4520   26.1620  -35.5390 O.2   341  TYR341     -0.2718
    124  CB       -14.6210   26.0440  -33.1980 C.3   341  TYR341      0.0548
    125  CG       -15.3750   25.5050  -32.0040 C.ar  341  TYR341     -0.0200
    126  CD1      -14.7280   25.2810  -30.7920 C.ar  341  TYR341     -0.0009
    127  CD2      -16.7330   25.2090  -32.0870 C.ar  341  TYR341     -0.0009
    128  CE1      -15.4110   24.7800  -29.6970 C.ar  341  TYR341      0.0417
    129  CE2      -17.4250   24.7110  -30.9970 C.ar  341  TYR341      0.0417
    130  CZ       -16.7610   24.4980  -29.8050 C.ar  341  TYR341      0.1957
    131  OH       -17.4490   24.0030  -28.7220 O.3   341  TYR341     -0.2866
    132  N        -14.2130   24.9410  -36.2510 N.am  342  PHE342     -0.1962
    133  CA       -14.0520   25.2550  -37.6700 C.3   342  PHE342      0.1771
    134  C        -15.4070   25.5470  -38.3030 C.2   342  PHE342      0.2619
    135  O        -16.4450   25.1480  -37.7750 O.2   342  PHE342     -0.2715
    136  CB       -13.3970   24.0820  -38.4030 C.3   342  PHE342      0.0574
    137  CG       -11.9500   23.8840  -38.0620 C.ar  342  PHE342     -0.0200
    138  CD1      -11.5780   23.0690  -37.0040 C.ar  342  PHE342     -0.0042
    139  CD2      -10.9590   24.5070  -38.8060 C.ar  342  PHE342     -0.0042
    140  CE1      -10.2440   22.8830  -36.6900 C.ar  342  PHE342     -0.0003
    141  CE2       -9.6230   24.3280  -38.4960 C.ar  342  PHE342     -0.0003
    142  CZ        -9.2660   23.5140  -37.4370 C.ar  342  PHE342     -0.0000
    143  N        -15.3860   26.2510  -39.4320 N.am  343  ALA343     -0.1977
    144  CA       -16.6010   26.5280  -40.1980 C.3   343  ALA343      0.1597
    145  C        -16.3490   26.3640  -41.6910 C.2   343  ALA343      0.2287
    146  O        -15.2250   26.5360  -42.1660 O.2   343  ALA343     -0.2864
    147  CB       -17.1090   27.9280  -39.9020 C.3   343  ALA343      0.0319
    148  N        -18.2230   33.5110  -41.3960 N.3   348  LYS348     -0.1231
    149  CA       -18.4190   33.1080  -40.0010 C.3   348  LYS348      0.1693
    150  C        -17.0890   33.0380  -39.2510 C.2   348  LYS348      0.2592
    151  O        -16.9860   33.4970  -38.1120 O.2   348  LYS348     -0.2718
    152  CB       -19.1340   31.7550  -39.9280 C.3   348  LYS348      0.0285
    153  CG       -19.4520   31.2930  -38.5130 C.3   348  LYS348      0.0035
    154  CD       -20.4700   30.1650  -38.5130 C.3   348  LYS348      0.0206
    155  CE       -20.6810   29.6080  -37.1150 C.3   348  LYS348      0.1093
    156  NZ       -21.7430   28.5660  -37.0780 N.3   348  LYS348     -0.1314
    157  N        -16.0820   32.4610  -39.9010 N.am  349  SER349     -0.1952
    158  CA       -14.7300   32.4020  -39.3480 C.3   349  SER349      0.1924
    159  C        -14.0670   33.7830  -39.3160 C.2   349  SER349      0.2314
    160  O        -13.3500   34.1060  -38.3690 O.2   349  SER349     -0.2863
    161  CB       -13.8690   31.4250  -40.1550 C.3   349  SER349      0.2116
    162  OG       -14.2970   30.0890  -39.9710 O.3   349  SER349     -0.2180
    163  N        -13.9790   36.3000  -36.2520 N.3   352  TYR352     -0.1241
    164  CA       -13.0500   36.0780  -35.1410 C.3   352  TYR352      0.1605
    165  C        -11.6910   36.7520  -35.3500 C.2   352  TYR352      0.2264
    166  O        -10.8550   36.7550  -34.4440 O.2   352  TYR352     -0.2867
    167  CB       -12.8720   34.5770  -34.8940 C.3   352  TYR352      0.0534
    168  CG       -14.1350   33.9140  -34.3930 C.ar  352  TYR352     -0.0201
    169  CD1      -14.3520   33.7280  -33.0300 C.ar  352  TYR352     -0.0009
    170  CD2      -15.1210   33.4870  -35.2790 C.ar  352  TYR352     -0.0009
    171  CE1      -15.5100   33.1260  -32.5650 C.ar  352  TYR352      0.0417
    172  CE2      -16.2830   32.8860  -34.8230 C.ar  352  TYR352      0.0417
    173  CZ       -16.4730   32.7080  -33.4660 C.ar  352  TYR352      0.1957
    174  OH       -17.6270   32.1130  -33.0100 O.3   352  TYR352     -0.2866
    175  N        -20.8460   24.2310  -37.7710 N.3   433  GLU433     -0.1245
    176  CA       -19.6420   24.2590  -36.9440 C.3   433  GLU433      0.1567
    177  C        -19.0090   22.8720  -36.9390 C.2   433  GLU433      0.2260
    178  O        -19.7110   21.8680  -36.8120 O.2   433  GLU433     -0.2867
    179  CB       -19.9760   24.6750  -35.5120 C.3   433  GLU433      0.0388
    180  CG       -20.5310   26.0840  -35.3870 C.3   433  GLU433      0.1160
    181  CD       -20.6360   26.5570  -33.9480 C.2   433  GLU433      0.3649
    182  OE1      -20.7200   25.7060  -33.0360 O.co2 433  GLU433     -0.2457
    183  OE2      -20.6390   27.7860  -33.7280 O.co2 433  GLU433     -0.2457
@<TRIPOS>BOND
     1   146   145    2
     2   145   144    1
     3   148   149    1
     4    17    18    1
     5   144   147    1
     6   144   143    1
     7   161   162    1
     8   161   158    1
     9   149   152    1
    10   149   150    1
    11   152   153    1
    12   157   158    1
    13   157   150   am
    14   143   134   am
    15   158   159    1
    16   159   160    2
    17   150   151    2
    18    20    19    2
    19    18    19    1
    20    18    21    1
    21   139   141   ar
    22   139   137   ar
    23    19    27   am
    24   153   154    1
    25   154   155    1
    26   141   142   ar
    27   136   137    1
    28   136   133    1
    29   134   135    2
    30   134   133    1
    31    21    22    1
    32    27    28    1
    33   137   138   ar
    34    28    29    1
    35   175   176    1
    36   133   132    1
    37   142   140   ar
    38   155   156    1
    39   138   140   ar
    40   176   177    1
    41   176   179    1
    42   177   178    2
    43    22    24   ar
    44    22    23   ar
    45    29    31   am
    46    29    30    2
    47   163   164    1
    48   132   122   am
    49    31    32    1
    50    24    26   ar
    51    34    33    2
    52    59    58    1
    53    23    25   ar
    54   123   122    2
    55   179   180    1
    56   180   181    1
    57   165   164    1
    58   165   166    2
    59   122   121    1
    60   170   172   ar
    61   170   168   ar
    62    51    49    1
    63   164   167    1
    64    58    60    1
    65    58    57    1
    66    33    32    1
    67    32    35    1
    68   167   168    1
    69   172   173   ar
    70    26    25   ar
    71    48    47    2
    72    47    46    1
    73   168   169   ar
    74    49    46    1
    75    49    50    1
    76    35    36    1
    77   181   183   ar
    78   181   182   ar
    79    52    50    1
    80    57    54    1
    81   121   124    1
    82   121   120    1
    83    53    54    1
    84    46    45    1
    85   173   174    1
    86   173   171   ar
    87   124   125    1
    88   169   171   ar
    89    54    55    1
    90    39    40    2
    91    39    38    1
    92   127   125   ar
    93   127   129   ar
    94   125   126   ar
    95    37    38    1
    96    56    55    2
    97    38    41    1
    98    55    61   am
    99    41    42    1
   100   129   130   ar
   101   126   128   ar
   102    44    42   am
   103    61    62    1
   104    42    43    2
   105   114   113    1
   106   114   115    1
   107    70    69    1
   108   113   112    1
   109   130   128   ar
   110   130   131    1
   111   118   119    2
   112   118   117    1
   113   112   109    1
   114    62    63    1
   115    62    65    1
   116    64    63    2
   117    69    71    1
   118    69    68    2
   119    66    65    1
   120    66    67    1
   121    16    14   ar
   122    63    72   am
   123   117   116    1
   124   109   108    1
   125   109   110    1
   126    77    79    1
   127    77    76    1
   128    67    68    1
   129    72    73    1
   130   108    98   am
   131    14    13    1
   132    14    15   ar
   133   110   111    2
   134    13    10    1
   135    12    11    2
   136    95    94    2
   137    73    76    1
   138    73    74    1
   139   103   105   ar
   140   103   101   ar
   141   105   106   ar
   142    76    78    1
   143    11    10    1
   144    98    97    1
   145    98    99    2
   146    10     9    1
   147    97   100    1
   148    97    96    1
   149    94    96   am
   150    94    93    1
   151    74    80   am
   152    74    75    2
   153   100   101    1
   154   101   102   ar
   155   106   107    1
   156   106   104   ar
   157    80    81    1
   158     4     3    2
   159    93    92    1
   160     3     2    1
   161     5     6    1
   162     5     2    1
   163   102   104   ar
   164    81    84    1
   165    81    82    1
   166     7     6   ar
   167     6     8   ar
   168     2     1    1
   169    82    83    2
   170    82    85   am
   171    85    91    1
   172    85    86    1
   173    91    90    1
   174    86    89    1
   175    86    87    1
   176    90    89    1
   177    88    87    2
