@<TRIPOS>MOLECULE
tmp/4oqdC01.pdb
 230 222 0 0 0
SMALL
GASTEIGER

@<TRIPOS>ATOM
      1  N         51.8820   10.0090    5.1000 N.3     6  TYR6       -0.1241
      2  CA        50.6240    9.3180    4.8380 C.3     6  TYR6        0.1605
      3  C         50.7170    8.4250    3.6060 C.2     6  TYR6        0.2264
      4  O         49.9760    8.5630    2.6270 O.2     6  TYR6       -0.2867
      5  CB        49.4910   10.3330    4.6990 C.3     6  TYR6        0.0534
      6  CG        49.1810   11.1200    5.9390 C.ar    6  TYR6       -0.0201
      7  CD1       48.2520   10.6600    6.8690 C.ar    6  TYR6       -0.0009
      8  CD2       49.7870   12.3210    6.2110 C.ar    6  TYR6       -0.0009
      9  CE1       47.9760   11.3770    8.0070 C.ar    6  TYR6        0.0417
     10  CE2       49.5280   13.0340    7.3660 C.ar    6  TYR6        0.0417
     11  CZ        48.5530   12.5800    8.2580 C.ar    6  TYR6        0.1957
     12  OH        48.3110   13.3870    9.3640 O.3     6  TYR6       -0.2866
     13  N         44.5230    3.7900    7.4140 N.3    14  TYR14      -0.1241
     14  CA        44.0150    5.0420    7.9380 C.3    14  TYR14       0.1605
     15  C         42.5040    4.9000    8.2160 C.2    14  TYR14       0.2264
     16  O         42.0520    5.2550    9.3200 O.2    14  TYR14      -0.2867
     17  CB        44.2860    6.1390    6.9200 C.3    14  TYR14       0.0534
     18  CG        43.8200    7.5160    7.3180 C.ar   14  TYR14      -0.0201
     19  CD1       44.6230    8.3880    8.0560 C.ar   14  TYR14      -0.0009
     20  CD2       42.5290    7.9340    7.0040 C.ar   14  TYR14      -0.0009
     21  CE1       44.2010    9.6570    8.4050 C.ar   14  TYR14       0.0417
     22  CE2       42.1330    9.2220    7.2920 C.ar   14  TYR14       0.0417
     23  CZ        42.8860   10.0460    8.0730 C.ar   14  TYR14       0.1957
     24  OH        42.5070   11.3270    8.3900 O.3    14  TYR14      -0.2866
     25  N         40.6680    5.0770   12.0380 N.3    18  HIS18      -0.1241
     26  CA        39.8380    6.1680   12.4510 C.3    18  HIS18       0.1621
     27  C         38.3860    5.6970   12.6380 C.2    18  HIS18       0.2264
     28  O         37.7280    6.2410   13.5080 O.2    18  HIS18      -0.2867
     29  CB        40.0270    7.3480   11.5360 C.3    18  HIS18       0.0745
     30  CG        41.3490    7.9980   11.7750 C.ar   18  HIS18       0.0817
     31  ND1       41.6780    8.6720   12.9300 N.ar   18  HIS18      -0.2268
     32  CD2       42.4790    8.0000   11.0140 C.ar   18  HIS18       0.1154
     33  CE1       42.9340    9.0760   12.8780 C.ar   18  HIS18       0.1986
     34  NE2       43.4300    8.6970   11.7120 N.ar   18  HIS18      -0.2212
     35  N         38.2640    4.2940   16.0230 N.3    21  LYS21      -0.1245
     36  CA        38.3490    5.3450   17.0480 C.3    21  LYS21       0.1561
     37  C         37.0020    6.0600   17.2040 C.2    21  LYS21       0.2260
     38  O         36.9070    6.9950   18.0090 O.2    21  LYS21      -0.2867
     39  CB        39.4420    6.3660   16.7210 C.3    21  LYS21       0.0271
     40  CG        40.7950    5.7160   16.9060 C.3    21  LYS21       0.0035
     41  CD        41.8920    6.4530   16.1220 C.3    21  LYS21       0.0206
     42  CE        42.5800    7.5170   16.9550 C.3    21  LYS21       0.1093
     43  NZ        41.7570    8.6280   17.5090 N.3    21  LYS21      -0.1314
     44  N         39.8590   17.9280   10.0230 N.3   110  PHE110     -0.1227
     45  CA        40.6520   17.0180   10.8480 C.3   110  PHE110      0.1736
     46  C         42.1250   17.5420   11.0990 C.2   110  PHE110      0.2596
     47  O         43.0070   16.7200   11.3470 O.2   110  PHE110     -0.2718
     48  CB        40.5900   15.6000   10.2710 C.3   110  PHE110      0.0547
     49  CG        40.9260   14.4800   11.2090 C.ar  110  PHE110     -0.0202
     50  CD1       41.0520   14.6720   12.5540 C.ar  110  PHE110     -0.0042
     51  CD2       41.0790   13.1820   10.7270 C.ar  110  PHE110     -0.0042
     52  CE1       41.3300   13.6470   13.4150 C.ar  110  PHE110     -0.0003
     53  CE2       41.3830   12.1330   11.5970 C.ar  110  PHE110     -0.0003
     54  CZ        41.4810   12.3720   12.9510 C.ar  110  PHE110     -0.0000
     55  N         42.2830   18.8620   11.2240 N.am  111  SER111     -0.1938
     56  CA        43.4650   19.5230   11.7870 C.3   111  SER111      0.2055
     57  C         44.5530   19.3070   10.7410 C.2   111  SER111      0.2643
     58  O         45.7100   19.3890   11.1400 O.2   111  SER111     -0.2714
     59  CB        43.9740   18.9760   13.1140 C.3   111  SER111      0.2130
     60  OG        42.8600   19.0530   14.0490 O.3   111  SER111     -0.2179
     61  N         44.1480   18.9960    9.5300 N.am  112  SER112     -0.1949
     62  CA        45.1770   18.8990    8.4560 C.3   112  SER112      0.1924
     63  C         45.9830   20.1630    8.3010 C.2   112  SER112      0.2314
     64  O         47.1690   20.1050    7.8610 O.2   112  SER112     -0.2863
     65  CB        44.5540   18.5550    7.1020 C.3   112  SER112      0.2116
     66  OG        43.7480   17.4040    7.1020 O.3   112  SER112     -0.2180
     67  N         49.5390   20.6390    9.6020 N.3   115  HIS115     -0.1241
     68  CA        50.6900   20.1200    8.8250 C.3   115  HIS115      0.1621
     69  C         51.4560   21.2300    8.1380 C.2   115  HIS115      0.2264
     70  O         52.4820   20.9800    7.4890 O.2   115  HIS115     -0.2867
     71  CB        50.2730   19.0380    7.8440 C.3   115  HIS115      0.0745
     72  CG        50.0120   17.7190    8.5080 C.ar  115  HIS115      0.0817
     73  ND1       50.9470   17.0790    9.2910 N.ar  115  HIS115     -0.2268
     74  CD2       48.9070   16.9290    8.5330 C.ar  115  HIS115      0.1154
     75  CE1       50.4430   15.9480    9.7580 C.ar  115  HIS115      0.1986
     76  NE2       49.2040   15.8390    9.3140 N.ar  115  HIS115     -0.2212
     77  N         44.1200   22.5470   14.5480 N.3   144  TRP144     -0.1227
     78  CA        44.6660   21.6630   15.5480 C.3   144  TRP144      0.1737
     79  C         44.3910   22.3200   16.9230 C.2   144  TRP144      0.2595
     80  O         43.7920   23.4030   17.0170 O.2   144  TRP144     -0.2718
     81  CB        46.1770   21.4870   15.2710 C.3   144  TRP144      0.0564
     82  CG        46.9250   20.6020   16.2000 C.ar  144  TRP144      0.0003
     83  CD1       48.0920   20.9220   16.8250 C.ar  144  TRP144      0.0946
     84  CD2       46.6540   19.2310   16.5490 C.ar  144  TRP144      0.0152
     85  NE1       48.5250   19.8890   17.5890 N.ar  144  TRP144     -0.2442
     86  CE2       47.7010   18.8070   17.3990 C.ar  144  TRP144      0.0810
     87  CE3       45.6420   18.3110   16.2150 C.ar  144  TRP144      0.0012
     88  CZ2       47.7460   17.5110   17.9430 C.ar  144  TRP144      0.0191
     89  CZ3       45.7100   16.9930   16.7440 C.ar  144  TRP144      0.0001
     90  CH2       46.7400   16.6320   17.6400 C.ar  144  TRP144      0.0015
     91  N         44.7730   21.6460   17.9980 N.am  145  TRP145     -0.1976
     92  CA        44.7020   22.2630   19.3280 C.3   145  TRP145      0.1640
     93  C         45.4570   23.5910   19.4520 C.2   145  TRP145      0.2290
     94  O         46.5590   23.7840   18.8780 O.2   145  TRP145     -0.2864
     95  CB        45.2210   21.2790   20.3780 C.3   145  TRP145      0.0576
     96  CG        44.5140   19.9800   20.4180 C.ar  145  TRP145      0.0006
     97  CD1       44.8980   18.8170   19.8260 C.ar  145  TRP145      0.0946
     98  CD2       43.2540   19.7210   21.0240 C.ar  145  TRP145      0.0152
     99  NE1       43.9750   17.8500   20.0120 N.ar  145  TRP145     -0.2442
    100  CE2       42.9550   18.3730   20.7720 C.ar  145  TRP145      0.0810
    101  CE3       42.3680   20.4980   21.7770 C.ar  145  TRP145      0.0012
    102  CZ2       41.7850   17.7770   21.2340 C.ar  145  TRP145      0.0191
    103  CZ3       41.1990   19.9030   22.2320 C.ar  145  TRP145      0.0001
    104  CH2       40.9380   18.5570   21.9740 C.ar  145  TRP145      0.0015
    105  N         45.4810   24.3740   25.0890 N.3   149  ASN149     -0.1225
    106  CA        44.5660   23.2470   25.2550 C.3   149  ASN149      0.1785
    107  C         45.2950   21.9220   25.0060 C.2   149  ASN149      0.2597
    108  O         44.7650   20.8230   25.1910 O.2   149  ASN149     -0.2718
    109  CB        43.3880   23.4030   24.2980 C.3   149  ASN149      0.1169
    110  CG        42.5010   24.5740   24.6430 C.2   149  ASN149      0.2627
    111  OD1       42.0630   25.3090   23.7560 O.2   149  ASN149     -0.2716
    112  ND2       42.2540   24.7750   25.9320 N.am  149  ASN149     -0.0877
    113  N         46.5580   22.0410   24.6250 N.am  150  PHE150     -0.1962
    114  CA        47.3740   20.8810   24.3760 C.3   150  PHE150      0.1771
    115  C         47.7660   20.1140   25.6270 C.2   150  PHE150      0.2620
    116  O         48.1540   20.7220   26.6220 O.2   150  PHE150     -0.2715
    117  CB        48.6650   21.2830   23.6320 C.3   150  PHE150      0.0574
    118  CG        49.5430   20.1030   23.3270 C.ar  150  PHE150     -0.0200
    119  CD1       49.0470   18.9960   22.6370 C.ar  150  PHE150     -0.0042
    120  CD2       50.8550   20.0590   23.7850 C.ar  150  PHE150     -0.0042
    121  CE1       49.8160   17.8780   22.3710 C.ar  150  PHE150     -0.0003
    122  CE2       51.6410   18.9520   23.5010 C.ar  150  PHE150     -0.0003
    123  CZ        51.1140   17.8600   22.8260 C.ar  150  PHE150     -0.0000
    124  N         47.7590   18.7840   25.5450 N.am  151  THR151     -0.1951
    125  CA        48.0040   17.8860   26.6880 C.3   151  THR151      0.1897
    126  C         49.2590   17.0590   26.4560 C.2   151  THR151      0.2313
    127  O         49.1610   15.9650   25.9270 O.2   151  THR151     -0.2863
    128  CB        46.8420   16.8910   26.8990 C.3   151  THR151      0.1794
    129  OG1       46.4560   16.2940   25.6550 O.3   151  THR151     -0.2208
    130  CG2       45.6230   17.6090   27.4780 C.3   151  THR151      0.0378
    131  N         49.9750   12.8140   26.4900 N.3   154  TYR154     -0.1241
    132  CA        48.7440   12.0900   26.1350 C.3   154  TYR154      0.1605
    133  C         49.0310   10.8140   25.3560 C.2   154  TYR154      0.2264
    134  O         49.8180   10.7830   24.3970 O.2   154  TYR154     -0.2867
    135  CB        47.7850   12.9780   25.3370 C.3   154  TYR154      0.0534
    136  CG        46.3710   12.4770   25.1850 C.ar  154  TYR154     -0.0201
    137  CD1       45.9950   11.5890   24.1600 C.ar  154  TYR154     -0.0009
    138  CD2       45.3890   12.9440   26.0450 C.ar  154  TYR154     -0.0009
    139  CE1       44.6700   11.1600   24.0250 C.ar  154  TYR154      0.0417
    140  CE2       44.0790   12.5220   25.9230 C.ar  154  TYR154      0.0417
    141  CZ        43.7260   11.6520   24.9110 C.ar  154  TYR154      0.1957
    142  OH        42.4090   11.2660   24.8340 O.3   154  TYR154     -0.2866
    143  N         46.9480    7.6130   23.4320 N.3   156  ALA156     -0.1245
    144  CA        45.6890    7.0450   22.8770 C.3   156  ALA156      0.1562
    145  C         46.0070    5.6380   22.4240 C.2   156  ALA156      0.2260
    146  O         47.0370    5.4080   21.7870 O.2   156  ALA156     -0.2867
    147  CB        45.1280    7.8450   21.7070 C.3   156  ALA156      0.0290
    148  N         46.5550    0.5660   17.2600 N.3   169  ARG169     -0.1245
    149  CA        47.2110    1.8420   17.0980 C.3   169  ARG169      0.1563
    150  C         47.4580    2.4530   18.4670 C.2   169  ARG169      0.2260
    151  O         46.4960    2.6290   19.2200 O.2   169  ARG169     -0.2867
    152  CB        46.3940    2.7850   16.2000 C.3   169  ARG169      0.0307
    153  CG        46.8740    4.2190   16.1230 C.3   169  ARG169      0.0489
    154  CD        45.9720    5.1170   15.3090 C.3   169  ARG169      0.2205
    155  NE        46.3760    6.5190   15.2650 N.pl3 169  ARG169     -0.0865
    156  CZ        46.3450    7.4220   16.2460 C.cat 169  ARG169      0.5346
    157  NH1       45.8220    7.1270   17.4210 N.pl3 169  ARG169      0.1354
    158  NH2       46.7510    8.6730   16.0380 N.pl3 169  ARG169      0.1354
    159  N         49.3310    6.0300   20.1290 N.3   171  SER171     -0.1217
    160  CA        49.9950    7.3240   19.9130 C.3   171  SER171      0.1889
    161  C         50.5170    7.8730   21.2480 C.2   171  SER171      0.2288
    162  O         49.9220    7.7170   22.3340 O.2   171  SER171     -0.2866
    163  CB        49.1290    8.3510   19.1780 C.3   171  SER171      0.2089
    164  OG        48.1610    8.8580   20.1010 O.3   171  SER171     -0.2183
    165  N         52.0630   11.8180   22.5260 N.3   173  SER173     -0.1217
    166  CA        52.2420   13.1990   22.1270 C.3   173  SER173      0.1889
    167  C         53.0250   13.9980   23.1590 C.2   173  SER173      0.2288
    168  O         52.7910   13.9230   24.3590 O.2   173  SER173     -0.2866
    169  CB        50.9070   13.8750   21.8140 C.3   173  SER173      0.2089
    170  OG        50.1720   13.1830   20.8240 O.3   173  SER173     -0.2183
    171  N         53.1250   19.9420   18.3750 N.3   180  THR180     -0.1218
    172  CA        53.0090   18.6100   18.9090 C.3   180  THR180      0.1862
    173  C         53.8950   17.6440   18.1200 C.2   180  THR180      0.2287
    174  O         53.7240   17.5250   16.8980 O.2   180  THR180     -0.2866
    175  CB        51.5900   18.1030   18.7070 C.3   180  THR180      0.1770
    176  OG1       50.7000   18.9700   19.4430 O.3   180  THR180     -0.2211
    177  CG2       51.4700   16.6570   19.2270 C.3   180  THR180      0.0375
    178  N         53.7940   13.9140   17.6970 N.3   182  ILE182     -0.1245
    179  CA        52.9480   12.7350   17.9030 C.3   182  ILE182      0.1561
    180  C         53.5920   11.5570   17.1750 C.2   182  ILE182      0.2260
    181  O         53.7490   11.5580   15.9410 O.2   182  ILE182     -0.2867
    182  CB        51.4530   12.9910   17.5650 C.3   182  ILE182      0.0252
    183  CG1       50.5960   11.7330   17.7920 C.3   182  ILE182      0.0019
    184  CG2       51.2380   13.5160   16.1650 C.3   182  ILE182      0.0019
    185  CD1       49.0650   11.9130   17.7120 C.3   182  ILE182      0.0001
    186  N         53.2690    7.4600   16.5010 N.3   184  VAL184     -0.1245
    187  CA        52.1460    6.5330   16.3840 C.3   184  VAL184      0.1561
    188  C         52.7200    5.2150   15.9370 C.2   184  VAL184      0.2260
    189  O         53.3890    5.1380   14.8980 O.2   184  VAL184     -0.2867
    190  CB        51.0530    6.9880   15.3980 C.3   184  VAL184      0.0252
    191  CG1       49.8390    6.0660   15.4630 C.3   184  VAL184      0.0019
    192  CG2       50.6050    8.4220   15.6400 C.3   184  VAL184      0.0019
    193  N         54.6090    5.9580   12.4460 N.3   200  GLU200     -0.1245
    194  CA        54.7010    7.2850   11.8460 C.3   200  GLU200      0.1567
    195  C         55.0510    8.2430   12.9490 C.2   200  GLU200      0.2260
    196  O         55.0060    7.9340   14.1500 O.2   200  GLU200     -0.2867
    197  CB        53.4560    7.6260   11.0150 C.3   200  GLU200      0.0388
    198  CG        52.2310    7.5020   11.8730 C.3   200  GLU200      0.1160
    199  CD        50.8640    7.7950   11.2650 C.2   200  GLU200      0.3649
    200  OE1       49.9490    7.3420   11.9920 O.co2 200  GLU200     -0.2457
    201  OE2       50.6420    8.5380   10.2750 O.co2 200  GLU200     -0.2457
    202  N         54.8770   12.6230   13.4380 N.3   202  HIS202     -0.1241
    203  CA        54.4610   13.9160   12.9380 C.3   202  HIS202      0.1621
    204  C         54.7440   15.0680   13.8830 C.2   202  HIS202      0.2264
    205  O         54.6930   14.9490   15.1240 O.2   202  HIS202     -0.2867
    206  CB        52.9280   13.9210   12.7180 C.3   202  HIS202      0.0745
    207  CG        52.4480   12.9210   11.7280 C.ar  202  HIS202      0.0817
    208  ND1       52.5120   13.1340   10.3720 N.ar  202  HIS202     -0.2268
    209  CD2       51.9750   11.6680   11.8900 C.ar  202  HIS202      0.1154
    210  CE1       52.0410   12.0810    9.7400 C.ar  202  HIS202      0.1986
    211  NE2       51.6890   11.1880   10.6400 N.ar  202  HIS202     -0.2212
    212  N         52.7810   18.5110   14.3740 N.3   204  ILE204     -0.1245
    213  CA        51.5420   19.1810   14.0790 C.3   204  ILE204      0.1561
    214  C         51.5660   20.5060   14.8290 C.2   204  ILE204      0.2260
    215  O         51.7120   20.5730   16.0450 O.2   204  ILE204     -0.2867
    216  CB        50.3130   18.3350   14.5140 C.3   204  ILE204      0.0252
    217  CG1       50.3820   16.9420   13.9390 C.3   204  ILE204      0.0019
    218  CG2       49.0690   19.0330   13.9830 C.3   204  ILE204      0.0019
    219  CD1       49.1840   16.0780   14.2890 C.3   204  ILE204      0.0001
    220  N         37.9200   20.5440   19.2110 N.3   233  ARG233     -0.1245
    221  CA        38.9220   21.4620   18.6590 C.3   233  ARG233      0.1563
    222  C         38.3020   22.6930   17.9920 C.2   233  ARG233      0.2260
    223  O         39.0200   23.6370   17.6560 O.2   233  ARG233     -0.2867
    224  CB        39.7760   20.7410   17.6120 C.3   233  ARG233      0.0307
    225  CG        40.7340   19.6990   18.1700 C.3   233  ARG233      0.0489
    226  CD        41.3240   18.7950   17.0810 C.3   233  ARG233      0.2205
    227  NE        41.7230   17.5740   17.7530 N.pl3 233  ARG233     -0.0865
    228  CZ        42.2740   16.4850   17.2190 C.cat 233  ARG233      0.5346
    229  NH1       42.5190   16.4370   15.9100 N.pl3 233  ARG233      0.1354
    230  NH2       42.5860   15.4580   18.0280 N.pl3 233  ARG233      0.1354
@<TRIPOS>BOND
     1     4     3    2
     2     3     2    1
     3     5     2    1
     4     5     6    1
     5     2     1    1
     6     6     8   ar
     7     6     7   ar
     8     8    10   ar
     9     7     9   ar
    10    17    18    1
    11    17    14    1
    12    20    22   ar
    13    20    18   ar
    14    65    66    1
    15    65    62    1
    16    22    23   ar
    17    18    19   ar
    18    10    11   ar
    19    13    14    1
    20    70    69    2
    21    71    72    1
    22    71    68    1
    23    64    63    2
    24    14    15    1
    25     9    11   ar
    26    19    21   ar
    27    23    24    1
    28    23    21   ar
    29    69    68    1
    30    15    16    2
    31    11    12    1
    32    63    62    1
    33    62    61    1
    34    72    74   ar
    35    72    73   ar
    36    74    76   ar
    37    68    67    1
    38    73    75   ar
    39    76    75   ar
    40    61    57   am
    41   210   208   ar
    42   210   211   ar
    43    44    45    1
    44    48    45    1
    45    48    49    1
    46   201   199   ar
    47   208   207   ar
    48   211   209   ar
    49    51    49   ar
    50    51    53   ar
    51    57    58    2
    52    57    56    1
    53    45    46    1
    54    32    34   ar
    55    32    30   ar
    56   197   194    1
    57   197   198    1
    58    46    55   am
    59    46    47    2
    60    49    50   ar
    61    55    56    1
    62   199   198    1
    63   199   200   ar
    64    29    30    1
    65    29    26    1
    66    53    54   ar
    67    34    33   ar
    68   207   209   ar
    69   207   206    1
    70    30    31   ar
    71    56    59    1
    72   194   193    1
    73   194   195    1
    74    25    26    1
    75    26    27    1
    76    50    52   ar
    77    27    28    2
    78   206   203    1
    79    33    31   ar
    80   203   202    1
    81   203   204    1
    82   195   196    2
    83    54    52   ar
    84    59    60    1
    85   204   205    2
    86   217   219    1
    87   217   216    1
    88   218   216    1
    89   213   212    1
    90   213   216    1
    91   213   214    1
    92    77    78    1
    93   214   215    2
    94   189   188    2
    95   155   154    1
    96   155   156    2
    97    81    78    1
    98    81    82    1
    99   154   153    1
   100   190   191    1
   101   190   192    1
   102   190   187    1
   103    78    79    1
   104   229   228    1
   105   188   187    1
   106   181   180    2
   107    35    36    1
   108   158   156    1
   109    41    40    1
   110    41    42    1
   111   153   152    1
   112   184   182    1
   113   152   149    1
   114    82    84   ar
   115    82    83   ar
   116    87    84   ar
   117    87    89   ar
   118   156   157    1
   119   187   186    1
   120    84    86   ar
   121    39    40    1
   122    39    36    1
   123    89    90   ar
   124    83    85   ar
   125   174   173    2
   126    79    80    2
   127    79    91   am
   128    42    43    1
   129    36    37    1
   130   226   227    1
   131   226   225    1
   132   149   148    1
   133   149   150    1
   134   180   179    1
   135    37    38    2
   136   228   227    2
   137   228   230    1
   138    86    85   ar
   139    86    88   ar
   140   182   183    1
   141   182   179    1
   142   224   225    1
   143   224   221    1
   144    90    88   ar
   145   223   222    2
   146   178   179    1
   147   185   183    1
   148   222   221    1
   149    91    92    1
   150   173   172    1
   151   171   172    1
   152   150   151    2
   153   221   220    1
   154   175   172    1
   155   175   177    1
   156   175   176    1
   157    94    93    2
   158   163   160    1
   159   163   164    1
   160    92    93    1
   161    92    95    1
   162    97    99   ar
   163    97    96   ar
   164   160   159    1
   165   160   161    1
   166    99   100   ar
   167    95    96    1
   168    96    98   ar
   169   100    98   ar
   170   100   102   ar
   171   170   169    1
   172    98   101   ar
   173   102   104   ar
   174   161   162    2
   175   147   144    1
   176   101   103   ar
   177   146   145    2
   178   169   166    1
   179   104   103   ar
   180   166   165    1
   181   166   167    1
   182   121   119   ar
   183   121   123   ar
   184   145   144    1
   185   119   118   ar
   186   123   122   ar
   187   144   143    1
   188   167   168    2
   189   118   117    1
   190   118   120   ar
   191   122   120   ar
   192   117   114    1
   193   111   110    2
   194   139   137   ar
   195   139   141   ar
   196   137   136   ar
   197   109   110    1
   198   109   106    1
   199   114   113    1
   200   114   115    1
   201   134   133    2
   202   113   107   am
   203   110   112   am
   204   142   141    1
   205   141   140   ar
   206   107   108    2
   207   107   106    1
   208   105   106    1
   209   136   135    1
   210   136   138   ar
   211   135   132    1
   212   133   132    1
   213   124   115   am
   214   124   125    1
   215   115   116    2
   216   129   128    1
   217   140   138   ar
   218   127   126    2
   219   132   131    1
   220   126   125    1
   221   125   128    1
   222   128   130    1
