@<TRIPOS>MOLECULE
tmp/4oqdC00.pdb
 212 207 0 0 0
SMALL
GASTEIGER

@<TRIPOS>ATOM
      1  N         54.3310   11.0820    5.8000 N.3     5  ASP5       -0.1225
      2  CA        53.7900   11.4420    4.5070 C.3     5  ASP5        0.1805
      3  C         52.5550   10.6150    4.1150 C.2     5  ASP5        0.2597
      4  O         52.1450   10.5720    2.9580 O.2     5  ASP5       -0.2718
      5  CB        54.9000   11.2760    3.4510 C.3     5  ASP5        0.1424
      6  CG        55.3080    9.8460    3.2360 C.2     5  ASP5        0.3668
      7  OD1       55.9930    9.6290    2.2090 O.co2   5  ASP5       -0.2456
      8  OD2       55.0330    8.9400    4.0440 O.co2   5  ASP5       -0.2456
      9  N         51.8820   10.0090    5.1000 N.am    6  TYR6       -0.1976
     10  CA        50.6240    9.3180    4.8380 C.3     6  TYR6        0.1639
     11  C         50.7170    8.4250    3.6060 C.2     6  TYR6        0.2290
     12  O         49.9760    8.5630    2.6270 O.2     6  TYR6       -0.2864
     13  CB        49.4910   10.3330    4.6990 C.3     6  TYR6        0.0560
     14  CG        49.1810   11.1200    5.9390 C.ar    6  TYR6       -0.0198
     15  CD1       48.2520   10.6600    6.8690 C.ar    6  TYR6       -0.0009
     16  CD2       49.7870   12.3210    6.2110 C.ar    6  TYR6       -0.0009
     17  CE1       47.9760   11.3770    8.0070 C.ar    6  TYR6        0.0417
     18  CE2       49.5280   13.0340    7.3660 C.ar    6  TYR6        0.0417
     19  CZ        48.5530   12.5800    8.2580 C.ar    6  TYR6        0.1957
     20  OH        48.3110   13.3870    9.3640 O.3     6  TYR6       -0.2866
     21  N         44.5230    3.7900    7.4140 N.3    14  TYR14      -0.1241
     22  CA        44.0150    5.0420    7.9380 C.3    14  TYR14       0.1605
     23  C         42.5040    4.9000    8.2160 C.2    14  TYR14       0.2264
     24  O         42.0520    5.2550    9.3200 O.2    14  TYR14      -0.2867
     25  CB        44.2860    6.1390    6.9200 C.3    14  TYR14       0.0534
     26  CG        43.8200    7.5160    7.3180 C.ar   14  TYR14      -0.0201
     27  CD1       44.6230    8.3880    8.0560 C.ar   14  TYR14      -0.0009
     28  CD2       42.5290    7.9340    7.0040 C.ar   14  TYR14      -0.0009
     29  CE1       44.2010    9.6570    8.4050 C.ar   14  TYR14       0.0417
     30  CE2       42.1330    9.2220    7.2920 C.ar   14  TYR14       0.0417
     31  CZ        42.8860   10.0460    8.0730 C.ar   14  TYR14       0.1957
     32  OH        42.5070   11.3270    8.3900 O.3    14  TYR14      -0.2866
     33  N         32.2690   10.1510    9.7000 N.3    25  TYR25      -0.1241
     34  CA        32.3360   11.1330    8.6420 C.3    25  TYR25       0.1605
     35  C         30.9660   11.4870    8.0570 C.2    25  TYR25       0.2264
     36  O         30.7910   12.5670    7.5090 O.2    25  TYR25      -0.2867
     37  CB        33.2210   10.5770    7.5220 C.3    25  TYR25       0.0534
     38  CG        34.7280   10.5260    7.7860 C.ar   25  TYR25      -0.0201
     39  CD1       35.3270    9.4590    8.4600 C.ar   25  TYR25      -0.0009
     40  CD2       35.5130   11.5850    7.4050 C.ar   25  TYR25      -0.0009
     41  CE1       36.7090    9.4310    8.7020 C.ar   25  TYR25       0.0417
     42  CE2       36.8790   11.5650    7.6290 C.ar   25  TYR25       0.0417
     43  CZ        37.4670   10.4990    8.2940 C.ar   25  TYR25       0.1957
     44  OH        38.8470   10.4540    8.5100 O.3    25  TYR25      -0.2866
     45  N         37.2990   20.1940   -0.9560 N.3    48  ASP48      -0.1225
     46  CA        37.8450   19.6620    0.2900 C.3    48  ASP48       0.1805
     47  C         39.3620   19.5390    0.0720 C.2    48  ASP48       0.2598
     48  O         39.8110   18.6930   -0.6910 O.2    48  ASP48      -0.2718
     49  CB        37.2320   18.3180    0.6930 C.3    48  ASP48       0.1424
     50  CG        37.5550   17.8970    2.1010 C.2    48  ASP48       0.3668
     51  OD1       37.7850   18.7640    2.9630 O.co2  48  ASP48      -0.2456
     52  OD2       37.6870   16.6910    2.3200 O.co2  48  ASP48      -0.2456
     53  N         40.0400   20.3860    0.8160 N.am   49  VAL49      -0.1966
     54  CA        41.5050   20.4950    0.7760 C.3    49  VAL49       0.1727
     55  C         42.0880   19.5440    1.8110 C.2    49  VAL49       0.2616
     56  O         41.6770   19.4660    2.9730 O.2    49  VAL49      -0.2715
     57  CB        41.8790   21.9710    1.0580 C.3    49  VAL49       0.0290
     58  CG1       43.3800   22.2110    1.2000 C.3    49  VAL49       0.0023
     59  CG2       41.3880   22.8150   -0.1090 C.3    49  VAL49       0.0023
     60  N         43.2210   18.9290    1.4710 N.am   50  ALA50      -0.1963
     61  CA        43.7500   17.8180    2.2550 C.3    50  ALA50       0.1728
     62  C         42.6430   16.7540    2.4950 C.2    50  ALA50       0.2616
     63  O         42.4710   16.2520    3.6130 O.2    50  ALA50      -0.2715
     64  CB        44.3710   18.3100    3.5650 C.3    50  ALA50       0.0334
     65  N         42.0510   16.2900    1.3980 N.am   51  CYS51      -0.1954
     66  CA        40.8890   15.3810    1.4810 C.3    51  CYS51       0.1843
     67  C         41.2590   13.9750    1.9390 C.2    51  CYS51       0.2626
     68  O         40.3910   13.1610    2.2360 O.2    51  CYS51      -0.2714
     69  CB        40.0580   15.3750    0.2050 C.3    51  CYS51       0.0997
     70  SG        41.0400   14.7630   -1.2190 S.3    51  CYS51      -0.0797
     71  N         42.5550   13.6320    1.9450 N.am   52  GLY52      -0.1940
     72  CA        42.9420   12.3460    2.4440 C.3    52  GLY52       0.2014
     73  C         42.3540   11.2360    1.6000 C.2    52  GLY52       0.2639
     74  O         42.5070   11.2140    0.3720 O.2    52  GLY52      -0.2714
     75  N         41.6530   10.3180    2.2500 N.am   53  THR53      -0.1950
     76  CA        41.0310    9.1610    1.6050 C.3    53  THR53       0.1897
     77  C         39.5950    9.4510    1.1260 C.2    53  THR53       0.2313
     78  O         38.9290    8.5940    0.5780 O.2    53  THR53      -0.2863
     79  CB        40.9420    7.9550    2.5360 C.3    53  THR53       0.1794
     80  OG1       40.1130    8.3160    3.6490 O.3    53  THR53      -0.2208
     81  CG2       42.2580    7.5890    3.1160 C.3    53  THR53       0.0378
     82  N         36.8690   10.4320    2.5210 N.3    55  MET55      -0.1230
     83  CA        35.6500   10.0850    3.2860 C.3    55  MET55       0.1702
     84  C         34.5780   11.1730    3.4160 C.2    55  MET55       0.2592
     85  O         33.3560   10.8650    3.2600 O.2    55  MET55      -0.2718
     86  CB        36.0030    9.5880    4.6770 C.3    55  MET55       0.0401
     87  CG        36.6120    8.1970    4.7700 C.3    55  MET55       0.0596
     88  SD        35.4550    6.8960    4.3410 S.3    55  MET55      -0.1393
     89  CE        34.2800    6.9110    5.7160 C.3    55  MET55       0.0692
     90  N         34.9530   12.3840    3.8270 N.am   56  HIS56      -0.1976
     91  CA        33.9990   13.4970    3.8440 C.3    56  HIS56       0.1656
     92  C         33.3700   13.7140    2.4570 C.2    56  HIS56       0.2291
     93  O         32.1500   13.8420    2.2880 O.2    56  HIS56      -0.2864
     94  CB        34.5860   14.8040    4.3580 C.3    56  HIS56       0.0771
     95  CG        34.9150   14.8110    5.8170 C.ar   56  HIS56       0.0820
     96  ND1       36.1880   14.9380    6.3350 N.ar   56  HIS56      -0.2267
     97  CD2       34.0860   14.7620    6.8910 C.ar   56  HIS56       0.1154
     98  CE1       36.1390   14.9260    7.6510 C.ar   56  HIS56       0.1986
     99  NE2       34.8610   14.8560    8.0130 N.ar   56  HIS56      -0.2212
    100  N         41.6410   18.1190   -3.0340 N.3    70  LEU70      -0.1231
    101  CA        43.0770   18.3960   -3.2130 C.3    70  LEU70       0.1693
    102  C         43.7780   17.5720   -2.1290 C.2    70  LEU70       0.2592
    103  O         43.4060   17.5980   -0.9390 O.2    70  LEU70      -0.2718
    104  CB        43.3890   19.8660   -3.0080 C.3    70  LEU70       0.0284
    105  CG        44.8750   20.2340   -3.1130 C.3    70  LEU70       0.0019
    106  CD1       45.1870   20.1200   -4.5850 C.3    70  LEU70       0.0001
    107  CD2       45.2500   21.6100   -2.5830 C.3    70  LEU70       0.0001
    108  N         44.8190   16.8280   -2.4870 N.am   71  GLU71      -0.1966
    109  CA        45.4820   15.9760   -1.5320 C.3    71  GLU71       0.1733
    110  C         46.9570   15.8800   -1.9900 C.2    71  GLU71       0.2616
    111  O         47.2010   15.6780   -3.1860 O.2    71  GLU71      -0.2715
    112  CB        44.9300   14.5710   -1.5640 C.3    71  GLU71       0.0429
    113  CG        45.5110   13.5160   -0.6600 C.3    71  GLU71       0.1163
    114  CD        46.0040   14.0330    0.6680 C.2    71  GLU71       0.3649
    115  OE1       45.1720   14.5630    1.4500 O.co2  71  GLU71      -0.2457
    116  OE2       47.2020   13.8970    0.9740 O.co2  71  GLU71      -0.2457
    117  N         47.8490   16.0540   -1.0370 N.am   72  LEU72      -0.1963
    118  CA        49.3230   16.0020   -1.3540 C.3    72  LEU72       0.1728
    119  C         49.8820   14.6000   -1.4990 C.2    72  LEU72       0.2616
    120  O         50.8510   14.3820   -2.2650 O.2    72  LEU72      -0.2715
    121  CB        50.0850   16.7570   -0.2820 C.3    72  LEU72       0.0311
    122  CG        51.6040   16.8790   -0.3220 C.3    72  LEU72       0.0022
    123  CD1       51.9290   17.7850   -1.4980 C.3    72  LEU72       0.0001
    124  CD2       52.1820   17.4540    0.9630 C.3    72  LEU72       0.0001
    125  N         49.3880   13.6520   -0.7080 N.am   73  SER73      -0.1950
    126  CA        49.9000   12.2850   -0.7190 C.3    73  SER73       0.1924
    127  C         49.2650   11.4370   -1.8120 C.2    73  SER73       0.2314
    128  O         48.0500   11.2250   -1.8570 O.2    73  SER73      -0.2863
    129  CB        49.7140   11.5510    0.6040 C.3    73  SER73       0.2116
    130  OG        49.7630   10.1490    0.4180 O.3    73  SER73      -0.2180
    131  N         47.2040    8.3710   -0.4320 N.3    76  MET76      -0.1245
    132  CA        45.8750    8.7170    0.1230 C.3    76  MET76       0.1570
    133  C         44.9160    9.0260   -1.0250 C.2    76  MET76       0.2261
    134  O         43.7450    8.6400   -1.0180 O.2    76  MET76      -0.2867
    135  CB        45.9920    9.9670    1.0030 C.3    76  MET76       0.0387
    136  CG        46.7430    9.8070    2.3100 C.3    76  MET76       0.0595
    137  SD        46.0740    8.6940    3.5700 S.3    76  MET76      -0.1393
    138  CE        44.8330    9.7080    4.4200 C.3    76  MET76       0.0692
    139  N         48.1190   17.7080   -5.2430 N.3    92  GLY92      -0.1210
    140  CA        48.6080   19.0410   -5.0140 C.3    92  GLY92       0.1956
    141  C         48.6890   19.4600   -3.5690 C.2    92  GLY92       0.2612
    142  O         48.3290   18.6830   -2.6620 O.2    92  GLY92      -0.2717
    143  N         49.1410   20.6910   -3.4080 N.am   93  ASP93      -0.1959
    144  CA        49.6460   21.2490   -2.1740 C.3    93  ASP93       0.1840
    145  C         48.7920   22.4510   -1.7770 C.2    93  ASP93       0.2622
    146  O         48.6760   23.4460   -2.4770 O.2    93  ASP93      -0.2715
    147  CB        51.1220   21.6680   -2.3140 C.3    93  ASP93       0.1450
    148  CG        51.7970   21.9790   -0.9870 C.2    93  ASP93       0.3671
    149  OD1       51.2190   22.5930   -0.0490 O.co2  93  ASP93      -0.2456
    150  OD2       52.9890   21.5930   -0.8720 O.co2  93  ASP93      -0.2456
    151  N         48.2320   22.4040   -0.5740 N.am   94  MET94      -0.1963
    152  CA        47.3680   23.4720   -0.1420 C.3    94  MET94       0.1736
    153  C         48.0310   24.8510   -0.0310 C.2    94  MET94       0.2616
    154  O         47.3630   25.8630    0.0320 O.2    94  MET94      -0.2715
    155  CB        46.6760   23.1070    1.1930 C.3    94  MET94       0.0427
    156  CG        47.5690   23.1930    2.4220 C.3    94  MET94       0.0599
    157  SD        46.6150   22.9670    3.9760 S.3    94  MET94      -0.1393
    158  CE        46.7660   21.2020    4.0580 C.3    94  MET94       0.0692
    159  N         49.3670   24.9230   -0.0510 N.am   95  ARG95      -0.1977
    160  CA        50.0800   26.1550    0.1160 C.3    95  ARG95       0.1597
    161  C         50.1910   26.8810   -1.2490 C.2    95  ARG95       0.2287
    162  O         50.4210   28.0870   -1.2490 O.2    95  ARG95      -0.2864
    163  CB        51.5030   25.8720    0.6570 C.3    95  ARG95       0.0334
    164  CG        51.5870   25.4250    2.1300 C.3    95  ARG95       0.0492
    165  CD        52.9640   24.9160    2.5530 C.3    95  ARG95       0.2205
    166  NE        53.1550   23.5920    1.9850 N.pl3  95  ARG95      -0.0865
    167  CZ        53.8330   22.5860    2.5360 C.cat  95  ARG95       0.5346
    168  NH1       54.4010   22.6930    3.7380 N.pl3  95  ARG95       0.1354
    169  NH2       53.9030   21.4330    1.8810 N.pl3  95  ARG95       0.1354
    170  N         39.7160   19.8070    6.8430 N.3   109  MET109     -0.1230
    171  CA        39.1910   19.1000    8.0060 C.3   109  MET109      0.1702
    172  C         40.2030   18.2450    8.7680 C.2   109  MET109      0.2592
    173  O         41.2580   17.8050    8.2480 O.2   109  MET109     -0.2718
    174  CB        37.9880   18.2470    7.5710 C.3   109  MET109      0.0401
    175  CG        36.8610   18.9690    6.8540 C.3   109  MET109      0.0596
    176  SD        36.1860   20.3150    7.8270 S.3   109  MET109     -0.1393
    177  CE        35.2860   19.3890    9.0600 C.3   109  MET109      0.0692
    178  N         39.8590   17.9280   10.0230 N.am  110  PHE110     -0.1976
    179  CA        40.6520   17.0180   10.8480 C.3   110  PHE110      0.1639
    180  C         42.1250   17.5420   11.0990 C.2   110  PHE110      0.2290
    181  O         43.0070   16.7200   11.3470 O.2   110  PHE110     -0.2864
    182  CB        40.5900   15.6000   10.2710 C.3   110  PHE110      0.0560
    183  CG        40.9260   14.4800   11.2090 C.ar  110  PHE110     -0.0200
    184  CD1       41.0520   14.6720   12.5540 C.ar  110  PHE110     -0.0042
    185  CD2       41.0790   13.1820   10.7270 C.ar  110  PHE110     -0.0042
    186  CE1       41.3300   13.6470   13.4150 C.ar  110  PHE110     -0.0003
    187  CE2       41.3830   12.1330   11.5970 C.ar  110  PHE110     -0.0003
    188  CZ        41.4810   12.3720   12.9510 C.ar  110  PHE110     -0.0000
    189  N         44.1480   18.9960    9.5300 N.3   112  SER112     -0.1217
    190  CA        45.1770   18.8990    8.4560 C.3   112  SER112      0.1889
    191  C         45.9830   20.1630    8.3010 C.2   112  SER112      0.2288
    192  O         47.1690   20.1050    7.8610 O.2   112  SER112     -0.2866
    193  CB        44.5540   18.5550    7.1020 C.3   112  SER112      0.2089
    194  OG        43.7480   17.4040    7.1020 O.3   112  SER112     -0.2183
    195  N         49.5390   20.6390    9.6020 N.3   115  HIS115     -0.1226
    196  CA        50.6900   20.1200    8.8250 C.3   115  HIS115      0.1752
    197  C         51.4560   21.2300    8.1380 C.2   115  HIS115      0.2595
    198  O         52.4820   20.9800    7.4890 O.2   115  HIS115     -0.2718
    199  CB        50.2730   19.0380    7.8440 C.3   115  HIS115      0.0759
    200  CG        50.0120   17.7190    8.5080 C.ar  115  HIS115      0.0818
    201  ND1       50.9470   17.0790    9.2910 N.ar  115  HIS115     -0.2268
    202  CD2       48.9070   16.9290    8.5330 C.ar  115  HIS115      0.1154
    203  CE1       50.4430   15.9480    9.7580 C.ar  115  HIS115      0.1986
    204  NE2       49.2040   15.8390    9.3140 N.ar  115  HIS115     -0.2212
    205  N         50.9590   22.4420    8.2910 N.am  116  LEU116     -0.1980
    206  CA        51.6710   23.6460    7.8750 C.3   116  LEU116      0.1596
    207  C         52.6170   24.0870    8.9750 C.2   116  LEU116      0.2287
    208  O         52.2870   24.2020   10.1520 O.2   116  LEU116     -0.2864
    209  CB        50.7120   24.7490    7.4350 C.3   116  LEU116      0.0297
    210  CG        49.6750   24.3890    6.3760 C.3   116  LEU116      0.0022
    211  CD1       48.7500   25.5380    6.0280 C.3   116  LEU116      0.0001
    212  CD2       50.3040   23.7820    5.1270 C.3   116  LEU116      0.0001
@<TRIPOS>BOND
     1   139   140    1
     2   140   141    1
     3   106   105    1
     4   141   143   am
     5   141   142    2
     6   143   144    1
     7   101   100    1
     8   101   104    1
     9   101   102    1
    10   111   110    2
    11   105   104    1
    12   105   107    1
    13   108   102   am
    14   108   109    1
    15   146   145    2
    16   147   144    1
    17   147   148    1
    18   120   119    2
    19   144   145    1
    20   102   103    2
    21   110   109    1
    22   110   117   am
    23   128   127    2
    24   127   126    1
    25   145   151   am
    26   112   109    1
    27   112   113    1
    28   119   118    1
    29   119   125   am
    30   123   122    1
    31   118   117    1
    32   118   121    1
    33   161   162    2
    34   161   160    1
    35    70    69    1
    36   133   134    2
    37   133   132    1
    38   148   150   ar
    39   148   149   ar
    40    45    46    1
    41   126   125    1
    42   126   129    1
    43    48    47    2
    44   113   114    1
    45   151   152    1
    46   131   132    1
    47   122   121    1
    48   122   124    1
    49   152   153    1
    50   152   155    1
    51    59    57    1
    52   159   153   am
    53   159   160    1
    54   153   154    2
    55    47    46    1
    56    47    53   am
    57   160   163    1
    58   132   135    1
    59    69    66    1
    60    46    49    1
    61    74    73    2
    62   130   129    1
    63    78    77    2
    64   163   164    1
    65   114   116   ar
    66   114   115   ar
    67    49    50    1
    68    54    53    1
    69    54    57    1
    70    54    55    1
    71   135   136    1
    72    57    58    1
    73    77    76    1
    74   155   156    1
    75    65    66    1
    76    65    62   am
    77    60    55   am
    78    60    61    1
    79    66    67    1
    80    73    75   am
    81    73    72    1
    82    76    75    1
    83    76    79    1
    84    55    56    2
    85   169   167    1
    86    67    71   am
    87    67    68    2
    88    71    72    1
    89   166   167    2
    90   166   165    1
    91    50    52   ar
    92    50    51   ar
    93   164   165    1
    94     7     6   ar
    95    61    62    1
    96    61    64    1
    97    93    92    2
    98   136   137    1
    99   156   157    1
   100    92    91    1
   101    62    63    2
   102    82    83    1
   103    79    81    1
   104    79    80    1
   105   167   168    1
   106    12    11    2
   107     4     3    2
   108     6     5    1
   109     6     8   ar
   110    85    84    2
   111    83    84    1
   112    83    86    1
   113    84    90   am
   114     5     2    1
   115   137   138    1
   116    11    10    1
   117    90    91    1
   118    91    94    1
   119   157   158    1
   120     3     2    1
   121     3     9   am
   122    88    87    1
   123    88    89    1
   124    94    95    1
   125     2     1    1
   126    86    87    1
   127    13    10    1
   128    13    14    1
   129    10     9    1
   130   212   210    1
   131    95    96   ar
   132    95    97   ar
   133    14    16   ar
   134    14    15   ar
   135   211   210    1
   136    16    18   ar
   137    96    98   ar
   138   210   209    1
   139   170   171    1
   140   175   174    1
   141   175   176    1
   142    15    17   ar
   143    97    99   ar
   144    25    26    1
   145    25    22    1
   146    28    30   ar
   147    28    26   ar
   148   194   193    1
   149   193   190    1
   150    30    31   ar
   151    26    27   ar
   152    18    19   ar
   153    40    42   ar
   154    40    38   ar
   155    21    22    1
   156   209   206    1
   157   198   197    2
   158    36    35    2
   159    37    38    1
   160    37    34    1
   161   174   171    1
   162    42    43   ar
   163    98    99   ar
   164    38    39   ar
   165   176   177    1
   166   199   200    1
   167   199   196    1
   168   192   191    2
   169   206   205    1
   170   206   207    1
   171    22    23    1
   172   171   172    1
   173    17    19   ar
   174    27    29   ar
   175    35    34    1
   176    31    32    1
   177    31    29   ar
   178   197   205   am
   179   197   196    1
   180    23    24    2
   181   173   172    2
   182    19    20    1
   183    43    44    1
   184    43    41   ar
   185   191   190    1
   186   190   189    1
   187    39    41   ar
   188   200   202   ar
   189   200   201   ar
   190   202   204   ar
   191    34    33    1
   192   172   178   am
   193   196   195    1
   194   207   208    2
   195   201   203   ar
   196   204   203   ar
   197   178   179    1
   198   182   179    1
   199   182   183    1
   200   185   183   ar
   201   185   187   ar
   202   179   180    1
   203   180   181    2
   204   183   184   ar
   205   187   188   ar
   206   184   186   ar
   207   188   186   ar
