@<TRIPOS>MOLECULE
tmp/4oqgA00.pdb
 128 120 0 0 0
SMALL
GASTEIGER

@<TRIPOS>ATOM
      1  N         -6.3120    5.3620   15.2470 N.3    45  SER45      -0.1217
      2  CA        -7.6810    5.8530   15.1180 C.3    45  SER45       0.1889
      3  C         -7.9230    7.1960   15.8000 C.2    45  SER45       0.2288
      4  O         -9.0340    7.7150   15.7460 O.2    45  SER45      -0.2866
      5  CB        -8.6740    4.8300   15.6750 C.3    45  SER45       0.2089
      6  OG        -8.8480    3.7470   14.7810 O.3    45  SER45      -0.2183
      7  N        -12.0640   -4.0870    7.8190 N.3    79  GLU79      -0.1231
      8  CA       -12.1490   -4.6180    9.1780 C.3    79  GLU79       0.1699
      9  C        -12.5780   -3.5430   10.1820 C.2    79  GLU79       0.2592
     10  O        -12.4380   -2.3460    9.9360 O.2    79  GLU79      -0.2718
     11  CB       -10.8220   -5.2680    9.6030 C.3    79  GLU79       0.0402
     12  CG        -9.5670   -4.5350    9.1490 C.3    79  GLU79       0.1161
     13  CD        -8.2860   -5.1820    9.6590 C.2    79  GLU79       0.3649
     14  OE1       -7.4410   -5.5790    8.8260 O.co2  79  GLU79      -0.2457
     15  OE2       -8.1200   -5.2970   10.8920 O.co2  79  GLU79      -0.2457
     16  N        -13.0990   -3.9970   11.3140 N.am   80  TYR80      -0.1976
     17  CA       -13.6750   -3.1330   12.3450 C.3    80  TYR80       0.1639
     18  C        -14.5600   -2.0140   11.7920 C.2    80  TYR80       0.2290
     19  O        -14.1320   -0.8700   11.6550 O.2    80  TYR80      -0.2864
     20  CB       -12.6010   -2.5610   13.2780 C.3    80  TYR80       0.0560
     21  CG       -13.1690   -2.2280   14.6430 C.ar   80  TYR80      -0.0198
     22  CD1      -13.9060   -3.1730   15.3520 C.ar   80  TYR80      -0.0009
     23  CD2      -12.9900   -0.9770   15.2180 C.ar   80  TYR80      -0.0009
     24  CE1      -14.4420   -2.8830   16.5930 C.ar   80  TYR80       0.0417
     25  CE2      -13.5210   -0.6800   16.4620 C.ar   80  TYR80       0.0417
     26  CZ       -14.2450   -1.6360   17.1440 C.ar   80  TYR80       0.1957
     27  OH       -14.7780   -1.3500   18.3810 O.3    80  TYR80      -0.2866
     28  N        -15.0540    4.0930   16.6100 N.3   105  SER105     -0.1217
     29  CA       -13.7980    3.8940   15.8920 C.3   105  SER105      0.1889
     30  C        -14.0060    3.1660   14.5570 C.2   105  SER105      0.2288
     31  O        -13.1120    2.4740   14.0650 O.2   105  SER105     -0.2866
     32  CB       -12.8070    3.1300   16.7690 C.3   105  SER105      0.2089
     33  OG       -11.5170    3.7110   16.7020 O.3   105  SER105     -0.2183
     34  N        -13.9090    2.0160   11.0260 N.3   107  ASN107     -0.1240
     35  CA       -12.9030    2.2480    9.9930 C.3   107  ASN107      0.1653
     36  C        -13.4710    2.6960    8.6450 C.2   107  ASN107      0.2266
     37  O        -12.9280    3.6030    8.0110 O.2   107  ASN107     -0.2867
     38  CB       -12.0600    0.9890    9.7890 C.3   107  ASN107      0.1155
     39  CG       -10.8890    0.9120   10.7430 C.2   107  ASN107      0.2627
     40  OD1      -10.4690    1.9170   11.3160 O.2   107  ASN107     -0.2716
     41  ND2      -10.3440   -0.2870   10.9100 N.am  107  ASN107     -0.0877
     42  N         -7.6520    3.6020    6.2080 N.3   141  GLU141     -0.1231
     43  CA        -7.8310    2.4880    7.1300 C.3   141  GLU141      0.1684
     44  C         -7.9620    1.2120    6.3090 C.2   141  GLU141      0.2434
     45  O         -8.6860    1.2000    5.3160 O.2   141  GLU141     -0.2733
     46  CB        -9.0870    2.6830    7.9850 C.3   141  GLU141      0.0402
     47  CG        -8.9470    3.7300    9.0810 C.3   141  GLU141      0.1161
     48  CD        -8.0900    3.2600   10.2420 C.2   141  GLU141      0.3649
     49  OE1       -7.3600    2.2590   10.0780 O.co2 141  GLU141     -0.2457
     50  OE2       -8.1470    3.8880   11.3210 O.co2 141  GLU141     -0.2457
     51  N         -7.2870    0.1270    6.7310 N.am  142  PRO142     -0.2729
     52  CA        -6.5120   -0.0100    7.9620 C.3   142  PRO142      0.1401
     53  C         -4.9840    0.0910    7.8180 C.2   142  PRO142      0.2269
     54  O         -4.2660   -0.1400    8.7930 O.2   142  PRO142     -0.2865
     55  CB        -6.8890   -1.4180    8.4270 C.3   142  PRO142      0.0296
     56  CG        -7.2090   -2.1720    7.1640 C.3   142  PRO142      0.0237
     57  CD        -7.4330   -1.1720    6.0530 C.3   142  PRO142      0.0939
     58  N         -2.3220    1.9850   10.3230 N.3   145  ASN145     -0.1240
     59  CA        -1.9680    1.4840   11.6420 C.3   145  ASN145      0.1653
     60  C         -0.6650    0.6890   11.6400 C.2   145  ASN145      0.2266
     61  O         -0.2320    0.2020   12.6830 O.2   145  ASN145     -0.2867
     62  CB        -3.0970    0.6140   12.1890 C.3   145  ASN145      0.1155
     63  CG        -4.3900    1.3890   12.3880 C.2   145  ASN145      0.2627
     64  OD1       -4.4100    2.4350   13.0330 O.2   145  ASN145     -0.2716
     65  ND2       -5.4770    0.8730   11.8350 N.am  145  ASN145     -0.0877
     66  N        -15.7500    3.1120   23.1300 N.3   191  VAL191     -0.1245
     67  CA       -14.7990    2.0100   23.0210 C.3   191  VAL191      0.1561
     68  C        -13.5030    2.2210   23.7890 C.2   191  VAL191      0.2260
     69  O        -12.5590    1.4480   23.6270 O.2   191  VAL191     -0.2867
     70  CB       -14.4390    1.7340   21.5500 C.3   191  VAL191      0.0252
     71  CG1      -15.7030    1.4990   20.7330 C.3   191  VAL191      0.0019
     72  CG2      -13.6260    2.8850   20.9770 C.3   191  VAL191      0.0019
     73  N        -10.7150   10.0710   22.5320 N.3   209  LYS209     -0.1231
     74  CA       -10.6480    9.2350   21.3550 C.3   209  LYS209      0.1693
     75  C         -9.4230    8.3570   21.5110 C.2   209  LYS209      0.2593
     76  O         -8.3140    8.8560   21.7180 O.2   209  LYS209     -0.2718
     77  CB       -10.5180   10.0770   20.0890 C.3   209  LYS209      0.0285
     78  CG       -10.5160    9.2580   18.8110 C.3   209  LYS209      0.0035
     79  CD       -11.8910    8.6640   18.5430 C.3   209  LYS209      0.0206
     80  CE       -11.8250    7.4970   17.5780 C.3   209  LYS209      0.1093
     81  NZ       -11.3500    6.2650   18.2560 N.3   209  LYS209     -0.1314
     82  N         -9.6270    7.0500   21.4130 N.am  210  SER210     -0.1938
     83  CA        -8.5460    6.0950   21.5670 C.3   210  SER210      0.2055
     84  C         -7.9720    5.7000   20.2110 C.2   210  SER210      0.2644
     85  O         -8.4930    6.0810   19.1600 O.2   210  SER210     -0.2714
     86  CB        -9.0600    4.8490   22.2750 C.3   210  SER210      0.2130
     87  OG       -10.1500    4.3040   21.5520 O.3   210  SER210     -0.2179
     88  N         -6.8910    4.9330   20.2470 N.am  211  GLY211     -0.1939
     89  CA        -6.2920    4.4050   19.0390 C.3   211  GLY211      0.2014
     90  C         -5.5680    3.1000   19.3130 C.2   211  GLY211      0.2639
     91  O         -4.9560    2.9280   20.3650 O.2   211  GLY211     -0.2714
     92  N         -5.5870    2.1930   18.3620 N.am  212  ALA212     -0.1963
     93  CA        -4.8190    0.9680   18.4120 C.3   212  ALA212      0.1728
     94  C         -4.2980    0.6400   17.0400 C.2   212  ALA212      0.2617
     95  O         -4.8730    1.0330   16.0790 O.2   212  ALA212     -0.2715
     96  CB        -5.6820   -0.1530   18.9000 C.3   212  ALA212      0.0334
     97  N         -3.2180   -0.0600   16.9830 N.am  213  GLY213     -0.1940
     98  CA        -2.6050   -0.3340   15.7390 C.3   213  GLY213      0.2014
     99  C         -1.6430   -1.4150   16.0150 C.2   213  GLY213      0.2638
    100  O         -1.7910   -2.1290   16.9740 O.2   213  GLY213     -0.2714
    101  N         -0.6480   -1.5220   15.1770 N.am  214  GLU214     -0.1977
    102  CA         0.2110   -2.6440   15.2400 C.3   214  GLU214      0.1602
    103  C          1.4650   -2.3410   15.9350 C.2   214  GLU214      0.2287
    104  O          1.7220   -1.2150   16.2020 O.2   214  GLU214     -0.2864
    105  CB         0.4660   -3.1530   13.8620 C.3   214  GLU214      0.0415
    106  CG        -0.1980   -4.4750   13.6540 C.3   214  GLU214      0.1163
    107  CD        -0.8640   -4.5340   12.3440 C.2   214  GLU214      0.3649
    108  OE1       -1.9180   -5.1470   12.2540 O.co2 214  GLU214     -0.2457
    109  OE2       -0.3260   -3.9550   11.4070 O.co2 214  GLU214     -0.2457
    110  N         -0.6810    2.0400   20.7390 N.3   218  ARG218     -0.1245
    111  CA        -1.8670    2.3180   21.5350 C.3   218  ARG218      0.1563
    112  C         -1.8320    3.7830   21.9060 C.2   218  ARG218      0.2260
    113  O         -0.7690    4.3370   22.1650 O.2   218  ARG218     -0.2867
    114  CB        -1.9050    1.4440   22.7930 C.3   218  ARG218      0.0307
    115  CG        -3.2900    1.3010   23.4320 C.3   218  ARG218      0.0489
    116  CD        -4.1960    0.3930   22.6150 C.3   218  ARG218      0.2205
    117  NE        -5.4290    0.0480   23.3140 N.pl3 218  ARG218     -0.0865
    118  CZ        -6.6310    0.5300   23.0080 C.cat 218  ARG218      0.5346
    119  NH1       -6.7830    1.3970   22.0160 N.pl3 218  ARG218      0.1354
    120  NH2       -7.6870    0.1480   23.7000 N.pl3 218  ARG218      0.1354
    121  N         -2.7550   -6.3860   24.5680 N.3   245  MET245     -0.1245
    122  CA        -3.6770   -5.2650   24.6170 C.3   245  MET245      0.1570
    123  C         -3.9600   -4.8800   26.0660 C.2   245  MET245      0.2261
    124  O         -3.8950   -3.7060   26.4290 O.2   245  MET245     -0.2867
    125  CB        -4.9870   -5.6500   23.9140 C.3   245  MET245      0.0387
    126  CG        -5.9840   -4.5150   23.7400 C.3   245  MET245      0.0595
    127  SD        -5.4690   -3.2840   22.5250 S.3   245  MET245     -0.1393
    128  CE        -5.4430   -4.2490   21.0140 C.3   245  MET245      0.0692
@<TRIPOS>BOND
     1    45    44    2
     2    57    51    1
     3    57    56    1
     4    42    43    1
     5    44    51   am
     6    44    43    1
     7    51    52    1
     8    43    46    1
     9    56    55    1
    10    53    52    1
    11    53    54    2
    12     7     8    1
    13    52    55    1
    14    46    47    1
    15    37    36    2
    16    36    35    1
    17    14    13   ar
    18    47    48    1
    19    12    11    1
    20    12    13    1
    21     8    11    1
    22     8     9    1
    23    13    15   ar
    24    38    35    1
    25    38    39    1
    26    10     9    2
    27    35    34    1
    28    49    48   ar
    29     9    16   am
    30    48    50   ar
    31    58    59    1
    32    39    41   am
    33    39    40    2
    34    16    17    1
    35   109   107   ar
    36    60    59    1
    37    60    61    2
    38    59    62    1
    39    19    18    2
    40    18    17    1
    41    65    63   am
    42    62    63    1
    43   108   107   ar
    44   107   106    1
    45    17    20    1
    46    63    64    2
    47    20    21    1
    48   106   105    1
    49   105   102    1
    50    31    30    2
    51    30    29    1
    52    21    23   ar
    53    21    22   ar
    54     6     5    1
    55     2     1    1
    56     2     5    1
    57     2     3    1
    58   101   102    1
    59   101    99   am
    60    23    25   ar
    61   102   103    1
    62    22    24   ar
    63    98    99    1
    64    98    97    1
    65     4     3    2
    66    29    28    1
    67    29    32    1
    68   103   104    2
    69    99   100    2
    70    95    94    2
    71    25    26   ar
    72    24    26   ar
    73    33    32    1
    74    97    94   am
    75    94    93    1
    76    26    27    1
    77    80    81    1
    78    80    79    1
    79    92    93    1
    80    92    90   am
    81    93    96    1
    82    79    78    1
    83    78    77    1
    84    89    90    1
    85    89    88    1
    86    85    84    2
    87    90    91    2
    88    77    74    1
    89    84    88   am
    90    84    83    1
    91    71    70    1
    92   110   111    1
    93    72    70    1
    94   128   127    1
    95    74    75    1
    96    74    73    1
    97    82    75   am
    98    82    83    1
    99    75    76    2
   100   111   112    1
   101   111   114    1
   102    70    67    1
   103    87    86    1
   104    83    86    1
   105   112   113    2
   106   119   118    1
   107   127   126    1
   108   116   117    1
   109   116   115    1
   110   114   115    1
   111   118   117    2
   112   118   120    1
   113    67    66    1
   114    67    68    1
   115    69    68    2
   116   126   125    1
   117   125   122    1
   118   121   122    1
   119   122   123    1
   120   123   124    2
