@<TRIPOS>MOLECULE
tmp/4oqpA00.pdb
 142 137 0 0 0
SMALL
GASTEIGER

@<TRIPOS>ATOM
      1  N          8.4980   -0.3750   28.8530 N.3    30  TYR30      -0.1241
      2  CA         9.2250    0.2040   27.7530 C.3    30  TYR30       0.1605
      3  C          8.3310    0.5510   26.5440 C.2    30  TYR30       0.2264
      4  O          8.4940    1.6090   25.9520 O.2    30  TYR30      -0.2867
      5  CB        10.3770   -0.7330   27.3250 C.3    30  TYR30       0.0534
      6  CG        11.2230   -0.1620   26.2130 C.ar   30  TYR30      -0.0201
      7  CD1       12.2330    0.7630   26.4850 C.ar   30  TYR30      -0.0009
      8  CD2       11.0290   -0.5440   24.8810 C.ar   30  TYR30      -0.0009
      9  CE1       13.0040    1.3080   25.4880 C.ar   30  TYR30       0.0417
     10  CE2       11.8000    0.0250   23.8710 C.ar   30  TYR30       0.0417
     11  CZ        12.8010    0.9290   24.1840 C.ar   30  TYR30       0.1957
     12  OH        13.5270    1.4780   23.1660 O.3    30  TYR30      -0.2866
     13  N         18.3800    9.8740   12.4440 N.3    58  SER58      -0.1202
     14  CA        18.9260    8.5560   12.7670 C.3    58  SER58       0.2020
     15  C         17.9190    7.4680   12.2810 C.2    58  SER58       0.2619
     16  O         17.0130    7.7150   11.4550 O.2    58  SER58      -0.2717
     17  CB        19.1540    8.5060   14.2980 C.3    58  SER58       0.2103
     18  OG        19.8650    7.3150   14.7450 O.3    58  SER58      -0.2182
     19  N         18.0590    6.2660   12.8240 N.am   59  TRP59      -0.1961
     20  CA        17.1110    5.2170   12.5580 C.3    59  TRP59       0.1771
     21  C         16.9970    4.2680   13.7450 C.2    59  TRP59       0.2620
     22  O         17.6400    4.4700   14.7830 O.2    59  TRP59      -0.2715
     23  CB        17.4450    4.4770   11.2550 C.3    59  TRP59       0.0590
     24  CG        18.8690    3.9860   11.0700 C.ar   59  TRP59       0.0006
     25  CD1       19.7940    4.5300   10.2310 C.ar   59  TRP59       0.0946
     26  CD2       19.4790    2.8310   11.6340 C.ar   59  TRP59       0.0152
     27  NE1       20.9530    3.8250   10.2850 N.ar   59  TRP59      -0.2442
     28  CE2       20.8110    2.7900   11.1500 C.ar   59  TRP59       0.0810
     29  CE3       19.0930    1.8890   12.6010 C.ar   59  TRP59       0.0012
     30  CZ2       21.6980    1.8230   11.5320 C.ar   59  TRP59       0.0191
     31  CZ3       19.9900    0.9050   12.9710 C.ar   59  TRP59       0.0001
     32  CH2       21.2940    0.8970   12.4350 C.ar   59  TRP59       0.0015
     33  N         16.0910    3.3120   13.6030 N.am   60  GLY60      -0.1940
     34  CA        15.8430    2.3160   14.6250 C.3    60  GLY60       0.2014
     35  C         14.3780    2.3530   15.0640 C.2    60  GLY60       0.2640
     36  O         13.5860    3.0340   14.4840 O.2    60  GLY60      -0.2714
     37  N         14.0460    1.6270   16.1100 N.am   61  THR61      -0.1936
     38  CA        12.6310    1.4010   16.4380 C.3    61  THR61       0.2028
     39  C         11.9780    2.6860   16.9460 C.2    61  THR61       0.2643
     40  O         10.8210    2.9750   16.6040 O.2    61  THR61      -0.2714
     41  CB        12.4270    0.2020   17.4030 C.3    61  THR61       0.1808
     42  OG1       13.0950    0.4060   18.6360 O.3    61  THR61      -0.2208
     43  CG2       12.9240   -1.0880   16.7500 C.3    61  THR61       0.0379
     44  N         12.6920    3.4490   17.7690 N.am   62  THR62      -0.1936
     45  CA        12.1770    4.7400   18.2290 C.3    62  THR62       0.2028
     46  C         11.9740    5.7150   17.0740 C.2    62  THR62       0.2642
     47  O         10.9370    6.3580   16.9430 O.2    62  THR62      -0.2714
     48  CB        13.1470    5.3640   19.2860 C.3    62  THR62       0.1808
     49  OG1       13.4590    4.3720   20.2830 O.3    62  THR62      -0.2208
     50  CG2       12.5610    6.5780   19.9230 C.3    62  THR62       0.0379
     51  N         13.0020    5.8620   16.2370 N.am   63  MET63      -0.1976
     52  CA        12.9340    6.7940   15.1360 C.3    63  MET63       0.1605
     53  C         11.7940    6.4460   14.1490 C.2    63  MET63       0.2287
     54  O         11.1340    7.3290   13.6370 O.2    63  MET63      -0.2864
     55  CB        14.2860    6.8560   14.4190 C.3    63  MET63       0.0413
     56  CG        15.3880    7.4530   15.2640 C.3    63  MET63       0.0598
     57  SD        15.1740    9.2050   15.5910 S.3    63  MET63      -0.1393
     58  CE        15.1410    9.7870   13.9110 C.3    63  MET63       0.0692
     59  N         23.4180    8.3960    9.3310 N.3    84  LYS84      -0.1245
     60  CA        24.2320    7.1750    9.2550 C.3    84  LYS84       0.1561
     61  C         23.5050    6.2250    8.3180 C.2    84  LYS84       0.2260
     62  O         22.2690    6.2130    8.2810 O.2    84  LYS84      -0.2867
     63  CB        24.4050    6.5030   10.6160 C.3    84  LYS84       0.0271
     64  CG        23.1370    6.3150   11.4110 C.3    84  LYS84       0.0035
     65  CD        23.2440    5.2730   12.4820 C.3    84  LYS84       0.0206
     66  CE        21.9510    5.3130   13.2880 C.3    84  LYS84       0.1093
     67  NZ        21.9610    4.3710   14.4230 N.3    84  LYS84      -0.1314
     68  N         18.0730    8.6440   18.9360 N.3   151  THR151     -0.1203
     69  CA        17.8770    8.0120   20.2070 C.3   151  THR151      0.1994
     70  C         19.2310    7.5430   20.7020 C.2   151  THR151      0.2618
     71  O         20.2490    7.8860   20.0910 O.2   151  THR151     -0.2717
     72  CB        16.9060    6.8100   20.1390 C.3   151  THR151      0.1784
     73  OG1       16.5150    6.4130   21.4590 O.3   151  THR151     -0.2211
     74  CG2       17.5070    5.6480   19.4490 C.3   151  THR151      0.0376
     75  N         19.2370    6.8890   21.8490 N.am  152  VAL152     -0.1965
     76  CA        20.4370    6.1520   22.2700 C.3   152  VAL152      0.1727
     77  C         20.0580    4.6630   22.3620 C.2   152  VAL152      0.2617
     78  O         18.9570    4.3000   22.8320 O.2   152  VAL152     -0.2715
     79  CB        21.0850    6.7680   23.5590 C.3   152  VAL152      0.0290
     80  CG1       20.0950    6.8620   24.7070 C.3   152  VAL152      0.0023
     81  CG2       22.3430    6.0100   24.0050 C.3   152  VAL152      0.0023
     82  N         20.9700    3.7910   21.9240 N.am  153  GLY153     -0.1940
     83  CA        20.7200    2.3610   21.9400 C.3   153  GLY153      0.2014
     84  C         21.3000    1.7410   23.2050 C.2   153  GLY153      0.2639
     85  O         21.8900    2.4430   24.0050 O.2   153  GLY153     -0.2714
     86  N         21.0460    0.4670   23.4120 N.am  154  THR154     -0.1950
     87  CA        21.5310   -0.2790   24.5740 C.3   154  THR154      0.1897
     88  C         22.6240   -1.2370   24.1100 C.2   154  THR154      0.2313
     89  O         23.0090   -1.2870   22.9400 O.2   154  THR154     -0.2863
     90  CB        20.3980   -1.1460   25.2000 C.3   154  THR154      0.1794
     91  OG1       20.1630   -2.2700   24.3380 O.3   154  THR154     -0.2208
     92  CG2       19.1350   -0.2930   25.4390 C.3   154  THR154      0.0378
     93  N         19.8400   -6.0530   21.0780 N.3   159  ALA159     -0.1231
     94  CA        20.1080   -4.7340   20.5120 C.3   159  ALA159      0.1694
     95  C         20.1560   -4.8050   18.9830 C.2   159  ALA159      0.2592
     96  O         20.7650   -5.6920   18.3960 O.2   159  ALA159     -0.2718
     97  CB        21.4060   -4.1420   21.0770 C.3   159  ALA159      0.0304
     98  N         19.4530   -3.8910   18.3270 N.am  160  LEU160     -0.1966
     99  CA        19.4200   -3.8870   16.8900 C.3   160  LEU160      0.1728
    100  C         20.8250   -3.9390   16.2360 C.2   160  LEU160      0.2616
    101  O         21.0580   -4.6490   15.2600 O.2   160  LEU160     -0.2715
    102  CB        18.6170   -2.6720   16.4370 C.3   160  LEU160      0.0311
    103  CG        18.3610   -2.4720   14.9680 C.3   160  LEU160      0.0022
    104  CD1       17.7220   -3.6990   14.3190 C.3   160  LEU160      0.0001
    105  CD2       17.4810   -1.2280   14.7560 C.3   160  LEU160      0.0001
    106  N         21.7620   -3.1830   16.7820 N.am  161  LEU161     -0.1977
    107  CA        23.1060   -3.1190   16.1970 C.3   161  LEU161      0.1596
    108  C         23.9110   -4.4050   16.3440 C.2   161  LEU161      0.2287
    109  O         24.9740   -4.5490   15.7400 O.2   161  LEU161     -0.2864
    110  CB        23.8790   -1.9520   16.7730 C.3   161  LEU161      0.0297
    111  CG        23.6600   -0.6220   16.0820 C.3   161  LEU161      0.0022
    112  CD1       24.3560    0.4600   16.8880 C.3   161  LEU161      0.0001
    113  CD2       24.1780   -0.6240   14.6450 C.3   161  LEU161      0.0001
    114  N         24.8550    3.4520   22.3330 N.3   182  ASP182     -0.1239
    115  CA        25.3390    4.0700   21.0840 C.3   182  ASP182      0.1674
    116  C         24.4770    5.2840   20.7750 C.2   182  ASP182      0.2266
    117  O         23.3060    5.3180   21.1460 O.2   182  ASP182     -0.2867
    118  CB        25.2690    3.1020   19.8810 C.3   182  ASP182      0.1410
    119  CG        23.8630    3.0040   19.3150 C.2   182  ASP182      0.3668
    120  OD1       23.1310    2.1780   19.8870 O.co2 182  ASP182     -0.2456
    121  OD2       23.5110    3.7360   18.3510 O.co2 182  ASP182     -0.2456
    122  N         23.7990    7.1070   17.0810 N.3   184  CYS184     -0.1221
    123  CA        24.1280    6.9480   15.6660 C.3   184  CYS184      0.1808
    124  C         25.1880    5.8610   15.4760 C.2   184  CYS184      0.2601
    125  O         26.1090    6.0050   14.6240 O.2   184  CYS184     -0.2717
    126  CB        24.5280    8.2580   14.9960 C.3   184  CYS184      0.0970
    127  SG        23.0860    9.4080   14.9330 S.3   184  CYS184     -0.0800
    128  N         25.0330    4.7630   16.2210 N.am  185  SER185     -0.1952
    129  CA        25.8450    3.5560   16.0240 C.3   185  SER185      0.1924
    130  C         27.3140    3.7230   16.4140 C.2   185  SER185      0.2314
    131  O         28.1220    2.8410   16.1410 O.2   185  SER185     -0.2863
    132  CB        25.6900    2.9610   14.6290 C.3   185  SER185      0.2116
    133  OG        24.3480    2.5710   14.4100 O.3   185  SER185     -0.2180
    134  N         17.3240    1.9480   29.2450 N.3   226  LYS226     -0.1245
    135  CA        18.1080    3.0230   28.6550 C.3   226  LYS226      0.1561
    136  C         18.6340    4.0530   29.6690 C.2   226  LYS226      0.2260
    137  O         19.2630    5.0260   29.2680 O.2   226  LYS226     -0.2867
    138  CB        17.2950    3.7250   27.5420 C.3   226  LYS226      0.0271
    139  CG        17.0950    2.8750   26.2850 C.3   226  LYS226      0.0035
    140  CD        16.6170    3.6420   25.0800 C.3   226  LYS226      0.0206
    141  CE        16.6210    2.7620   23.8620 C.3   226  LYS226      0.1093
    142  NZ        16.3590    3.4640   22.5940 N.3   226  LYS226     -0.1314
@<TRIPOS>BOND
     1    62    61    2
     2    61    60    1
     3    60    59    1
     4    60    63    1
     5    25    27   ar
     6    25    24   ar
     7    27    28   ar
     8    63    64    1
     9    24    23    1
    10    24    26   ar
    11    28    30   ar
    12    28    26   ar
    13    23    20    1
    14    64    65    1
    15    16    15    2
    16    30    32   ar
    17    26    29   ar
    18    15    14    1
    19    15    19   am
    20    32    31   ar
    21    13    14    1
    22    65    66    1
    23    20    19    1
    24    20    21    1
    25    29    31   ar
    26    14    17    1
    27    66    67    1
    28    33    21   am
    29    33    34    1
    30    54    53    2
    31    21    22    2
    32    58    57    1
    33    53    52    1
    34    17    18    1
    35   104   103    1
    36   133   132    1
    37    55    52    1
    38    55    56    1
    39    36    35    2
    40   125   124    2
    41    34    35    1
    42   132   129    1
    43   113   111    1
    44   105   103    1
    45   127   126    1
    46   103   102    1
    47   126   123    1
    48    35    37   am
    49    52    51    1
    50   101   100    2
    51    56    57    1
    52   124   123    1
    53   124   128   am
    54   123   122    1
    55   109   108    2
    56   129   128    1
    57   129   130    1
    58   111   110    1
    59   111   112    1
    60    37    38    1
    61   131   130    2
    62   107   108    1
    63   107   110    1
    64   107   106    1
    65   100   106   am
    66   100    99    1
    67    51    46   am
    68   102    99    1
    69    38    39    1
    70    38    41    1
    71    40    39    2
    72    43    41    1
    73    99    98    1
    74    47    46    2
    75    39    44   am
    76    46    45    1
    77    41    42    1
    78    44    45    1
    79    45    48    1
    80    98    95   am
    81   121   119   ar
    82    96    95    2
    83    68    69    1
    84    95    94    1
    85    48    50    1
    86    48    49    1
    87   119   118    1
    88   119   120   ar
    89    74    72    1
    90   118   115    1
    91    71    70    2
    92    72    69    1
    93    72    73    1
    94    69    70    1
    95    94    97    1
    96    94    93    1
    97    70    75   am
    98   116   115    1
    99   116   117    2
   100   115   114    1
   101    75    76    1
   102    82    83    1
   103    82    77   am
   104    83    84    1
   105    76    77    1
   106    76    79    1
   107    77    78    2
   108   142   141    1
   109    89    88    2
   110    12    11    1
   111    84    86   am
   112    84    85    2
   113    86    87    1
   114    79    81    1
   115    79    80    1
   116   141   140    1
   117    10    11   ar
   118    10     8   ar
   119    88    87    1
   120    11     9   ar
   121    91    90    1
   122    87    90    1
   123     8     6   ar
   124   140   139    1
   125    90    92    1
   126     9     7   ar
   127     4     3    2
   128     6     7   ar
   129     6     5    1
   130   139   138    1
   131     3     2    1
   132     5     2    1
   133   138   135    1
   134     2     1    1
   135   135   134    1
   136   135   136    1
   137   137   136    2
