@<TRIPOS>MOLECULE
tmp/4oqqA00.pdb
 107 102 0 0 0
SMALL
GASTEIGER

@<TRIPOS>ATOM
      1  N         45.7140   47.6010  176.1830 N.3    29  TYR29      -0.1241
      2  CA        45.7880   46.5660  175.1210 C.3    29  TYR29       0.1605
      3  C         46.6920   46.9830  173.9570 C.2    29  TYR29       0.2264
      4  O         47.5170   46.1850  173.5060 O.2    29  TYR29      -0.2867
      5  CB        44.4110   46.1920  174.5850 C.3    29  TYR29       0.0534
      6  CG        44.4740   45.0170  173.5940 C.ar   29  TYR29      -0.0201
      7  CD1       44.7310   43.7100  174.0400 C.ar   29  TYR29      -0.0009
      8  CD2       44.3160   45.2220  172.2190 C.ar   29  TYR29      -0.0009
      9  CE1       44.8110   42.6430  173.1450 C.ar   29  TYR29       0.0417
     10  CE2       44.3930   44.1790  171.3240 C.ar   29  TYR29       0.0417
     11  CZ        44.6400   42.8870  171.7860 C.ar   29  TYR29       0.1957
     12  OH        44.7160   41.8580  170.8860 O.3    29  TYR29      -0.2866
     13  N         45.4760   34.6060  160.5850 N.3    58  TRP58      -0.1227
     14  CA        45.0620   35.9830  160.3600 C.3    58  TRP58       0.1737
     15  C         44.3090   36.5070  161.5690 C.2    58  TRP58       0.2596
     16  O         43.7500   35.7310  162.3610 O.2    58  TRP58      -0.2718
     17  CB        44.1660   36.1350  159.1270 C.3    58  TRP58       0.0564
     18  CG        42.9660   35.2570  159.0090 C.ar   58  TRP58       0.0003
     19  CD1       42.8830   34.0430  158.3550 C.ar   58  TRP58       0.0946
     20  CD2       41.6400   35.5220  159.4920 C.ar   58  TRP58       0.0152
     21  NE1       41.6110   33.5500  158.4190 N.ar   58  TRP58      -0.2442
     22  CE2       40.8170   34.4440  159.0780 C.ar   58  TRP58       0.0810
     23  CE3       41.0580   36.5850  160.1960 C.ar   58  TRP58       0.0012
     24  CZ2       39.4850   34.3740  159.3920 C.ar   58  TRP58       0.0191
     25  CZ3       39.7230   36.5220  160.4940 C.ar   58  TRP58       0.0001
     26  CH2       38.9460   35.4240  160.0950 C.ar   58  TRP58       0.0015
     27  N         44.2800   37.8400  161.6730 N.am   59  GLY59      -0.1942
     28  CA        43.6490   38.5530  162.7710 C.3    59  GLY59       0.2014
     29  C         44.4400   39.8410  162.9810 C.2    59  GLY59       0.2640
     30  O         45.5040   40.0240  162.4010 O.2    59  GLY59      -0.2714
     31  N         43.9690   40.6990  163.8630 N.am   60  THR60      -0.1936
     32  CA        44.6030   42.0120  164.0130 C.3    60  THR60       0.2028
     33  C         46.0470   41.8650  164.5230 C.2    60  THR60       0.2642
     34  O         46.9710   42.4130  163.9520 O.2    60  THR60      -0.2714
     35  CB        43.7680   42.9220  164.9210 C.3    60  THR60       0.1808
     36  OG1       43.5930   42.2790  166.1760 O.3    60  THR60      -0.2208
     37  CG2       42.3870   43.2000  164.3020 C.3    60  THR60       0.0379
     38  N         46.2670   41.0850  165.5660 N.am   61  THR61      -0.1950
     39  CA        47.6360   40.8870  166.0230 C.3    61  THR61       0.1897
     40  C         48.5500   40.3090  164.9400 C.2    61  THR61       0.2313
     41  O         49.6490   40.8240  164.6930 O.2    61  THR61      -0.2863
     42  CB        47.6660   40.0290  167.2980 C.3    61  THR61       0.1794
     43  OG1       46.8960   40.7080  168.2940 O.3    61  THR61      -0.2208
     44  CG2       49.1140   39.8690  167.8000 C.3    61  THR61       0.0378
     45  N         44.3280   28.9940  158.9690 N.3    83  LYS83      -0.1245
     46  CA        43.0190   29.4130  159.3940 C.3    83  LYS83       0.1561
     47  C         42.0660   29.6290  158.2150 C.2    83  LYS83       0.2260
     48  O         42.4480   30.1830  157.2000 O.2    83  LYS83      -0.2867
     49  CB        43.2170   30.6670  160.2360 C.3    83  LYS83       0.0271
     50  CG        41.9630   31.1090  160.9340 C.3    83  LYS83       0.0035
     51  CD        42.2260   32.3300  161.7830 C.3    83  LYS83       0.0206
     52  CE        40.9180   32.9430  162.2830 C.3    83  LYS83       0.1093
     53  NZ        41.2760   34.0500  163.2070 N.3    83  LYS83      -0.1314
     54  N         47.7890   33.9280  167.4540 N.3   150  THR150     -0.1218
     55  CA        47.3230   34.4540  168.7320 C.3   150  THR150      0.1862
     56  C         46.1310   33.6130  169.2170 C.2   150  THR150      0.2287
     57  O         45.7350   32.6250  168.5610 O.2   150  THR150     -0.2866
     58  CB        46.9580   35.9680  168.6710 C.3   150  THR150      0.1770
     59  OG1       46.9160   36.5060  170.0100 O.3   150  THR150     -0.2211
     60  CG2       45.6030   36.2010  167.9250 C.3   150  THR150      0.0375
     61  N         42.0320   34.0790  170.3330 N.3   152  GLY152     -0.1210
     62  CA        40.8620   34.9600  170.3590 C.3   152  GLY152      0.1956
     63  C         40.0510   34.7320  171.6170 C.2   152  GLY152      0.2612
     64  O         40.2290   33.7430  172.3130 O.2   152  GLY152     -0.2717
     65  N         39.1790   35.6670  171.9470 N.am  153  THR153     -0.1952
     66  CA        38.3530   35.5200  173.1440 C.3   153  THR153      0.1897
     67  C         36.9230   35.1320  172.7810 C.2   153  THR153      0.2313
     68  O         36.6000   35.0300  171.6010 O.2   153  THR153     -0.2863
     69  CB        38.3490   36.8120  173.9640 C.3   153  THR153      0.1794
     70  OG1       37.7840   37.8480  173.1810 O.3   153  THR153     -0.2208
     71  CG2       39.7630   37.2120  174.3450 C.3   153  THR153      0.0378
     72  N         34.1180   36.9860  173.8390 N.3   155  ARG155     -0.1245
     73  CA        33.2140   38.1100  174.0730 C.3   155  ARG155      0.1563
     74  C         32.0430   38.1510  173.0610 C.2   155  ARG155      0.2260
     75  O         32.1670   37.6600  171.9560 O.2   155  ARG155     -0.2867
     76  CB        33.9910   39.4080  173.9760 C.3   155  ARG155      0.0307
     77  CG        35.2100   39.4940  174.8810 C.3   155  ARG155      0.0489
     78  CD        36.0180   40.7340  174.5200 C.3   155  ARG155      0.2205
     79  NE        36.3980   40.7300  173.0960 N.pl3 155  ARG155     -0.0865
     80  CZ        36.7630   41.8100  172.4010 C.cat 155  ARG155      0.5346
     81  NH1       36.8140   43.0090  172.9780 N.pl3 155  ARG155      0.1354
     82  NH2       37.0760   41.6850  171.1150 N.pl3 155  ARG155      0.1354
     83  N         32.9740   38.9060  169.4770 N.3   158  ALA158     -0.1245
     84  CA        33.8420   38.0130  168.7000 C.3   158  ALA158      0.1562
     85  C         33.2460   37.7970  167.3300 C.2   158  ALA158      0.2260
     86  O         32.0220   37.5340  167.1830 O.2   158  ALA158     -0.2867
     87  CB        34.0410   36.6630  169.3910 C.3   158  ALA158      0.0290
     88  N         42.1950   41.0930  178.9090 N.3   224  ARG224     -0.1231
     89  CA        41.0630   40.5130  178.1740 C.3   224  ARG224      0.1694
     90  C         41.2920   39.0380  177.7470 C.2   224  ARG224      0.2591
     91  O         40.3350   38.2590  177.5420 O.2   224  ARG224     -0.2718
     92  CB        40.8190   41.4250  176.9470 C.3   224  ARG224      0.0321
     93  CG        39.8240   40.9660  175.8850 C.3   224  ARG224      0.0489
     94  CD        39.6280   42.0170  174.7790 C.3   224  ARG224      0.2205
     95  NE        40.1260   41.5890  173.4550 N.pl3 224  ARG224     -0.0865
     96  CZ        40.9850   42.2690  172.6890 C.cat 224  ARG224      0.5346
     97  NH1       41.3530   41.7720  171.5080 N.pl3 224  ARG224      0.1354
     98  NH2       41.4820   43.4400  173.0820 N.pl3 224  ARG224      0.1354
     99  N         42.5680   38.6680  177.6330 N.am  225  LYS225     -0.1980
    100  CA        42.9600   37.3840  177.0890 C.3   225  LYS225      0.1596
    101  C         43.5560   36.4440  178.1240 C.2   225  LYS225      0.2287
    102  O         44.0240   35.3730  177.7730 O.2   225  LYS225     -0.2864
    103  CB        43.9850   37.6080  175.9770 C.3   225  LYS225      0.0298
    104  CG        43.4240   38.2800  174.7280 C.3   225  LYS225      0.0038
    105  CD        44.3470   38.0190  173.5490 C.3   225  LYS225      0.0206
    106  CE        43.7700   38.5510  172.2450 C.3   225  LYS225      0.1093
    107  NZ        44.7800   38.4230  171.1730 N.3   225  LYS225     -0.1314
@<TRIPOS>BOND
     1    48    47    2
     2    47    46    1
     3    19    21   ar
     4    19    18   ar
     5    21    22   ar
     6    45    46    1
     7    18    17    1
     8    18    20   ar
     9    22    24   ar
    10    22    20   ar
    11    17    14    1
    12    24    26   ar
    13    46    49    1
    14    20    23   ar
    15    26    25   ar
    16    23    25   ar
    17    49    50    1
    18    14    13    1
    19    14    15    1
    20    50    51    1
    21    15    27   am
    22    15    16    2
    23    27    28    1
    24    51    52    1
    25    52    53    1
    26    30    29    2
    27    28    29    1
    28    29    31   am
    29    31    32    1
    30    34    33    2
    31    32    33    1
    32    32    35    1
    33    37    35    1
    34    33    38   am
    35    41    40    2
    36    35    36    1
    37    40    39    1
    38    38    39    1
    39    39    42    1
    40    86    85    2
    41    42    44    1
    42    42    43    1
    43    85    84    1
    44    54    55    1
    45    60    58    1
    46    57    56    2
    47    58    55    1
    48    58    59    1
    49    84    87    1
    50    84    83    1
    51    55    56    1
    52    61    62    1
    53    62    63    1
    54    12    11    1
    55    82    80    1
    56   107   106    1
    57    10    11   ar
    58    10     8   ar
    59    97    96    1
    60    68    67    2
    61    63    65   am
    62    63    64    2
    63    11     9   ar
    64    65    66    1
    65    75    74    2
    66     8     6   ar
    67   106   105    1
    68    80    81    1
    69    80    79    2
    70    96    98    1
    71    96    95    2
    72    67    66    1
    73    74    73    1
    74    79    78    1
    75    66    69    1
    76     9     7   ar
    77    70    69    1
    78    95    94    1
    79     4     3    2
    80   105   104    1
    81     6     7   ar
    82     6     5    1
    83    72    73    1
    84     3     2    1
    85    69    71    1
    86    76    73    1
    87    76    77    1
    88    78    77    1
    89     5     2    1
    90   104   103    1
    91    94    93    1
    92     2     1    1
    93    93    92    1
    94   103   100    1
    95    92    89    1
    96   100    99    1
    97   100   101    1
    98    91    90    2
    99    99    90   am
   100    90    89    1
   101   102   101    2
   102    89    88    1
