@<TRIPOS>MOLECULE
tmp/4oqrA01.pdb
 157 147 0 0 0
SMALL
GASTEIGER

@<TRIPOS>ATOM
      1  N         -2.8650   -6.3760   -6.0730 N.3    65  VAL65      -0.1231
      2  CA        -1.8970   -6.9260   -7.0130 C.3    65  VAL65       0.1692
      3  C         -0.4970   -6.3880   -6.7320 C.2    65  VAL65       0.2592
      4  O          0.5300   -7.0810   -6.9170 O.2    65  VAL65      -0.2718
      5  CB        -2.3090   -6.5900   -8.4630 C.3    65  VAL65       0.0266
      6  CG1       -1.2620   -7.0170   -9.4460 C.3    65  VAL65       0.0020
      7  CG2       -3.6660   -7.2290   -8.7400 C.3    65  VAL65       0.0020
      8  N         -0.4680   -5.1300   -6.3110 N.am   66  PHE66      -0.1976
      9  CA         0.7470   -4.4360   -5.9500 C.3    66  PHE66       0.1639
     10  C          0.5170   -3.8650   -4.5650 C.2    66  PHE66       0.2290
     11  O         -0.4850   -3.1790   -4.3530 O.2    66  PHE66      -0.2864
     12  CB         1.0000   -3.3010   -6.9460 C.3    66  PHE66       0.0560
     13  CG         1.3770   -3.8010   -8.3260 C.ar   66  PHE66      -0.0200
     14  CD1        2.6420   -4.3050   -8.5480 C.ar   66  PHE66      -0.0042
     15  CD2        0.4660   -3.7630   -9.3660 C.ar   66  PHE66      -0.0042
     16  CE1        3.0230   -4.7610   -9.7870 C.ar   66  PHE66      -0.0003
     17  CE2        0.8030   -4.2750  -10.6150 C.ar   66  PHE66      -0.0003
     18  CZ         2.0940   -4.7600  -10.8260 C.ar   66  PHE66      -0.0000
     19  N          1.6990   -1.3740   -2.8050 N.3    68  VAL68      -0.1245
     20  CA         1.5760    0.0690   -2.7050 C.3    68  VAL68       0.1561
     21  C          0.2850    0.5750   -3.3740 C.2    68  VAL68       0.2260
     22  O          0.1400    0.4550   -4.6190 O.2    68  VAL68      -0.2867
     23  CB         2.8240    0.7890   -3.2900 C.3    68  VAL68       0.0252
     24  CG1        2.5300    2.2760   -3.4420 C.3    68  VAL68       0.0019
     25  CG2        4.0460    0.5350   -2.3730 C.3    68  VAL68       0.0019
     26  N         -2.2660    3.7790   -4.1460 N.3    70  PRO70      -0.2116
     27  CA        -2.3850    5.2010   -4.3270 C.3    70  PRO70       0.1372
     28  C         -3.8050    5.6110   -4.1180 C.2    70  PRO70       0.2244
     29  O         -4.5640    5.6390   -5.0780 O.2    70  PRO70      -0.2868
     30  CB        -1.9730    5.4110   -5.8180 C.3    70  PRO70       0.0268
     31  CG        -1.4120    4.1430   -6.2800 C.3    70  PRO70       0.0207
     32  CD        -2.1930    3.1230   -5.4600 C.3    70  PRO70       0.0892
     33  N        -14.0440    9.1050   -4.4430 N.3    78  TRP78      -0.1241
     34  CA       -12.9380    8.2750   -4.9520 C.3    78  TRP78       0.1605
     35  C        -13.6060    7.0220   -5.6040 C.2    78  TRP78       0.2264
     36  O        -13.6170    5.9320   -5.0530 O.2    78  TRP78      -0.2867
     37  CB       -11.8940    7.9120   -3.8900 C.3    78  TRP78       0.0550
     38  CG       -10.6480    7.4150   -4.4690 C.ar   78  TRP78       0.0003
     39  CD1      -10.3680    6.1120   -4.8210 C.ar   78  TRP78       0.0946
     40  CD2       -9.4940    8.1780   -4.8350 C.ar   78  TRP78       0.0152
     41  NE1       -9.1050    6.0330   -5.3720 N.ar   78  TRP78      -0.2442
     42  CE2       -8.5580    7.2830   -5.3930 C.ar   78  TRP78       0.0810
     43  CE3       -9.1680    9.5380   -4.7620 C.ar   78  TRP78       0.0012
     44  CZ2       -7.2980    7.6890   -5.8490 C.ar   78  TRP78       0.0191
     45  CZ3       -7.9150    9.9340   -5.2230 C.ar   78  TRP78       0.0001
     46  CH2       -7.0100    9.0120   -5.7750 C.ar   78  TRP78       0.0015
     47  N        -13.3980    5.2360   -8.3410 N.3    80  THR80      -0.1218
     48  CA       -12.7590    4.1280   -8.9620 C.3    80  THR80       0.1862
     49  C        -12.8660    2.8410   -8.1830 C.2    80  THR80       0.2287
     50  O        -12.9140    1.7900   -8.8050 O.2    80  THR80      -0.2866
     51  CB       -11.3050    4.3910   -9.2350 C.3    80  THR80       0.1770
     52  OG1      -10.6710    4.9520   -8.0690 O.3    80  THR80      -0.2211
     53  CG2      -11.1730    5.3320  -10.3910 C.3    80  THR80       0.0375
     54  N          1.9060    8.4050   -9.1000 N.3   164  MET164     -0.1230
     55  CA         0.6180    7.8360   -8.7610 C.3   164  MET164      0.1702
     56  C          0.4110    6.4870   -9.4790 C.2   164  MET164      0.2592
     57  O         -0.0980    5.5700   -8.8790 O.2   164  MET164     -0.2718
     58  CB        -0.5200    8.8240   -9.0880 C.3   164  MET164      0.0401
     59  CG        -0.6590   10.0170   -8.0690 C.3   164  MET164      0.0596
     60  SD        -0.9320    9.4530   -6.3730 S.3   164  MET164     -0.1393
     61  CE        -2.5610    8.7310   -6.5190 C.3   164  MET164      0.0692
     62  N          0.8240    6.3780  -10.7450 N.am  165  VAL165     -0.1966
     63  CA         0.5440    5.2080  -11.5810 C.3   165  VAL165      0.1727
     64  C          1.7470    4.2360  -11.6200 C.2   165  VAL165      0.2617
     65  O          1.6830    3.2510  -12.3080 O.2   165  VAL165     -0.2715
     66  CB         0.0810    5.5840  -13.0270 C.3   165  VAL165      0.0290
     67  CG1       -1.1910    6.4860  -12.8970 C.3   165  VAL165      0.0023
     68  CG2        1.2410    6.2620  -13.8360 C.3   165  VAL165      0.0023
     69  N          2.7970    4.5310  -10.8900 N.am  166  SER166     -0.1936
     70  CA         3.9340    3.6470  -10.8240 C.3   166  SER166      0.2055
     71  C          3.6080    2.3420  -10.0870 C.2   166  SER166      0.2642
     72  O          2.6560    2.2780   -9.2940 O.2   166  SER166     -0.2714
     73  CB         5.1000    4.3080  -10.1210 C.3   166  SER166      0.2130
     74  OG         6.2690    3.5070  -10.2850 O.3   166  SER166     -0.2179
     75  N          4.3970    1.2940  -10.3580 N.am  167  VAL167     -0.1977
     76  CA         4.3580    0.1130   -9.5090 C.3   167  VAL167      0.1596
     77  C          5.7490   -0.1470   -8.8810 C.2   167  VAL167      0.2287
     78  O          5.9990   -1.2040   -8.3280 O.2   167  VAL167     -0.2864
     79  CB         3.7640   -1.1140  -10.2320 C.3   167  VAL167      0.0276
     80  CG1        2.4200   -0.8110  -10.8100 C.3   167  VAL167      0.0022
     81  CG2        4.7390   -1.6760  -11.3900 C.3   167  VAL167      0.0022
     82  N         -8.5960   12.0910   -9.7990 N.3   221  ILE221     -0.1245
     83  CA        -8.6830   10.9200  -10.6240 C.3   221  ILE221      0.1561
     84  C         -8.6060   11.2610  -12.1120 C.2   221  ILE221      0.2260
     85  O         -7.8610   10.6050  -12.8970 O.2   221  ILE221     -0.2867
     86  CB        -9.9700   10.1270  -10.2900 C.3   221  ILE221      0.0252
     87  CG1       -9.8520    9.4320   -8.9040 C.3   221  ILE221      0.0019
     88  CG2      -10.2760    9.1070  -11.4300 C.3   221  ILE221      0.0019
     89  CD1      -11.2090    8.9900   -8.3000 C.3   221  ILE221      0.0001
     90  N         -5.0430   12.5980  -13.2300 N.3   224  VAL224     -0.1231
     91  CA        -4.0760   11.4320  -13.3350 C.3   224  VAL224      0.1692
     92  C         -4.3460   10.6300  -14.6180 C.2   224  VAL224      0.2591
     93  O         -3.4490   10.3840  -15.4360 O.2   224  VAL224     -0.2718
     94  CB        -4.1400   10.5460  -12.1210 C.3   224  VAL224      0.0266
     95  CG1       -3.3320    9.2860  -12.3310 C.3   224  VAL224      0.0020
     96  CG2       -3.7200   11.2830  -10.7920 C.3   224  VAL224      0.0020
     97  N         -5.5960   10.2540  -14.8250 N.am  225  ALA225     -0.1980
     98  CA        -5.9060    9.4410  -16.0090 C.3   225  ALA225      0.1597
     99  C         -5.6290   10.1550  -17.3060 C.2   225  ALA225      0.2287
    100  O         -4.9750    9.5450  -18.2190 O.2   225  ALA225     -0.2864
    101  CB        -7.3850    8.8490  -15.8680 C.3   225  ALA225      0.0319
    102  N         -1.7330   10.0470  -17.9960 N.3   228  GLU228     -0.1231
    103  CA        -1.0170    8.7730  -17.9880 C.3   228  GLU228      0.1699
    104  C         -1.5600    7.6930  -18.9590 C.2   228  GLU228      0.2592
    105  O         -1.1380    6.5280  -18.8990 O.2   228  GLU228     -0.2718
    106  CB        -0.9670    8.2230  -16.5740 C.3   228  GLU228      0.0402
    107  CG        -0.1580    9.1390  -15.5770 C.3   228  GLU228      0.1161
    108  CD         1.2880    9.3100  -15.9860 C.2   228  GLU228      0.3649
    109  OE1        1.8320    8.4220  -16.6550 O.co2 228  GLU228     -0.2457
    110  OE2        1.8680   10.3590  -15.6560 O.co2 228  GLU228     -0.2457
    111  N         -2.4430    8.0810  -19.8580 N.am  229  THR229     -0.1953
    112  CA        -3.0750    7.1570  -20.7610 C.3   229  THR229      0.1897
    113  C         -2.7420    7.4970  -22.1970 C.2   229  THR229      0.2313
    114  O         -1.9810    6.8120  -22.8640 O.2   229  THR229     -0.2863
    115  CB        -4.6300    7.1310  -20.5240 C.3   229  THR229      0.1794
    116  OG1       -5.1400    8.4810  -20.5630 O.3   229  THR229     -0.2208
    117  CG2       -4.9440    6.3910  -19.2220 C.3   229  THR229      0.0378
    118  N         -2.6960   -0.7890  -20.3520 N.3   267  VAL267     -0.1245
    119  CA        -3.0500   -1.1180  -18.9940 C.3   267  VAL267      0.1561
    120  C         -2.7020   -2.5700  -18.8200 C.2   267  VAL267      0.2260
    121  O         -3.4880   -3.4790  -19.0970 O.2   267  VAL267     -0.2867
    122  CB        -4.5030   -0.7420  -18.6690 C.3   267  VAL267      0.0252
    123  CG1       -4.8500   -1.1760  -17.2400 C.3   267  VAL267      0.0019
    124  CG2       -4.6700    0.8000  -18.8420 C.3   267  VAL267      0.0019
    125  N         -0.6250   -4.6260  -16.4900 N.3   269  LEU269     -0.1245
    126  CA        -0.2360   -5.4430  -15.3210 C.3   269  LEU269      0.1561
    127  C         -1.4020   -5.7490  -14.3660 C.2   269  LEU269      0.2260
    128  O         -1.6440   -5.0380  -13.4240 O.2   269  LEU269     -0.2867
    129  CB         0.9030   -4.7510  -14.5430 C.3   269  LEU269      0.0270
    130  CG         2.1850   -4.7180  -15.2950 C.3   269  LEU269      0.0019
    131  CD1        3.2160   -3.8110  -14.5640 C.3   269  LEU269      0.0001
    132  CD2        2.7330   -6.1160  -15.6310 C.3   269  LEU269      0.0001
    133  N         -4.6310   -5.6280  -14.3380 N.3   271  THR271     -0.1218
    134  CA        -5.7690   -4.7150  -14.2230 C.3   271  THR271      0.1862
    135  C         -6.6620   -4.8830  -15.4520 C.2   271  THR271      0.2287
    136  O         -6.1300   -4.9950  -16.5470 O.2   271  THR271     -0.2866
    137  CB        -5.2190   -3.2850  -14.2100 C.3   271  THR271      0.1770
    138  OG1       -4.4450   -3.1320  -13.0310 O.3   271  THR271     -0.2211
    139  CG2       -6.2850   -2.1950  -14.1580 C.3   271  THR271      0.0375
    140  N         -8.6970   -5.7350  -11.8050 N.3   273  ASN273     -0.1240
    141  CA        -8.7480   -6.8650  -10.8670 C.3   273  ASN273      0.1653
    142  C         -9.8810   -6.6600   -9.9220 C.2   273  ASN273      0.2266
    143  O        -10.2490   -5.5080   -9.6260 O.2   273  ASN273     -0.2867
    144  CB        -7.3990   -7.0940  -10.1680 C.3   273  ASN273      0.1155
    145  CG        -6.8710   -5.8350   -9.4390 C.2   273  ASN273      0.2627
    146  OD1       -7.3960   -5.4410   -8.3920 O.2   273  ASN273     -0.2716
    147  ND2       -5.8930   -5.1850  -10.0300 N.am  273  ASN273     -0.0877
    148  N          2.2250    1.0890  -14.1860 N.3   373  ALA373     -0.1231
    149  CA         0.9480    0.4760  -14.4680 C.3   373  ALA373      0.1694
    150  C          0.4400    0.8300  -15.8810 C.2   373  ALA373      0.2591
    151  O         -0.4150    0.1020  -16.4370 O.2   373  ALA373     -0.2718
    152  CB        -0.0550    0.8430  -13.4340 C.3   373  ALA373      0.0304
    153  N          0.8740    1.9540  -16.4390 N.am  374  ALA374     -0.1980
    154  CA         0.5480    2.2880  -17.8030 C.3   374  ALA374      0.1597
    155  C          1.8220    2.1130  -18.5820 C.2   374  ALA374      0.2287
    156  O          2.7900    2.9480  -18.4550 O.2   374  ALA374     -0.2864
    157  CB         0.0710    3.7970  -17.9050 C.3   374  ALA374      0.0319
@<TRIPOS>BOND
     1   114   113    2
     2   113   112    1
     3   112   115    1
     4   112   111    1
     5   116   115    1
     6   115   117    1
     7   118   119    1
     8   111   104   am
     9   121   120    2
    10   119   120    1
    11   119   122    1
    12   104   105    2
    13   104   103    1
    14   124   122    1
    15   122   123    1
    16   155   156    2
    17   155   154    1
    18   100    99    2
    19   102   103    1
    20   103   106    1
    21   157   154    1
    22   154   153    1
    23    99    98    1
    24   109   108   ar
    25   106   107    1
    26   136   135    2
    27   125   126    1
    28   153   150   am
    29   151   150    2
    30    98   101    1
    31    98    97    1
    32   108   110   ar
    33   108   107    1
    34   150   149    1
    35   132   130    1
    36   135   134    1
    37    93    92    2
    38   126   129    1
    39   126   127    1
    40   130   131    1
    41   130   129    1
    42    97    92   am
    43    92    91    1
    44   149   148    1
    45   149   152    1
    46   127   128    2
    47   133   134    1
    48   134   137    1
    49   137   139    1
    50   137   138    1
    51    68    66    1
    52    91    90    1
    53    91    94    1
    54    66    67    1
    55    66    63    1
    56    85    84    2
    57    95    94    1
    58    65    64    2
    59    94    96    1
    60    84    83    1
    61   140   141    1
    62    64    63    1
    63    64    69   am
    64    63    62    1
    65    88    86    1
    66    81    79    1
    67    69    70    1
    68   141   144    1
    69   141   142    1
    70    18    17   ar
    71    18    16   ar
    72    70    73    1
    73    70    71    1
    74    80    79    1
    75    62    56   am
    76    83    86    1
    77    83    82    1
    78    17    15   ar
    79    53    51    1
    80    75    71   am
    81    75    76    1
    82    86    87    1
    83    74    73    1
    84    79    76    1
    85   144   145    1
    86    71    72    2
    87   147   145   am
    88   142   143    2
    89    16    14   ar
    90    76    77    1
    91    56    57    2
    92    56    55    1
    93     6     5    1
    94   145   146    2
    95    15    13   ar
    96    51    48    1
    97    51    52    1
    98    54    55    1
    99    58    55    1
   100    58    59    1
   101    48    47    1
   102    48    49    1
   103    87    89    1
   104    77    78    2
   105    50    49    2
   106     7     5    1
   107    14    13   ar
   108     5     2    1
   109    13    12    1
   110    59    60    1
   111     2     3    1
   112     2     1    1
   113    12     9    1
   114     4     3    2
   115     3     8   am
   116    61    60    1
   117     8     9    1
   118    31    30    1
   119    31    32    1
   120     9    10    1
   121    44    46   ar
   122    44    42   ar
   123    30    27    1
   124    46    45   ar
   125    35    36    2
   126    35    34    1
   127    32    26    1
   128    42    41   ar
   129    42    40   ar
   130    41    39   ar
   131    45    43   ar
   132    29    28    2
   133    34    33    1
   134    34    37    1
   135    40    43   ar
   136    40    38   ar
   137    39    38   ar
   138    22    21    2
   139    10    11    2
   140    38    37    1
   141    27    26    1
   142    27    28    1
   143    24    23    1
   144    21    20    1
   145    23    20    1
   146    23    25    1
   147    19    20    1
