@<TRIPOS>MOLECULE
tmp/4oqvA02.pdb
 205 196 0 0 0
SMALL
GASTEIGER

@<TRIPOS>ATOM
      1  N          5.9450  -24.3500   -7.5390 N.3     5  TYR5       -0.1241
      2  CA         5.6890  -25.7250   -7.0940 C.3     5  TYR5        0.1605
      3  C          4.4330  -26.2380   -7.6940 C.2     5  TYR5        0.2264
      4  O          4.3800  -27.3210   -8.1420 O.2     5  TYR5       -0.2867
      5  CB         5.5860  -25.8060   -5.5720 C.3     5  TYR5        0.0534
      6  CG         6.8570  -26.0100   -4.8280 C.ar    5  TYR5       -0.0201
      7  CD1        7.3180  -27.2660   -4.5930 C.ar    5  TYR5       -0.0009
      8  CD2        7.5770  -24.9620   -4.2980 C.ar    5  TYR5       -0.0009
      9  CE1        8.4460  -27.4910   -3.8920 C.ar    5  TYR5        0.0417
     10  CE2        8.7040  -25.1830   -3.5830 C.ar    5  TYR5        0.0417
     11  CZ         9.1370  -26.4480   -3.4000 C.ar    5  TYR5        0.1957
     12  OH        10.2460  -26.7140   -2.6730 O.3     5  TYR5       -0.2866
     13  N          7.1560  -27.5980  -10.5040 N.3     9  LEU9       -0.1231
     14  CA         7.8760  -28.7450   -9.8810 C.3     9  LEU9        0.1693
     15  C          6.9940  -29.9860   -9.6480 C.2     9  LEU9        0.2591
     16  O          7.3520  -31.1350   -9.9940 O.2     9  LEU9       -0.2718
     17  CB         8.5740  -28.3740   -8.5340 C.3     9  LEU9        0.0284
     18  CG         9.6590  -29.3710   -7.9620 C.3     9  LEU9        0.0019
     19  CD1        9.2330  -30.4630   -6.9960 C.3     9  LEU9        0.0001
     20  CD2       10.4510  -30.0360   -9.0960 C.3     9  LEU9        0.0001
     21  N          5.8600  -29.7580   -8.9830 N.am   10  MET10      -0.1979
     22  CA         5.0380  -30.9000   -8.5940 C.3    10  MET10       0.1605
     23  C          4.4890  -31.6280   -9.8670 C.2    10  MET10       0.2287
     24  O          4.5500  -32.8280   -9.9080 O.2    10  MET10      -0.2864
     25  CB         3.9640  -30.5550   -7.5540 C.3    10  MET10       0.0413
     26  CG         4.4690  -29.8690   -6.2800 C.3    10  MET10       0.0598
     27  SD         5.7690  -30.8290   -5.4320 S.3    10  MET10      -0.1393
     28  CE         4.7850  -32.0950   -4.7060 C.3    10  MET10       0.0692
     29  N          7.4940  -33.7190  -11.2000 N.3    13  LEU13      -0.1231
     30  CA         7.6330  -34.9600  -10.4360 C.3    13  LEU13       0.1693
     31  C          6.5190  -35.9180  -10.7190 C.2    13  LEU13       0.2591
     32  O          6.7660  -37.1020  -10.7790 O.2    13  LEU13      -0.2718
     33  CB         7.6460  -34.7030   -8.9380 C.3    13  LEU13       0.0284
     34  CG         8.8410  -33.9620   -8.4140 C.3    13  LEU13       0.0019
     35  CD1        8.5570  -33.7500   -6.9180 C.3    13  LEU13       0.0001
     36  CD2       10.1180  -34.7630   -8.7240 C.3    13  LEU13       0.0001
     37  N          5.2700  -35.4450  -10.8300 N.am   14  GLN14      -0.1979
     38  CA         4.1280  -36.3040  -11.1350 C.3    14  GLN14       0.1601
     39  C          4.3350  -37.1030  -12.4200 C.2    14  GLN14       0.2287
     40  O          3.9600  -38.2640  -12.5630 O.2    14  GLN14      -0.2864
     41  CB         2.9380  -35.4060  -11.3050 C.3    14  GLN14       0.0394
     42  CG         1.7470  -35.7270  -10.5850 C.3    14  GLN14       0.0908
     43  CD         0.6350  -34.8190  -10.8530 C.2    14  GLN14       0.2608
     44  OE1        0.3490  -34.4900  -12.0210 O.2    14  GLN14      -0.2717
     45  NE2       -0.0960  -34.4940   -9.8140 N.am   14  GLN14      -0.0878
     46  N          3.8380  -42.4540   -7.4180 N.3    19  PRO19      -0.2102
     47  CA         3.6110  -41.7330   -6.1960 C.3    19  PRO19       0.1504
     48  C          4.4490  -42.1710   -4.9990 C.2    19  PRO19       0.2575
     49  O          4.9440  -41.3380   -4.2860 O.2    19  PRO19      -0.2718
     50  CB         2.1100  -41.8770   -5.9460 C.3    19  PRO19       0.0282
     51  CG         1.6230  -42.7020   -6.9070 C.3    19  PRO19       0.0208
     52  CD         2.5530  -42.8180   -8.0530 C.3    19  PRO19       0.0893
     53  N          4.6220  -43.4780   -4.8450 N.am   20  GLU20      -0.1980
     54  CA         5.4030  -43.9090   -3.6820 C.3    20  GLU20       0.1602
     55  C          6.8560  -43.4720   -3.7960 C.2    20  GLU20       0.2287
     56  O          7.4710  -43.0170   -2.8120 O.2    20  GLU20      -0.2864
     57  CB         5.2750  -45.4270   -3.4530 C.3    20  GLU20       0.0415
     58  CG         6.1050  -45.8740   -2.2810 C.3    20  GLU20       0.1163
     59  CD         5.7780  -47.1910   -1.6830 C.2    20  GLU20       0.3649
     60  OE1        6.4590  -47.5700   -0.6930 O.co2  20  GLU20      -0.2457
     61  OE2        4.8710  -47.9080   -2.1610 O.co2  20  GLU20      -0.2457
     62  N          7.9430  -40.8440   -5.3560 N.3    22  ALA22      -0.1231
     63  CA         7.9180  -39.4090   -5.1510 C.3    22  ALA22       0.1694
     64  C          7.8460  -39.1340   -3.6400 C.2    22  ALA22       0.2592
     65  O          8.5040  -38.2040   -3.1550 O.2    22  ALA22      -0.2718
     66  CB         6.7750  -38.7130   -5.8940 C.3    22  ALA22       0.0304
     67  N          7.0590  -39.9220   -2.9270 N.am   23  HIS23      -0.1976
     68  CA         6.9610  -39.7650   -1.4670 C.3    23  HIS23       0.1656
     69  C          8.2990  -40.0500   -0.7950 C.2    23  HIS23       0.2291
     70  O          8.7350  -39.2910    0.0750 O.2    23  HIS23      -0.2864
     71  CB         5.8850  -40.6960   -0.9260 C.3    23  HIS23       0.0771
     72  CG         5.8950  -40.6930    0.6150 C.ar   23  HIS23       0.0820
     73  ND1        5.7240  -39.5620    1.3110 N.ar   23  HIS23      -0.2267
     74  CD2        6.2790  -41.6780    1.5060 C.ar   23  HIS23       0.1154
     75  CE1        5.8870  -39.8330    2.6050 C.ar   23  HIS23       0.1986
     76  NE2        6.2100  -41.1050    2.7230 N.ar   23  HIS23      -0.2212
     77  N         11.2160  -39.7300   -2.0320 N.3    25  LEU25      -0.1231
     78  CA        12.0820  -38.5800   -2.3500 C.3    25  LEU25       0.1693
     79  C         11.7520  -37.4230   -1.3770 C.2    25  LEU25       0.2591
     80  O         12.6690  -36.7750   -0.9060 O.2    25  LEU25      -0.2718
     81  CB        11.8760  -38.1360   -3.8180 C.3    25  LEU25       0.0284
     82  CG        12.7180  -36.9960   -4.3390 C.3    25  LEU25       0.0019
     83  CD1       14.1850  -37.4560   -4.2990 C.3    25  LEU25       0.0001
     84  CD2       12.2200  -36.6630   -5.7570 C.3    25  LEU25       0.0001
     85  N         10.4760  -37.1670   -1.1970 N.am   26  ALA26      -0.1980
     86  CA        10.0590  -36.1070   -0.2910 C.3    26  ALA26       0.1597
     87  C         10.6110  -36.3670    1.1200 C.2    26  ALA26       0.2287
     88  O         11.0730  -35.4290    1.7620 O.2    26  ALA26      -0.2864
     89  CB         8.5170  -35.9840   -0.2250 C.3    26  ALA26       0.0319
     90  N         14.3640  -35.5920    1.0840 N.3    29  PHE29      -0.1227
     91  CA        14.6900  -34.1490    0.9910 C.3    29  PHE29       0.1736
     92  C         14.3020  -33.4170    2.2950 C.2    29  PHE29       0.2596
     93  O         15.0000  -32.5010    2.7470 O.2    29  PHE29      -0.2718
     94  CB        13.8980  -33.5140   -0.1560 C.3    29  PHE29       0.0547
     95  CG        14.6360  -33.4290   -1.3820 C.ar   29  PHE29      -0.0202
     96  CD1       15.0350  -34.5560   -2.0620 C.ar   29  PHE29      -0.0042
     97  CD2       14.9980  -32.2050   -1.8980 C.ar   29  PHE29      -0.0042
     98  CE1       15.6960  -34.5240   -3.2760 C.ar   29  PHE29      -0.0003
     99  CE2       15.6710  -32.1380   -3.0960 C.ar   29  PHE29      -0.0003
    100  CZ        16.0540  -33.3020   -3.8000 C.ar   29  PHE29      -0.0000
    101  N         13.1740  -33.8030    2.8720 N.am   30  THR30      -0.1953
    102  CA        12.6940  -33.1380    4.0980 C.3    30  THR30       0.1897
    103  C         13.6400  -33.4450    5.2180 C.2    30  THR30       0.2313
    104  O         14.0750  -32.5380    5.9520 O.2    30  THR30      -0.2863
    105  CB        11.2400  -33.6030    4.4640 C.3    30  THR30       0.1794
    106  OG1       10.3970  -33.2410    3.3400 O.3    30  THR30      -0.2208
    107  CG2       10.6910  -32.9210    5.6860 C.3    30  THR30       0.0378
    108  N         15.1120  -28.5100    1.8050 N.3    35  LEU35      -0.1245
    109  CA        14.1090  -27.6140    1.4660 C.3    35  LEU35       0.1561
    110  C         14.3380  -26.3320    2.2310 C.2    35  LEU35       0.2260
    111  O         14.6170  -26.3540    3.4580 O.2    35  LEU35      -0.2867
    112  CB        12.7530  -28.2180    1.7680 C.3    35  LEU35       0.0270
    113  CG        12.4150  -29.6140    1.1370 C.3    35  LEU35       0.0019
    114  CD1       11.1000  -30.1240    1.7110 C.3    35  LEU35       0.0001
    115  CD2       12.3480  -29.5920   -0.3850 C.3    35  LEU35       0.0001
    116  N          2.6220  -39.4930    6.2110 N.3    65  PHE65      -0.1241
    117  CA         3.7300  -38.8920    5.5190 C.3    65  PHE65       0.1605
    118  C          5.0510  -39.3590    6.0970 C.2    65  PHE65       0.2264
    119  O          5.9670  -39.7680    5.3880 O.2    65  PHE65      -0.2867
    120  CB         3.6270  -37.3450    5.5260 C.3    65  PHE65       0.0534
    121  CG         4.8540  -36.7270    4.8340 C.ar   65  PHE65      -0.0203
    122  CD1        4.9430  -36.5790    3.4790 C.ar   65  PHE65      -0.0042
    123  CD2        5.9760  -36.3910    5.5420 C.ar   65  PHE65      -0.0042
    124  CE1        6.1210  -36.0420    2.8600 C.ar   65  PHE65      -0.0003
    125  CE2        7.1430  -35.9350    4.9570 C.ar   65  PHE65      -0.0003
    126  CZ         7.1800  -35.8020    3.6350 C.ar   65  PHE65      -0.0000
    127  N          9.2370  -26.9070    7.6940 N.3    78  MET78      -0.1245
    128  CA         8.2620  -26.6150    6.6430 C.3    78  MET78       0.1570
    129  C          7.1250  -25.7620    7.1080 C.2    78  MET78       0.2261
    130  O          6.3280  -25.2750    6.3190 O.2    78  MET78      -0.2867
    131  CB         7.7020  -27.9440    6.0720 C.3    78  MET78       0.0387
    132  CG         7.2540  -27.9520    4.7070 C.3    78  MET78       0.0595
    133  SD         6.8400  -29.6390    4.1690 S.3    78  MET78      -0.1393
    134  CE         8.2850  -30.5730    4.0080 C.3    78  MET78       0.0692
    135  N         -0.0840  -47.2860   -3.9950 N.3   101  VAL101     -0.1301
    136  CA        -0.4440  -45.7340   -3.9200 C.3   101  VAL101      0.1246
    137  C         -0.7350  -45.1180   -5.3800 C.3   101  VAL101      0.2009
    138  O          0.0070  -45.5850   -6.2070 O.3   101  VAL101     -0.2188
    139  CB         0.6390  -44.8390   -3.2430 C.3   101  VAL101      0.0202
    140  CG1        0.0350  -43.4030   -3.0120 C.3   101  VAL101      0.0016
    141  CG2        1.1840  -45.4990   -1.9430 C.3   101  VAL101      0.0016
    142  N         -2.3400  -41.8930   -7.7730 N.3   103  ARG103     -0.1245
    143  CA        -2.7840  -40.5190   -7.9140 C.3   103  ARG103      0.1563
    144  C         -4.0400  -40.4220   -8.7890 C.2   103  ARG103      0.2260
    145  O         -4.1670  -41.1060   -9.7660 O.2   103  ARG103     -0.2867
    146  CB        -1.7340  -39.6680   -8.5480 C.3   103  ARG103      0.0307
    147  CG        -0.4540  -39.4630   -7.7950 C.3   103  ARG103      0.0489
    148  CD         0.3510  -38.4400   -8.5850 C.3   103  ARG103      0.2205
    149  NE         1.7160  -38.4610   -8.2910 N.pl3 103  ARG103     -0.0865
    150  CZ         2.6500  -39.0610   -8.9740 C.cat 103  ARG103      0.5346
    151  NH1        2.4180  -39.7180  -10.0760 N.pl3 103  ARG103      0.1354
    152  NH2        3.8170  -39.0030   -8.5210 N.pl3 103  ARG103      0.1354
    153  N         -5.8400  -38.9830   -3.8320 N.3   110  VAL110     -0.1245
    154  CA        -4.9780  -40.1430   -3.8140 C.3   110  VAL110      0.1561
    155  C         -5.7710  -41.3180   -3.2940 C.2   110  VAL110      0.2260
    156  O         -6.6850  -41.1330   -2.4770 O.2   110  VAL110     -0.2867
    157  CB        -3.7070  -39.8720   -2.9730 C.3   110  VAL110      0.0252
    158  CG1       -2.8870  -41.1340   -2.6560 C.3   110  VAL110      0.0019
    159  CG2       -2.8290  -38.8410   -3.6580 C.3   110  VAL110      0.0019
    160  N         -1.3080  -48.9040    1.4930 N.3   114  TYR114     -0.1241
    161  CA        -0.0380  -49.3070    2.0120 C.3   114  TYR114      0.1605
    162  C         -0.0410  -50.5680    2.8190 C.2   114  TYR114      0.2264
    163  O          0.8750  -51.3510    2.7350 O.2   114  TYR114     -0.2867
    164  CB         0.5210  -48.2520    2.8790 C.3   114  TYR114      0.0534
    165  CG         1.3670  -47.2220    2.2140 C.ar  114  TYR114     -0.0201
    166  CD1        2.6410  -47.5100    1.8310 C.ar  114  TYR114     -0.0009
    167  CD2        0.9540  -45.8960    2.1000 C.ar  114  TYR114     -0.0009
    168  CE1        3.5070  -46.5380    1.3430 C.ar  114  TYR114      0.0417
    169  CE2        1.7750  -44.9660    1.5890 C.ar  114  TYR114      0.0417
    170  CZ         3.0920  -45.2290    1.2670 C.ar  114  TYR114      0.1957
    171  OH         3.8850  -44.1800    0.8100 O.3   114  TYR114     -0.2866
    172  N         -2.3170  -33.9330    4.4300 N.3   314  TYR314     -0.1241
    173  CA        -1.2970  -34.7010    3.7870 C.3   314  TYR314      0.1605
    174  C         -1.4150  -34.5340    2.2710 C.2   314  TYR314      0.2264
    175  O         -0.5290  -34.0130    1.6110 O.2   314  TYR314     -0.2867
    176  CB        -1.2920  -36.1570    4.2300 C.3   314  TYR314      0.0534
    177  CG        -0.2170  -37.0430    3.5960 C.ar  314  TYR314     -0.0201
    178  CD1        0.8120  -36.5410    2.7800 C.ar  314  TYR314     -0.0009
    179  CD2       -0.1580  -38.4020    3.8830 C.ar  314  TYR314     -0.0009
    180  CE1        1.7460  -37.2940    2.1930 C.ar  314  TYR314      0.0417
    181  CE2        0.8150  -39.2080    3.2490 C.ar  314  TYR314      0.0417
    182  CZ         1.7040  -38.5930    2.3600 C.ar  314  TYR314      0.1957
    183  OH         2.7360  -39.4030    1.7600 O.3   314  TYR314     -0.2866
    184  N         -0.1540  -31.6010    0.1940 N.3   317  LEU317     -0.1231
    185  CA         1.2810  -31.4390    0.0680 C.3   317  LEU317      0.1693
    186  C          1.7930  -32.1600   -1.1500 C.2   317  LEU317      0.2592
    187  O          2.7740  -31.7270   -1.7500 O.2   317  LEU317     -0.2718
    188  CB         1.9720  -31.9660    1.4140 C.3   317  LEU317      0.0284
    189  CG         3.4660  -31.8710    1.5180 C.3   317  LEU317      0.0019
    190  CD1        3.8310  -30.4560    1.6880 C.3   317  LEU317      0.0001
    191  CD2        3.9360  -32.7220    2.6540 C.3   317  LEU317      0.0001
    192  N          1.1720  -33.2980   -1.4970 N.am  318  THR318     -0.1953
    193  CA         1.6190  -34.0590   -2.6510 C.3   318  THR318      0.1897
    194  C          1.3100  -33.4220   -3.9730 C.2   318  THR318      0.2313
    195  O          1.9720  -33.6900   -4.9890 O.2   318  THR318     -0.2863
    196  CB         1.0120  -35.5330   -2.6040 C.3   318  THR318      0.1794
    197  OG1       -0.3010  -35.4810   -3.1720 O.3   318  THR318     -0.2208
    198  CG2        1.0630  -36.1710   -1.1440 C.3   318  THR318      0.0378
    199  N          5.5690  -27.9980   -0.4230 N.3   322  PRO322     -0.2116
    200  CA         5.6940  -27.2380    0.7960 C.3   322  PRO322      0.1372
    201  C          5.0030  -25.9040    0.9310 C.2   322  PRO322      0.2244
    202  O          4.5380  -25.5960    2.0400 O.2   322  PRO322     -0.2868
    203  CB         7.2050  -27.1350    0.9750 C.3   322  PRO322      0.0268
    204  CG         7.7420  -28.3950    0.3170 C.3   322  PRO322      0.0207
    205  CD         6.8320  -28.5580   -0.8820 C.3   322  PRO322      0.0892
@<TRIPOS>BOND
     1    40    39    2
     2    39    38    1
     3    44    43    2
     4    41    38    1
     5    41    42    1
     6    29    30    1
     7    38    37    1
     8    43    42    1
     9    43    45   am
    10    37    31   am
    11    32    31    2
    12    31    30    1
    13    13    14    1
    14    30    33    1
    15   151   150    1
    16    16    15    2
    17    24    23    2
    18    14    15    1
    19    14    17    1
    20    23    22    1
    21   145   144    2
    22    15    21   am
    23    20    18    1
    24    21    22    1
    25   150   152    1
    26   150   149    2
    27    33    34    1
    28   144   143    1
    29    36    34    1
    30    22    25    1
    31   148   149    1
    32   148   147    1
    33   146   143    1
    34   146   147    1
    35    17    18    1
    36    34    35    1
    37     4     3    2
    38    52    46    1
    39    52    51    1
    40    18    19    1
    41   143   142    1
    42     3     2    1
    43    25    26    1
    44     1     2    1
    45    46    47    1
    46     2     5    1
    47    51    50    1
    48    26    27    1
    49   138   137    1
    50    47    50    1
    51    47    48    1
    52    66    63    1
    53    84    82    1
    54     5     6    1
    55    27    28    1
    56   137   136    1
    57    62    63    1
    58    63    64    1
    59    48    53   am
    60    48    49    2
    61   195   194    2
    62    53    54    1
    63     6     7   ar
    64     6     8   ar
    65     7     9   ar
    66    82    83    1
    67    82    81    1
    68     8    10   ar
    69   135   136    1
    70   194   193    1
    71   136   139    1
    72     9    11   ar
    73   153   154    1
    74    81    78    1
    75   154   155    1
    76   154   157    1
    77   100    98   ar
    78   100    99   ar
    79    55    54    1
    80    55    56    2
    81    54    57    1
    82   159   157    1
    83    64    65    2
    84    64    67   am
    85    10    11   ar
    86    57    58    1
    87    11    12    1
    88   155   156    2
    89    98    96   ar
    90   139   140    1
    91   139   141    1
    92   197   196    1
    93    99    97   ar
    94   157   158    1
    95    67    68    1
    96   193   196    1
    97   193   192    1
    98   196   198    1
    99    78    77    1
   100    78    79    1
   101    58    59    1
   102    61    59   ar
   103    96    95   ar
   104    97    95   ar
   105   187   186    2
   106    59    60   ar
   107   192   186   am
   108    68    71    1
   109    68    69    1
   110    95    94    1
   111    79    85   am
   112    79    80    2
   113    85    86    1
   114   186   185    1
   115    71    72    1
   116   205   199    1
   117   205   204    1
   118    69    70    2
   119   199   200    1
   120   115   113    1
   121    86    89    1
   122    86    87    1
   123    94    91    1
   124   185   184    1
   125   185   188    1
   126   204   203    1
   127    72    73   ar
   128    72    74   ar
   129   200   201    1
   130   200   203    1
   131   171   170    1
   132   201   202    2
   133    91    90    1
   134    91    92    1
   135    87    88    2
   136   113   114    1
   137   113   112    1
   138   170   168   ar
   139   170   169   ar
   140    73    75   ar
   141   168   166   ar
   142   188   189    1
   143   109   112    1
   144   109   108    1
   145   109   110    1
   146   160   161    1
   147    74    76   ar
   148   189   190    1
   149   189   191    1
   150   169   167   ar
   151   175   174    2
   152   183   182    1
   153   166   165   ar
   154   161   162    1
   155   161   164    1
   156   167   165   ar
   157   180   182   ar
   158   180   178   ar
   159   165   164    1
   160   110   111    2
   161   174   173    1
   162    92    93    2
   163    92   101   am
   164   182   181   ar
   165    75    76   ar
   166   163   162    2
   167   178   177   ar
   168   124   122   ar
   169   124   126   ar
   170   101   102    1
   171   181   179   ar
   172   106   105    1
   173   122   121   ar
   174   177   179   ar
   175   177   176    1
   176   126   125   ar
   177   173   176    1
   178   173   172    1
   179   134   133    1
   180   102   105    1
   181   102   103    1
   182   133   132    1
   183   105   107    1
   184   132   131    1
   185   121   120    1
   186   121   123   ar
   187   125   123   ar
   188   103   104    2
   189   119   118    2
   190   117   120    1
   191   117   118    1
   192   117   116    1
   193   131   128    1
   194   130   129    2
   195   128   129    1
   196   128   127    1
