@<TRIPOS>MOLECULE
tmp/4oqyA00.pdb
 188 182 0 0 0
SMALL
GASTEIGER

@<TRIPOS>ATOM
      1  N          5.5540   60.1120    2.5530 N.3     8  GLY8       -0.1210
      2  CA         6.2040   59.7800    3.8240 C.3     8  GLY8        0.1956
      3  C          5.3750   58.8110    4.6300 C.2     8  GLY8        0.2612
      4  O          4.3030   59.1560    5.1260 O.2     8  GLY8       -0.2717
      5  N          5.8430   57.5770    4.6840 N.am    9  LEU9       -0.1965
      6  CA         5.1520   56.4700    5.2910 C.3     9  LEU9        0.1728
      7  C          5.9370   55.8440    6.4340 C.2     9  LEU9        0.2617
      8  O          5.9350   54.6270    6.5960 O.2     9  LEU9       -0.2715
      9  CB         4.8550   55.4130    4.2280 C.3     9  LEU9        0.0311
     10  CG         4.0700   55.9120    3.0180 C.3     9  LEU9        0.0022
     11  CD1        3.9260   54.8010    1.9990 C.3     9  LEU9        0.0001
     12  CD2        2.7220   56.4820    3.4350 C.3     9  LEU9        0.0001
     13  N          6.6210   56.6710    7.2220 N.am   10  GLY10      -0.1941
     14  CA         6.9970   56.2800    8.5650 C.3    10  GLY10       0.1998
     15  C          5.7540   56.0930    9.4470 C.2    10  GLY10       0.2481
     16  O          4.6200   56.1370    8.9610 O.2    10  GLY10      -0.2729
     17  N          5.9720   55.8760   10.7490 N.am   11  PRO11      -0.2715
     18  CA         4.8660   55.5700   11.6230 C.3    11  PRO11       0.1536
     19  C          3.7520   56.6380   11.5940 C.2    11  PRO11       0.2598
     20  O          2.5880   56.2810   11.5770 O.2    11  PRO11      -0.2715
     21  CB         5.5280   55.4390   12.9910 C.3    11  PRO11       0.0310
     22  CG         6.9200   54.9510   12.6860 C.3    11  PRO11       0.0237
     23  CD         7.2820   55.5280   11.3460 C.3    11  PRO11       0.0939
     24  N          4.1130   57.9170   11.5300 N.am   12  MET12      -0.1964
     25  CA         3.1290   58.9860   11.4260 C.3    12  MET12       0.1736
     26  C          2.3020   58.9410   10.1100 C.2    12  MET12       0.2617
     27  O          1.0380   58.9790   10.1290 O.2    12  MET12      -0.2715
     28  CB         3.8290   60.3290   11.5710 C.3    12  MET12       0.0427
     29  CG         2.8710   61.4920   11.6970 C.3    12  MET12       0.0599
     30  SD         1.8820   61.5310   13.2180 S.3    12  MET12      -0.1393
     31  CE         3.0570   61.2610   14.5290 C.3    12  MET12       0.0692
     32  N          3.0140   58.8680    8.9830 N.am   13  GLY13      -0.1955
     33  CA         2.4160   58.7080    7.6590 C.3    13  GLY13       0.1869
     34  C          1.4500   57.5330    7.5650 C.2    13  GLY13       0.2309
     35  O          0.3290   57.6920    7.0800 O.2    13  GLY13      -0.2863
     36  N          6.5620   56.8260   -1.0380 N.3    31  ASN31      -0.1225
     37  CA         7.6200   56.7660   -0.0450 C.3    31  ASN31       0.1785
     38  C          8.9740   56.3930   -0.6880 C.2    31  ASN31       0.2597
     39  O          9.0410   55.6680   -1.6810 O.2    31  ASN31      -0.2718
     40  CB         7.2530   55.7770    1.0530 C.3    31  ASN31       0.1169
     41  CG         8.0780   55.9690    2.3260 C.2    31  ASN31       0.2627
     42  OD1        8.1080   57.0550    2.9180 O.2    31  ASN31      -0.2716
     43  ND2        8.7690   54.9150    2.7490 N.am   31  ASN31      -0.0877
     44  N         10.0490   56.9110   -0.1240 N.am   32  ARG32      -0.1966
     45  CA        11.3940   56.5750   -0.6180 C.3    32  ARG32       0.1729
     46  C         11.5960   55.0610   -0.6110 C.2    32  ARG32       0.2616
     47  O         12.0960   54.4810   -1.5730 O.2    32  ARG32      -0.2715
     48  CB        12.4750   57.2500    0.2430 C.3    32  ARG32       0.0348
     49  CG        13.8520   56.5660    0.2240 C.3    32  ARG32       0.0492
     50  CD        14.8870   57.3420    1.0350 C.3    32  ARG32       0.2205
     51  NE        14.6400   57.2650    2.4680 N.pl3  32  ARG32      -0.0865
     52  CZ        15.4510   57.7570    3.4100 C.cat  32  ARG32       0.5346
     53  NH1       16.5870   58.3820    3.0960 N.pl3  32  ARG32       0.1354
     54  NH2       15.1180   57.6330    4.6910 N.pl3  32  ARG32       0.1354
     55  N         11.1780   54.4260    0.4790 N.am   33  THR33      -0.1951
     56  CA        11.2120   52.9870    0.5760 C.3    33  THR33       0.1897
     57  C          9.8180   52.4610    0.2470 C.2    33  THR33       0.2313
     58  O          8.9180   52.4590    1.1030 O.2    33  THR33      -0.2863
     59  CB        11.6440   52.5100    1.9730 C.3    33  THR33       0.1794
     60  OG1       12.8640   53.1600    2.3450 O.3    33  THR33      -0.2208
     61  CG2       11.8680   51.0160    1.9500 C.3    33  THR33       0.0378
     62  N          7.3520   49.8770    2.2550 N.3    36  LYS36      -0.1245
     63  CA         6.5790   50.3190    3.3970 C.3    36  LYS36       0.1561
     64  C          5.1300   50.6390    3.0550 C.2    36  LYS36       0.2260
     65  O          4.3470   50.8750    3.9560 O.2    36  LYS36      -0.2867
     66  CB         7.2300   51.5220    4.0500 C.3    36  LYS36       0.0271
     67  CG         8.5790   51.1630    4.6400 C.3    36  LYS36       0.0035
     68  CD         8.9410   52.1100    5.7540 C.3    36  LYS36       0.0206
     69  CE        10.3620   51.8630    6.2140 C.3    36  LYS36       0.1093
     70  NZ        10.9160   53.1310    6.7450 N.3    36  LYS36      -0.1314
     71  N          4.6090   63.8980    5.6240 N.3    64  SER64      -0.1202
     72  CA         4.9840   63.4240    6.9410 C.3    64  SER64       0.2020
     73  C          6.3980   62.8500    6.8380 C.2    64  SER64       0.2619
     74  O          6.5860   61.6520    6.7120 O.2    64  SER64      -0.2717
     75  CB         4.0570   62.3440    7.4330 C.3    64  SER64       0.2103
     76  OG         4.3380   62.0910    8.8000 O.3    64  SER64      -0.2182
     77  N          7.3710   63.7350    6.8620 N.am   65  LEU65      -0.1965
     78  CA         8.7800   63.3460    6.6530 C.3    65  LEU65       0.1728
     79  C          9.6250   63.7380    7.8420 C.2    65  LEU65       0.2617
     80  O          9.1820   64.4980    8.7080 O.2    65  LEU65      -0.2715
     81  CB         9.3040   63.9810    5.3730 C.3    65  LEU65       0.0311
     82  CG         8.5900   63.4920    4.1060 C.3    65  LEU65       0.0022
     83  CD1        8.7640   64.4400    2.9330 C.3    65  LEU65       0.0001
     84  CD2        9.0470   62.0980    3.7200 C.3    65  LEU65       0.0001
     85  N         10.8610   63.2280    7.8970 N.am   66  THR66      -0.1937
     86  CA        11.6000   63.3720    9.1180 C.3    66  THR66       0.2028
     87  C         11.9040   64.8330    9.3900 C.2    66  THR66       0.2642
     88  O         11.8360   65.2470   10.5260 O.2    66  THR66      -0.2714
     89  CB        12.8810   62.5170    9.1350 C.3    66  THR66       0.1808
     90  OG1       12.5360   61.1890    8.7360 O.3    66  THR66      -0.2208
     91  CG2       13.4350   62.4310   10.5430 C.3    66  THR66       0.0379
     92  N         12.2210   65.6130    8.3630 N.am   67  ASP67      -0.1971
     93  CA        12.5820   67.0320    8.5390 C.3    67  ASP67       0.1709
     94  C         12.5590   67.7530    7.1970 C.2    67  ASP67       0.2293
     95  O         12.2940   67.1320    6.1770 O.2    67  ASP67      -0.2864
     96  CB        13.9640   67.1550    9.2340 C.3    67  ASP67       0.1436
     97  CG        15.0950   66.4860    8.4710 C.2    67  ASP67       0.3671
     98  OD1       15.0250   66.2870    7.2270 O.co2  67  ASP67      -0.2456
     99  OD2       16.1190   66.2040    9.1330 O.co2  67  ASP67      -0.2456
    100  N         15.0360   68.8310    5.2620 N.3    69  ASP69      -0.1225
    101  CA        16.0180   68.2550    4.3500 C.3    69  ASP69       0.1805
    102  C         15.3570   67.1470    3.5260 C.2    69  ASP69       0.2597
    103  O         15.5540   67.0730    2.3150 O.2    69  ASP69      -0.2718
    104  CB        17.2240   67.6570    5.0960 C.3    69  ASP69       0.1424
    105  CG        18.2170   68.7100    5.6110 C.2    69  ASP69       0.3668
    106  OD1       18.2820   69.8560    5.1260 O.co2  69  ASP69      -0.2456
    107  OD2       18.9550   68.3610    6.5320 O.co2  69  ASP69      -0.2456
    108  N         14.5710   66.2960    4.1860 N.am   70  ALA70      -0.1979
    109  CA        13.8110   65.2210    3.5170 C.3    70  ALA70       0.1597
    110  C         12.7470   65.7500    2.5480 C.2    70  ALA70       0.2287
    111  O         12.5630   65.2190    1.4570 O.2    70  ALA70      -0.2864
    112  CB        13.1610   64.3230    4.5540 C.3    70  ALA70       0.0319
    113  N         14.5480   67.0560   -0.5070 N.3    73  ALA73      -0.1231
    114  CA        15.1010   65.9540   -1.2840 C.3    73  ALA73       0.1694
    115  C         14.0410   65.3590   -2.2020 C.2    73  ALA73       0.2591
    116  O         14.3120   65.0240   -3.3370 O.2    73  ALA73      -0.2718
    117  CB        15.6530   64.8860   -0.3730 C.3    73  ALA73       0.0304
    118  N         12.8230   65.2450   -1.7040 N.am   74  ILE74      -0.1980
    119  CA        11.7110   64.7480   -2.5200 C.3    74  ILE74       0.1595
    120  C         11.1520   65.7850   -3.4950 C.2    74  ILE74       0.2287
    121  O         10.8380   65.4450   -4.6370 O.2    74  ILE74      -0.2864
    122  CB        10.6000   64.1810   -1.6170 C.3    74  ILE74       0.0276
    123  CG1       11.1490   62.9360   -0.9210 C.3    74  ILE74       0.0022
    124  CG2        9.3440   63.8540   -2.4280 C.3    74  ILE74       0.0022
    125  CD1       10.3290   62.4020    0.2180 C.3    74  ILE74       0.0001
    126  N          3.5110   68.4990    7.5010 N.3    90  LEU90      -0.1245
    127  CA         3.4560   68.1220    8.9120 C.3    90  LEU90       0.1561
    128  C          4.7890   67.5820    9.4100 C.2    90  LEU90       0.2260
    129  O          4.8310   66.9350   10.4460 O.2    90  LEU90      -0.2867
    130  CB         2.3660   67.0810    9.1970 C.3    90  LEU90       0.0270
    131  CG         0.9170   67.6030    9.2970 C.3    90  LEU90       0.0019
    132  CD1        0.5980   68.7960    8.4230 C.3    90  LEU90       0.0001
    133  CD2       -0.0840   66.4910    9.0560 C.3    90  LEU90       0.0001
    134  N          8.2950   68.0270   11.2140 N.3    92  SER92      -0.1217
    135  CA         8.7100   68.9760   12.2390 C.3    92  SER92       0.1889
    136  C         10.1350   69.5080   11.9440 C.2    92  SER92       0.2288
    137  O         11.0190   68.7600   11.5530 O.2    92  SER92      -0.2866
    138  CB         8.5730   68.3510   13.6330 C.3    92  SER92       0.2089
    139  OG         9.6740   67.5530   13.9560 O.3    92  SER92      -0.2183
    140  N          2.2370   68.5220   14.6350 N.3   117  VAL117     -0.1231
    141  CA         1.3960   67.4520   15.1940 C.3   117  VAL117      0.1692
    142  C          1.7900   67.2670   16.6440 C.2   117  VAL117      0.2592
    143  O          2.9650   67.1580   16.9590 O.2   117  VAL117     -0.2718
    144  CB         1.4930   66.1300   14.4030 C.3   117  VAL117      0.0266
    145  CG1        0.6210   65.0290   15.0190 C.3   117  VAL117      0.0020
    146  CG2        1.0990   66.3660   12.9540 C.3   117  VAL117      0.0020
    147  N          0.8020   67.2820   17.5370 N.am  118  GLN118     -0.1966
    148  CA         1.0980   67.3190   18.9700 C.3   118  GLN118      0.1733
    149  C          1.1400   65.9620   19.6200 C.2   118  GLN118      0.2616
    150  O          1.4490   65.8730   20.8050 O.2   118  GLN118     -0.2715
    151  CB         0.0800   68.1670   19.7040 C.3   118  GLN118      0.0408
    152  CG         0.0670   69.6240   19.2960 C.3   118  GLN118      0.0908
    153  CD        -1.2270   70.2960   19.7010 C.2   118  GLN118      0.2608
    154  OE1       -1.8470   69.9110   20.6900 O.2   118  GLN118     -0.2717
    155  NE2       -1.6840   71.2410   18.9010 N.am  118  GLN118     -0.0878
    156  N          0.8400   64.9160   18.8510 N.am  119  VAL119     -0.1964
    157  CA         0.6090   63.5830   19.3870 C.3   119  VAL119      0.1712
    158  C          1.3370   62.5320   18.5990 C.2   119  VAL119      0.2458
    159  O          1.6260   62.7440   17.4310 O.2   119  VAL119     -0.2730
    160  CB        -0.8920   63.1840   19.3140 C.3   119  VAL119      0.0289
    161  CG1       -1.7190   64.0730   20.2170 C.3   119  VAL119      0.0023
    162  CG2       -1.4020   63.2190   17.8780 C.3   119  VAL119      0.0023
    163  N          1.5710   61.3670   19.2190 N.am  120  PRO120     -0.2716
    164  CA         2.2050   60.2540   18.5190 C.3   120  PRO120      0.1521
    165  C          1.2080   59.5290   17.6220 C.2   120  PRO120      0.2440
    166  O         -0.0050   59.6970   17.7700 O.2   120  PRO120     -0.2731
    167  CB         2.6790   59.3450   19.6610 C.3   120  PRO120      0.0310
    168  CG         1.6740   59.5780   20.7270 C.3   120  PRO120      0.0237
    169  CD         1.3910   61.0630   20.6500 C.3   120  PRO120      0.0939
    170  N          1.7180   58.6920   16.7170 N.am  121  PRO121     -0.2727
    171  CA         0.8570   58.0840   15.7160 C.3   121  PRO121      0.1402
    172  C         -0.4240   57.4080   16.1950 C.2   121  PRO121      0.2269
    173  O         -1.4110   57.5370   15.5110 O.2   121  PRO121     -0.2865
    174  CB         1.7810   57.0830   15.0350 C.3   121  PRO121      0.0296
    175  CG         3.1210   57.7300   15.1400 C.3   121  PRO121      0.0237
    176  CD         3.1330   58.3300   16.5050 C.3   121  PRO121      0.0939
    177  N          5.1610   74.0450   18.1320 N.3   167  TYR167     -0.1241
    178  CA         5.6590   72.6670   18.2750 C.3   167  TYR167      0.1605
    179  C          6.9920   72.6700   19.0200 C.2   167  TYR167      0.2264
    180  O          7.2040   71.8730   19.9350 O.2   167  TYR167     -0.2867
    181  CB         5.7780   71.9500   16.9040 C.3   167  TYR167      0.0534
    182  CG         6.3390   70.5380   17.0270 C.ar  167  TYR167     -0.0201
    183  CD1        5.5130   69.4570   17.3090 C.ar  167  TYR167     -0.0009
    184  CD2        7.7100   70.3000   16.9010 C.ar  167  TYR167     -0.0009
    185  CE1        6.0420   68.1750   17.4490 C.ar  167  TYR167      0.0417
    186  CE2        8.2380   69.0380   17.0530 C.ar  167  TYR167      0.0417
    187  CZ         7.4040   67.9920   17.3380 C.ar  167  TYR167      0.1957
    188  OH         7.9610   66.7640   17.4820 O.3   167  TYR167     -0.2866
@<TRIPOS>BOND
     1   121   120    2
     2   120   119    1
     3   116   115    2
     4   119   118    1
     5   119   122    1
     6   124   122    1
     7   115   118   am
     8   115   114    1
     9    39    38    2
    10   122   123    1
    11    47    46    2
    12   114   113    1
    13   114   117    1
    14    36    37    1
    15   123   125    1
    16    38    44   am
    17    38    37    1
    18    45    46    1
    19    45    44    1
    20    45    48    1
    21    46    55   am
    22    37    40    1
    23    49    48    1
    24    49    50    1
    25    57    56    1
    26    57    58    2
    27    55    56    1
    28    56    59    1
    29    50    51    1
    30    40    41    1
    31   111   110    2
    32    61    59    1
    33    59    60    1
    34    11    10    1
    35    62    63    1
    36   103   102    2
    37    41    43   am
    38    41    42    2
    39    51    52    2
    40   110   109    1
    41     1     2    1
    42    83    82    1
    43    10    12    1
    44    10     9    1
    45    64    63    1
    46    64    65    2
    47    53    52    1
    48    63    66    1
    49    52    54    1
    50   109   108    1
    51   109   112    1
    52   102   108   am
    53   102   101    1
    54    84    82    1
    55     2     3    1
    56    66    67    1
    57    82    81    1
    58     9     6    1
    59   101   104    1
    60   101   100    1
    61     3     5   am
    62     3     4    2
    63    67    68    1
    64     5     6    1
    65   104   105    1
    66   106   105   ar
    67     6     7    1
    68    81    78    1
    69   105   107   ar
    70    71    72    1
    71    68    69    1
    72    95    94    2
    73    69    70    1
    74     7     8    2
    75     7    13   am
    76    78    77    1
    77    78    79    1
    78    74    73    2
    79    73    77   am
    80    73    72    1
    81    72    75    1
    82    35    34    2
    83    94    93    1
    84    13    14    1
    85    98    97   ar
    86    75    76    1
    87   126   127    1
    88    34    33    1
    89    33    32    1
    90    79    85   am
    91    79    80    2
    92    85    86    1
    93    92    93    1
    94    92    87   am
    95   132   131    1
    96    97    99   ar
    97    97    96    1
    98    93    96    1
    99    14    15    1
   100    90    89    1
   101   127   130    1
   102   127   128    1
   103    16    15    2
   104    32    26   am
   105   133   131    1
   106    86    89    1
   107    86    87    1
   108    89    91    1
   109   130   131    1
   110    87    88    2
   111   128   129    2
   112    15    17   am
   113    26    27    2
   114    26    25    1
   115    17    23    1
   116    17    18    1
   117   134   135    1
   118    23    22    1
   119    25    24    1
   120    25    28    1
   121    24    19   am
   122   137   136    2
   123    28    29    1
   124    20    19    2
   125    19    18    1
   126    18    21    1
   127    29    30    1
   128   136   135    1
   129   135   138    1
   130    22    21    1
   131   146   144    1
   132    30    31    1
   133   138   139    1
   134   144   145    1
   135   144   141    1
   136   140   141    1
   137   174   175    1
   138   174   171    1
   139   175   176    1
   140   141   142    1
   141   173   172    2
   142   171   172    1
   143   171   170    1
   144   176   170    1
   145   142   143    2
   146   142   147   am
   147   170   165   am
   148   184   182   ar
   149   184   186   ar
   150   181   182    1
   151   181   178    1
   152   182   183   ar
   153   186   187   ar
   154   183   185   ar
   155   187   185   ar
   156   187   188    1
   157   159   158    2
   158   147   148    1
   159   165   166    2
   160   165   164    1
   161   162   160    1
   162   177   178    1
   163   178   179    1
   164   164   163    1
   165   164   167    1
   166   158   163   am
   167   158   157    1
   168   156   157    1
   169   156   149   am
   170   155   153   am
   171   148   149    1
   172   148   151    1
   173   179   180    2
   174   163   169    1
   175   152   153    1
   176   152   151    1
   177   160   157    1
   178   160   161    1
   179   149   150    2
   180   167   168    1
   181   153   154    2
   182   169   168    1
