@<TRIPOS>MOLECULE
tmp/4or0A00.pdb
 163 153 0 0 0
SMALL
GASTEIGER

@<TRIPOS>ATOM
      1  N          4.5870   18.8680  129.4920 N.3   385  LEU385     -0.1231
      2  CA         5.7320   18.5500  128.6270 C.3   385  LEU385      0.1693
      3  C          6.5270   19.7890  128.3540 C.2   385  LEU385      0.2591
      4  O          7.7440   19.8240  128.4910 O.2   385  LEU385     -0.2718
      5  CB         5.2900   18.0210  127.2920 C.3   385  LEU385      0.0284
      6  CG         5.2950   16.5000  127.1280 C.3   385  LEU385      0.0019
      7  CD1        4.3220   15.8210  128.1030 C.3   385  LEU385      0.0001
      8  CD2        4.9870   16.1970  125.6680 C.3   385  LEU385      0.0001
      9  N          5.8230   20.8280  127.9810 N.am  386  ILE386     -0.1980
     10  CA         6.4500   22.0970  127.6650 C.3   386  ILE386      0.1595
     11  C          7.3270   22.5310  128.8040 C.2   386  ILE386      0.2287
     12  O          8.5340   22.7780  128.6350 O.2   386  ILE386     -0.2864
     13  CB         5.3910   23.1930  127.3900 C.3   386  ILE386      0.0276
     14  CG1        4.2710   22.7010  126.4090 C.3   386  ILE386      0.0022
     15  CG2        6.0250   24.5240  126.9650 C.3   386  ILE386      0.0022
     16  CD1        4.6830   21.9360  125.1420 C.3   386  ILE386      0.0001
     17  N         10.3880   20.2400  129.1970 N.3   389  ASN389     -0.1225
     18  CA        11.2760   20.5730  128.1070 C.3   389  ASN389      0.1785
     19  C         11.9150   21.9600  128.1420 C.2   389  ASN389      0.2597
     20  O         13.1450   22.0720  128.0640 O.2   389  ASN389     -0.2718
     21  CB        10.5630   20.3020  126.7860 C.3   389  ASN389      0.1169
     22  CG        10.4850   18.7910  126.4600 C.2   389  ASN389      0.2627
     23  OD1       11.4580   18.2500  125.9560 O.2   389  ASN389     -0.2716
     24  ND2        9.3360   18.1120  126.7610 N.am  389  ASN389     -0.0877
     25  N         11.1490   23.0240  128.3330 N.am  390  CYS390     -0.1970
     26  CA        11.8080   24.3320  128.6070 C.3   390  CYS390      0.1712
     27  C         12.8300   24.4500  129.8060 C.2   390  CYS390      0.2296
     28  O         13.8650   25.1170  129.6990 O.2   390  CYS390     -0.2864
     29  CB        10.7780   25.4700  128.5690 C.3   390  CYS390      0.0983
     30  SG        10.0390   25.5680  126.8690 S.3   390  CYS390     -0.0798
     31  N         21.0020   20.5680  124.9430 N.3   401  PHE401     -0.1241
     32  CA        19.6330   20.0920  124.8430 C.3   401  PHE401      0.1605
     33  C         19.5400   19.1670  123.6160 C.2   401  PHE401      0.2264
     34  O         18.9010   18.0950  123.6420 O.2   401  PHE401     -0.2867
     35  CB        18.6830   21.2760  124.7400 C.3   401  PHE401      0.0534
     36  CG        17.2240   20.9070  124.8190 C.ar  401  PHE401     -0.0203
     37  CD1       16.7390   20.0420  125.7860 C.ar  401  PHE401     -0.0042
     38  CD2       16.2970   21.4860  123.9600 C.ar  401  PHE401     -0.0042
     39  CE1       15.3930   19.6930  125.8500 C.ar  401  PHE401     -0.0003
     40  CE2       14.9380   21.1630  124.0530 C.ar  401  PHE401     -0.0003
     41  CZ        14.5000   20.2290  124.9840 C.ar  401  PHE401     -0.0000
     42  N         18.1680   15.3660  123.7110 N.3   405  LEU405     -0.1245
     43  CA        17.2690   14.8110  122.7210 C.3   405  LEU405      0.1561
     44  C         17.9260   13.7000  121.8800 C.2   405  LEU405      0.2260
     45  O         17.2880   12.7020  121.5180 O.2   405  LEU405     -0.2867
     46  CB        16.7330   15.9190  121.8330 C.3   405  LEU405      0.0270
     47  CG        15.7950   16.9080  122.5630 C.3   405  LEU405      0.0019
     48  CD1       15.6050   18.2250  121.8410 C.3   405  LEU405      0.0001
     49  CD2       14.4520   16.2990  122.7340 C.3   405  LEU405      0.0001
     50  N         17.5530   10.8510  124.0710 N.3   408  ARG408     -0.1231
     51  CA        16.1840   10.4930  124.2890 C.3   408  ARG408      0.1694
     52  C         15.6120    9.7240  123.0820 C.2   408  ARG408      0.2592
     53  O         14.9850    8.6470  123.2340 O.2   408  ARG408     -0.2718
     54  CB        15.4260   11.7460  124.4370 C.3   408  ARG408      0.0321
     55  CG        13.9430   11.5150  124.5650 C.3   408  ARG408      0.0489
     56  CD        13.4690   12.5910  125.5060 C.3   408  ARG408      0.2205
     57  NE        12.7110   13.6150  124.8450 N.pl3 408  ARG408     -0.0865
     58  CZ        12.7220   14.9050  125.1890 C.cat 408  ARG408      0.5346
     59  NH1       13.5360   15.3880  126.1200 N.pl3 408  ARG408      0.1354
     60  NH2       11.8970   15.7350  124.5420 N.pl3 408  ARG408      0.1354
     61  N         15.8570   10.2600  121.8930 N.am  409  TYR409     -0.1976
     62  CA        15.3440    9.6290  120.7110 C.3   409  TYR409      0.1639
     63  C         16.0360    8.3480  120.3960 C.2   409  TYR409      0.2290
     64  O         15.3990    7.4080  119.8150 O.2   409  TYR409     -0.2864
     65  CB        15.3180   10.5990  119.5180 C.3   409  TYR409      0.0560
     66  CG        13.9570   11.2070  119.5080 C.ar  409  TYR409     -0.0198
     67  CD1       13.6440   12.2680  120.3320 C.ar  409  TYR409     -0.0009
     68  CD2       12.9210   10.5950  118.7980 C.ar  409  TYR409     -0.0009
     69  CE1       12.3460   12.7150  120.4380 C.ar  409  TYR409      0.0417
     70  CE2       11.6180   11.0620  118.8370 C.ar  409  TYR409      0.0417
     71  CZ        11.3290   12.1250  119.6560 C.ar  409  TYR409      0.1957
     72  OH        10.0170   12.5720  119.6920 O.3   409  TYR409     -0.2866
     73  N         14.3240    5.5950  122.2750 N.3   412  LYS412     -0.1245
     74  CA        13.0450    5.1780  121.7390 C.3   412  LYS412      0.1561
     75  C         13.1220    4.6860  120.3280 C.2   412  LYS412      0.2260
     76  O         12.4590    3.6990  119.9920 O.2   412  LYS412     -0.2867
     77  CB        11.8760    6.1770  121.8870 C.3   412  LYS412      0.0271
     78  CG        12.1170    7.6030  122.2750 C.3   412  LYS412      0.0035
     79  CD        10.7420    8.2890  122.3630 C.3   412  LYS412      0.0206
     80  CE        10.7820    9.8260  122.5160 C.3   412  LYS412      0.1093
     81  NZ         9.6300   10.2840  123.3630 N.3   412  LYS412     -0.1314
     82  N         15.3230   19.3040  116.8270 N.3   428  LEU428     -0.1245
     83  CA        14.3360   19.3540  117.9110 C.3   428  LEU428      0.1561
     84  C         14.7950   20.3170  118.9720 C.2   428  LEU428      0.2260
     85  O         14.0350   21.0900  119.4440 O.2   428  LEU428     -0.2867
     86  CB        14.0030   18.0020  118.4840 C.3   428  LEU428      0.0270
     87  CG        13.0460   17.1670  117.6210 C.3   428  LEU428      0.0019
     88  CD1       13.1100   15.8340  118.3070 C.3   428  LEU428      0.0001
     89  CD2       11.6040   17.6590  117.6300 C.3   428  LEU428      0.0001
     90  N         14.0420   23.9560  118.6470 N.3   431  VAL431     -0.1231
     91  CA        12.7530   24.3400  119.1780 C.3   431  VAL431      0.1692
     92  C         12.8560   25.0200  120.5500 C.2   431  VAL431      0.2592
     93  O         12.0050   25.8500  120.9280 O.2   431  VAL431     -0.2718
     94  CB        11.8640   23.1040  119.2480 C.3   431  VAL431      0.0266
     95  CG1       10.4750   23.3520  119.8380 C.3   431  VAL431      0.0020
     96  CG2       11.7090   22.5680  117.8230 C.3   431  VAL431      0.0020
     97  N         13.8990   24.7210  121.3010 N.am  432  GLY432     -0.1957
     98  CA        13.9780   25.2670  122.6420 C.3   432  GLY432      0.1869
     99  C         14.1600   26.7520  122.4840 C.2   432  GLY432      0.2309
    100  O         13.4040   27.5260  123.0480 O.2   432  GLY432     -0.2863
    101  N         11.0270   28.6480  121.0110 N.3   435  CYS435     -0.1221
    102  CA         9.7730   28.7010  121.6940 C.3   435  CYS435      0.1808
    103  C          9.8850   29.0050  123.1650 C.2   435  CYS435      0.2601
    104  O          8.9390   29.5360  123.7210 O.2   435  CYS435     -0.2717
    105  CB         8.9740   27.4170  121.3960 C.3   435  CYS435      0.0970
    106  SG         8.4590   27.2380  119.6270 S.3   435  CYS435     -0.0800
    107  N         11.0410   28.7360  123.7950 N.am  436  CYS436     -0.1970
    108  CA        11.1120   28.8240  125.2450 C.3   436  CYS436      0.1712
    109  C         11.2360   30.2350  125.7960 C.2   436  CYS436      0.2296
    110  O         10.7380   30.5180  126.8620 O.2   436  CYS436     -0.2864
    111  CB        12.1070   27.8620  125.8600 C.3   436  CYS436      0.0983
    112  SG        11.7060   26.0960  125.6600 S.3   436  CYS436     -0.0798
    113  N          5.5310   25.5190  120.0150 N.3   447  THR447     -0.1218
    114  CA         6.0750   24.2360  120.0360 C.3   447  THR447      0.1862
    115  C          5.2740   23.2550  119.2310 C.2   447  THR447      0.2287
    116  O          5.8450   22.5260  118.4370 O.2   447  THR447     -0.2866
    117  CB         6.1700   23.8300  121.4940 C.3   447  THR447      0.1770
    118  OG1        7.0880   24.7580  122.1230 O.3   447  THR447     -0.2211
    119  CG2        6.6490   22.4150  121.6310 C.3   447  THR447      0.0375
    120  N          7.1550   21.1990  116.2050 N.3   451  LEU451     -0.1245
    121  CA         7.4160   19.8330  116.3350 C.3   451  LEU451      0.1561
    122  C          6.7490   19.0860  115.1910 C.2   451  LEU451      0.2260
    123  O          7.2910   18.0260  114.7290 O.2   451  LEU451     -0.2867
    124  CB         6.8540   19.3750  117.6140 C.3   451  LEU451      0.0270
    125  CG         7.6460   19.8230  118.8210 C.3   451  LEU451      0.0019
    126  CD1        7.0300   19.1740  120.0580 C.3   451  LEU451      0.0001
    127  CD2        9.1050   19.4560  118.6820 C.3   451  LEU451      0.0001
    128  N          8.9660   16.6080  113.3780 N.3   455  LEU455     -0.1245
    129  CA         8.5240   15.2300  113.2780 C.3   455  LEU455      0.1561
    130  C          8.1730   14.8410  111.8480 C.2   455  LEU455      0.2260
    131  O          8.3720   13.6360  111.4660 O.2   455  LEU455     -0.2867
    132  CB         7.3930   14.8710  114.2520 C.3   455  LEU455      0.0270
    133  CG         7.9130   15.1720  115.6640 C.3   455  LEU455      0.0019
    134  CD1        6.8060   15.1220  116.6950 C.3   455  LEU455      0.0001
    135  CD2        9.0360   14.2150  116.0900 C.3   455  LEU455      0.0001
    136  N          2.8560   14.1870  117.4290 N.3   483  ARG483     -0.1245
    137  CA         3.6750   14.6820  118.5110 C.3   483  ARG483      0.1563
    138  C          3.3420   13.9060  119.7920 C.2   483  ARG483      0.2260
    139  O          4.2290   13.2430  120.3070 O.2   483  ARG483     -0.2867
    140  CB         3.6510   16.1920  118.5940 C.3   483  ARG483      0.0307
    141  CG         4.6890   16.7670  119.5080 C.3   483  ARG483      0.0489
    142  CD         4.3910   16.5340  120.9840 C.3   483  ARG483      0.2205
    143  NE         3.0650   17.0530  121.2860 N.pl3 483  ARG483     -0.0865
    144  CZ         2.3130   16.6360  122.2910 C.cat 483  ARG483      0.5346
    145  NH1        2.8110   15.6690  123.1040 N.pl3 483  ARG483      0.1354
    146  NH2        1.0640   17.1470  122.4470 N.pl3 483  ARG483      0.1354
    147  N          4.7370   10.4070  119.2840 N.3   486  PHE486     -0.1227
    148  CA         6.1770   10.2320  119.5360 C.3   486  PHE486      0.1736
    149  C          6.5110   10.3970  120.9750 C.2   486  PHE486      0.2596
    150  O          7.3130    9.6270  121.4770 O.2   486  PHE486     -0.2718
    151  CB         7.0740   11.1310  118.7120 C.3   486  PHE486      0.0547
    152  CG         7.3020   10.6390  117.3380 C.ar  486  PHE486     -0.0202
    153  CD1        8.2320    9.6440  117.0910 C.ar  486  PHE486     -0.0042
    154  CD2        6.6050   11.1650  116.2780 C.ar  486  PHE486     -0.0042
    155  CE1        8.4580    9.1570  115.7930 C.ar  486  PHE486     -0.0003
    156  CE2        6.8120   10.6900  114.9720 C.ar  486  PHE486     -0.0003
    157  CZ         7.7310    9.6920  114.7220 C.ar  486  PHE486     -0.0000
    158  N          5.8760   11.3680  121.6350 N.am  487  SER487     -0.1952
    159  CA         6.0340   11.5960  123.0570 C.3   487  SER487      0.1924
    160  C          5.5630   10.4470  123.8930 C.2   487  SER487      0.2314
    161  O          5.9870   10.2830  124.9880 O.2   487  SER487     -0.2863
    162  CB         5.2200   12.7900  123.4620 C.3   487  SER487      0.2116
    163  OG         6.0930   13.8720  123.6810 O.3   487  SER487     -0.2180
@<TRIPOS>BOND
     1   131   130    2
     2   130   129    1
     3   129   128    1
     4   129   132    1
     5   132   133    1
     6   157   156   ar
     7   157   155   ar
     8   123   122    2
     9   156   154   ar
    10   122   121    1
    11   133   135    1
    12   133   134    1
    13   155   153   ar
    14   120   121    1
    15   154   152   ar
    16   121   124    1
    17    82    83    1
    18   153   152   ar
    19   152   151    1
    20   136   137    1
    21   124   125    1
    22    87    89    1
    23    87    88    1
    24    87    86    1
    25    96    94    1
    26    83    86    1
    27    83    84    1
    28   116   115    2
    29   137   140    1
    30   137   138    1
    31   140   141    1
    32    90    91    1
    33   127   125    1
    34   151   148    1
    35    68    70   ar
    36    68    66   ar
    37   125   126    1
    38    70    71   ar
    39    84    85    2
    40    91    94    1
    41    91    92    1
    42   115   114    1
    43    94    95    1
    44   147   148    1
    45   141   142    1
    46    66    65    1
    47    66    67   ar
    48    65    62    1
    49   148   149    1
    50   106   105    1
    51    71    72    1
    52    71    69   ar
    53   138   139    2
    54    64    63    2
    55    76    75    2
    56   113   114    1
    57   114   117    1
    58    75    74    1
    59    67    69   ar
    60    63    62    1
    61    92    93    2
    62    92    97   am
    63    62    61    1
    64   149   150    2
    65   149   158   am
    66   142   143    1
    67   101   102    1
    68   143   144    2
    69    97    98    1
    70   105   102    1
    71   117   119    1
    72   117   118    1
    73    45    44    2
    74   158   159    1
    75   102   103    1
    76    74    77    1
    77    74    73    1
    78    46    47    1
    79    46    43    1
    80    48    47    1
    81    44    43    1
    82    77    78    1
    83    61    52   am
    84    78    79    1
    85   144   146    1
    86   144   145    1
    87    79    80    1
    88    99    98    1
    89    99   100    2
    90    80    81    1
    91    47    49    1
    92    43    42    1
    93   159   162    1
    94   159   160    1
    95    52    53    2
    96    52    51    1
    97   103   104    2
    98   103   107   am
    99   162   163    1
   100    33    34    2
   101    33    32    1
   102   107   108    1
   103   160   161    2
   104    38    40   ar
   105    38    36   ar
   106    40    41   ar
   107    50    51    1
   108    51    54    1
   109    54    55    1
   110    60    58    1
   111    55    56    1
   112    35    36    1
   113    35    32    1
   114    36    37   ar
   115    32    31    1
   116    57    58    2
   117    57    56    1
   118    41    39   ar
   119    16    14    1
   120    58    59    1
   121   108   109    1
   122   108   111    1
   123   112   111    1
   124   112    30    1
   125     8     6    1
   126    37    39   ar
   127   109   110    2
   128    23    22    2
   129    14    13    1
   130    22    24   am
   131    22    21    1
   132    21    18    1
   133    30    29    1
   134    15    13    1
   135     6     5    1
   136     6     7    1
   137     5     2    1
   138    13    10    1
   139    10     9    1
   140    10    11    1
   141     9     3   am
   142    20    19    2
   143    18    19    1
   144    18    17    1
   145    19    25   am
   146    25    26    1
   147     3     4    2
   148     3     2    1
   149    29    26    1
   150    26    27    1
   151     2     1    1
   152    12    11    2
   153    28    27    2
