@<TRIPOS>MOLECULE
tmp/4or0A02.pdb
 132 123 0 0 0
SMALL
GASTEIGER

@<TRIPOS>ATOM
      1  N          7.6030   23.7460  106.2180 N.3   193  ARG193     -0.1197
      2  CA         6.1330   24.0070  106.1720 C.3   193  ARG193      0.1779
      3  C          5.5760   23.3450  104.8690 C.2   193  ARG193      0.2305
      4  O          4.6350   22.5050  104.9210 O.2   193  ARG193     -0.2863
      5  CB         5.8090   25.5250  106.1810 C.2   193  ARG193     -0.0007
      6  CG         6.1700   26.2640  107.4650 C.2   193  ARG193      0.0176
      7  CD         5.7550   27.7500  107.6060 C.3   193  ARG193      0.2464
      8  NE         5.0910   27.8650  108.8920 N.pl3 193  ARG193     -0.0815
      9  CZ         5.6930   28.1640  110.0610 C.cat 193  ARG193      0.5349
     10  NH1        6.9900   28.4520  110.1120 N.pl3 193  ARG193      0.1354
     11  NH2        4.9940   28.1880  111.2150 N.pl3 193  ARG193      0.1354
     12  N          5.3790   19.6560  104.7100 N.3   196  LEU196     -0.1231
     13  CA         4.2600   19.0580  105.4740 C.3   196  LEU196      0.1693
     14  C          2.8960   19.2460  104.7780 C.2   196  LEU196      0.2591
     15  O          1.9720   18.3980  104.8360 O.2   196  LEU196     -0.2718
     16  CB         4.2680   19.7770  106.7930 C.3   196  LEU196      0.0284
     17  CG         3.1960   19.4230  107.7510 C.3   196  LEU196      0.0019
     18  CD1        3.3030   17.9310  107.9500 C.3   196  LEU196      0.0001
     19  CD2        3.4550   20.1900  109.0220 C.3   196  LEU196      0.0001
     20  N          2.7700   20.3810  104.1190 N.am  197  ARG197     -0.1980
     21  CA         1.6380   20.5530  103.2230 C.3   197  ARG197      0.1597
     22  C          1.6300   19.4750  102.1320 C.2   197  ARG197      0.2287
     23  O          0.6140   18.8650  101.9120 O.2   197  ARG197     -0.2864
     24  CB         1.5790   21.9780  102.6300 C.3   197  ARG197      0.0334
     25  CG         1.2490   23.0380  103.6230 C.3   197  ARG197      0.0492
     26  CD         0.8240   24.2870  102.9360 C.3   197  ARG197      0.2205
     27  NE         2.0130   24.9830  102.5330 N.pl3 197  ARG197     -0.0865
     28  CZ         2.6620   25.8540  103.3040 C.cat 197  ARG197      0.5346
     29  NH1        2.2020   26.1680  104.5240 N.pl3 197  ARG197      0.1354
     30  NH2        3.7640   26.4080  102.8380 N.pl3 197  ARG197      0.1354
     31  N          0.6490   16.0090  103.8450 N.3   200  SER200     -0.1217
     32  CA        -0.7910   15.8860  103.9320 C.3   200  SER200      0.1889
     33  C         -1.4130   15.2290  102.7590 C.2   200  SER200      0.2288
     34  O         -2.0110   14.2200  102.9580 O.2   200  SER200     -0.2866
     35  CB        -1.4800   17.2530  104.0150 C.3   200  SER200      0.2089
     36  OG        -0.8760   18.0340  105.0460 O.3   200  SER200     -0.2183
     37  N         -7.0970   16.5270  103.7990 N.3   208  ALA208     -0.1231
     38  CA        -6.3020   16.9870  104.9120 C.3   208  ALA208      0.1694
     39  C         -5.7150   18.3830  104.5720 C.2   208  ALA208      0.2591
     40  O         -5.6500   19.3780  105.4150 O.2   208  ALA208     -0.2718
     41  CB        -5.2450   15.9810  105.2340 C.3   208  ALA208      0.0304
     42  N         -5.3210   18.5110  103.3190 N.am  209  LEU209     -0.1980
     43  CA        -4.7700   19.8170  102.9380 C.3   209  LEU209      0.1596
     44  C         -5.9110   20.8390  103.0010 C.2   209  LEU209      0.2287
     45  O         -5.8210   21.8350  103.6930 O.2   209  LEU209     -0.2864
     46  CB        -4.1400   19.7320  101.5720 C.3   209  LEU209      0.0297
     47  CG        -3.4600   20.9480  100.9450 C.3   209  LEU209      0.0022
     48  CD1       -2.2910   21.4600  101.7530 C.3   209  LEU209      0.0001
     49  CD2       -2.9870   20.4870   99.5660 C.3   209  LEU209      0.0001
     50  N         -6.3940   21.9030  106.5430 N.3   212  TRP212     -0.1241
     51  CA        -5.4030   22.8930  106.8770 C.3   212  TRP212      0.1605
     52  C         -5.7680   24.2730  106.3720 C.2   212  TRP212      0.2264
     53  O         -5.6310   25.2620  107.1030 O.2   212  TRP212     -0.2867
     54  CB        -4.0850   22.5470  106.2310 C.3   212  TRP212      0.0550
     55  CG        -2.9830   23.6280  106.4410 C.ar  212  TRP212      0.0003
     56  CD1       -2.2150   23.8020  107.5640 C.ar  212  TRP212      0.0946
     57  CD2       -2.5660   24.6520  105.5190 C.ar  212  TRP212      0.0152
     58  NE1       -1.3640   24.8550  107.3950 N.ar  212  TRP212     -0.2442
     59  CE2       -1.5480   25.3910  106.1500 C.ar  212  TRP212      0.0810
     60  CE3       -2.9760   25.0330  104.2160 C.ar  212  TRP212      0.0012
     61  CZ2       -0.9010   26.4960  105.5240 C.ar  212  TRP212      0.0191
     62  CZ3       -2.3440   26.1390  103.5940 C.ar  212  TRP212      0.0001
     63  CH2       -1.3250   26.8600  104.2550 C.ar  212  TRP212      0.0015
     64  N         -6.0410   27.6060  108.7900 N.3   216  ARG216     -0.1245
     65  CA        -5.2050   28.7530  108.5820 C.3   216  ARG216      0.1563
     66  C         -5.9970   30.0080  108.1650 C.2   216  ARG216      0.2260
     67  O         -5.8450   31.1360  108.6870 O.2   216  ARG216     -0.2867
     68  CB        -4.2380   28.4290  107.4740 C.3   216  ARG216      0.0307
     69  CG        -3.0880   29.4170  107.3420 C.3   216  ARG216      0.0489
     70  CD        -1.7430   28.8620  107.8280 C.3   216  ARG216      0.2205
     71  NE        -1.6300   28.5230  109.2650 N.pl3 216  ARG216     -0.0865
     72  CZ        -0.7220   29.0820  110.0640 C.cat 216  ARG216      0.5346
     73  NH1        0.1130   30.0160  109.5700 N.pl3 216  ARG216      0.1354
     74  NH2       -0.6550   28.7280  111.3410 N.pl3 216  ARG216      0.1354
     75  N         -2.1900   25.4420  114.5230 N.3   341  VAL341     -0.1231
     76  CA        -2.9650   24.8050  113.5350 C.3   341  VAL341      0.1692
     77  C         -3.0750   23.3160  113.8380 C.2   341  VAL341      0.2592
     78  O         -4.1890   22.7550  113.7480 O.2   341  VAL341     -0.2718
     79  CB        -2.4350   25.1500  112.1200 C.3   341  VAL341      0.0266
     80  CG1       -3.0180   24.2410  111.0480 C.3   341  VAL341      0.0020
     81  CG2       -2.9330   26.5380  111.7960 C.3   341  VAL341      0.0020
     82  N         -1.9630   22.6750  114.2310 N.am  342  SER342     -0.1952
     83  CA        -2.0110   21.2340  114.5270 C.3   342  SER342      0.1924
     84  C         -3.0240   20.9030  115.5330 C.2   342  SER342      0.2314
     85  O         -3.5600   19.7680  115.5340 O.2   342  SER342     -0.2863
     86  CB        -0.7110   20.7760  115.1150 C.3   342  SER342      0.2116
     87  OG         0.2780   21.3240  114.2780 O.3   342  SER342     -0.2180
     88  N         -6.6320   21.2800  114.1400 N.3   345  LEU345     -0.1245
     89  CA        -6.9100   20.0440  113.4080 C.3   345  LEU345      0.1561
     90  C         -7.0740   18.8360  114.2840 C.2   345  LEU345      0.2260
     91  O         -7.8620   17.9480  113.9620 O.2   345  LEU345     -0.2867
     92  CB        -5.9320   19.8170  112.3000 C.3   345  LEU345      0.0270
     93  CG        -6.1010   21.0360  111.3850 C.3   345  LEU345      0.0019
     94  CD1       -4.8560   21.3630  110.6410 C.3   345  LEU345      0.0001
     95  CD2       -7.1610   20.7790  110.3440 C.3   345  LEU345      0.0001
     96  N          3.4070   23.4890  116.6630 N.3   449  ASP449     -0.1239
     97  CA         3.5770   23.6410  115.2090 C.3   449  ASP449      0.1674
     98  C          4.9660   23.3550  114.7150 C.2   449  ASP449      0.2266
     99  O          5.0910   22.7340  113.6500 O.2   449  ASP449     -0.2867
    100  CB         3.0940   25.0090  114.6730 C.3   449  ASP449      0.1410
    101  CG         1.5480   25.0400  114.3670 C.2   449  ASP449      0.3668
    102  OD1        0.9050   26.1970  114.4040 O.co2 449  ASP449     -0.2456
    103  OD2        0.9850   23.9150  114.1410 O.co2 449  ASP449     -0.2456
    104  N          5.6090   19.6190  114.7000 N.3   452  SER452     -0.1202
    105  CA         4.9970   19.0230  113.5030 C.3   452  SER452      0.2020
    106  C          5.9080   19.1540  112.3080 C.2   452  SER452      0.2618
    107  O          6.0620   18.2380  111.4920 O.2   452  SER452     -0.2717
    108  CB         3.6890   19.7110  113.1140 C.3   452  SER452      0.2103
    109  OG         2.6660   19.4960  114.0610 O.3   452  SER452     -0.2182
    110  N          6.4750   20.3330  112.1330 N.am  453  LEU453     -0.1979
    111  CA         7.3850   20.4990  110.9930 C.3   453  LEU453      0.1596
    112  C          8.5110   19.4950  111.1340 C.2   453  LEU453      0.2287
    113  O          8.8480   18.7930  110.1880 O.2   453  LEU453     -0.2864
    114  CB         8.0340   21.8830  111.0590 C.3   453  LEU453      0.0297
    115  CG         7.0930   23.0480  110.8800 C.3   453  LEU453      0.0022
    116  CD1        7.8400   24.3650  110.7880 C.3   453  LEU453      0.0001
    117  CD2        6.2750   22.8040  109.5980 C.3   453  LEU453      0.0001
    118  N         -1.3130   12.6820  110.9950 N.3   479  LEU479     -0.1231
    119  CA        -0.4020   13.8290  110.9760 C.3   479  LEU479      0.1693
    120  C         -0.4390   14.5440  112.3750 C.2   479  LEU479      0.2591
    121  O          0.5530   14.9290  112.9850 O.2   479  LEU479     -0.2718
    122  CB        -0.8700   14.7550  109.8750 C.3   479  LEU479      0.0284
    123  CG         0.1500   15.3880  108.9690 C.3   479  LEU479      0.0019
    124  CD1        1.1120   14.3650  108.5280 C.3   479  LEU479      0.0001
    125  CD2       -0.5140   15.9790  107.7600 C.3   479  LEU479      0.0001
    126  N         -1.6390   14.6480  112.8920 N.am  480  VAL480     -0.1980
    127  CA        -1.9810   15.6540  113.8340 C.3   480  VAL480      0.1595
    128  C         -1.7660   15.1440  115.2560 C.2   480  VAL480      0.2287
    129  O         -1.6610   15.9470  116.1820 O.2   480  VAL480     -0.2864
    130  CB        -3.4290   16.0650  113.4930 C.3   480  VAL480      0.0276
    131  CG1       -4.4470   15.6250  114.5510 C.3   480  VAL480      0.0022
    132  CG2       -3.4850   17.5350  113.1600 C.3   480  VAL480      0.0022
@<TRIPOS>BOND
     1    49    47    1
     2    47    46    1
     3    47    48    1
     4    46    43    1
     5    23    22    2
     6    22    21    1
     7    27    26    1
     8    27    28    2
     9    24    21    1
    10    24    25    1
    11    33    34    2
    12    33    32    1
    13    30    28    1
    14    26    25    1
    15    43    44    1
    16    43    42    1
    17    44    45    2
    18    21    20    1
    19    28    29    1
    20    42    39   am
    21    62    60   ar
    22    62    63   ar
    23    37    38    1
    24    31    32    1
    25    32    35    1
    26    35    36    1
    27    20    14   am
    28    60    57   ar
    29    63    61   ar
    30    39    38    1
    31    39    40    2
    32    12    13    1
    33    14    15    2
    34    14    13    1
    35     3     4    2
    36     3     2    1
    37    38    41    1
    38    13    16    1
    39    57    59   ar
    40    57    55   ar
    41    61    59   ar
    42    59    58   ar
    43     2     5    1
    44     2     1    1
    45     5     6    2
    46    54    55    1
    47    54    51    1
    48    52    51    1
    49    52    53    2
    50    55    56   ar
    51    50    51    1
    52    16    17    1
    53    69    68    1
    54    69    70    1
    55    58    56   ar
    56     6     7    1
    57    68    65    1
    58     7     8    1
    59    17    18    1
    60    17    19    1
    61   125   123    1
    62    70    71    1
    63    66    65    1
    64    66    67    2
    65   124   123    1
    66    65    64    1
    67     8     9    2
    68   123   122    1
    69    71    72    2
    70    73    72    1
    71   117   115    1
    72   122   119    1
    73     9    10    1
    74     9    11    1
    75    72    74    1
    76   113   112    2
    77    95    93    1
    78    94    93    1
    79   116   115    1
    80   115   114    1
    81   119   118    1
    82   119   120    1
    83   111   114    1
    84   111   112    1
    85   111   110    1
    86    80    79    1
    87    93    92    1
    88   107   106    2
    89    81    79    1
    90    79    76    1
    91   110   106   am
    92    92    89    1
    93   106   105    1
    94   120   126   am
    95   120   121    2
    96   126   127    1
    97   108   105    1
    98   108   109    1
    99   132   130    1
   100    89    88    1
   101    89    90    1
   102   130   127    1
   103   130   131    1
   104   105   104    1
   105    76    77    1
   106    76    75    1
   107    99    98    2
   108    78    77    2
   109   127   128    1
   110    77    82   am
   111    91    90    2
   112   103   101   ar
   113    82    83    1
   114    87    86    1
   115   101   102   ar
   116   101   100    1
   117    83    86    1
   118    83    84    1
   119   100    97    1
   120    98    97    1
   121    97    96    1
   122   128   129    2
   123    84    85    2
