@<TRIPOS>MOLECULE
tmp/4or0A01.pdb
 121 112 0 0 0
SMALL
GASTEIGER

@<TRIPOS>ATOM
      1  N         -2.4960   11.5970  103.1620 N.3   204  PHE204     -0.1241
      2  CA        -3.7770   11.6970  103.8560 C.3   204  PHE204      0.1605
      3  C         -4.8640   12.2700  103.0210 C.2   204  PHE204      0.2264
      4  O         -5.9060   12.5380  103.5400 O.2   204  PHE204     -0.2867
      5  CB        -3.6340   12.5290  105.1460 C.3   204  PHE204      0.0534
      6  CG        -2.7630   11.8530  106.1650 C.ar  204  PHE204     -0.0203
      7  CD1       -3.2980   10.9390  107.0400 C.ar  204  PHE204     -0.0042
      8  CD2       -1.3710   12.0110  106.1620 C.ar  204  PHE204     -0.0042
      9  CE1       -2.4720   10.2190  107.9230 C.ar  204  PHE204     -0.0003
     10  CE2       -0.5390   11.3020  107.0650 C.ar  204  PHE204     -0.0003
     11  CZ        -1.0910   10.3860  107.9350 C.ar  204  PHE204     -0.0000
     12  N         -8.3030   16.0290  101.2870 N.3   207  ARG207     -0.1231
     13  CA        -9.1090   16.5600  102.4000 C.3   207  ARG207      0.1694
     14  C         -8.2870   17.0550  103.5920 C.2   207  ARG207      0.2588
     15  O         -8.6740   17.9980  104.2360 O.2   207  ARG207     -0.2718
     16  CB       -10.2970   15.6810  102.8180 C.3   207  ARG207      0.0321
     17  CG       -10.0260   14.2890  103.3030 C.3   207  ARG207      0.0489
     18  CD       -11.2880   13.7040  103.9880 C.3   207  ARG207      0.2205
     19  NE       -10.9060   13.2200  105.3140 N.pl3 207  ARG207     -0.0865
     20  CZ       -11.5760   13.3630  106.4560 C.cat 207  ARG207      0.5346
     21  NH1      -12.7800   13.9230  106.5100 N.pl3 207  ARG207      0.1354
     22  NH2      -11.0060   12.9010  107.5830 N.pl3 207  ARG207      0.1354
     23  N         -7.0970   16.5270  103.7990 N.am  208  ALA208     -0.2033
     24  CA        -6.3020   16.9870  104.9120 C.3   208  ALA208      0.1283
     25  C         -5.7150   18.3830  104.5720 C.3   208  ALA208      0.2036
     26  O         -5.6500   19.3780  105.4150 O.3   208  ALA208     -0.2185
     27  CB        -5.2450   15.9810  105.2340 C.3   208  ALA208      0.0262
     28  N         -7.0160   20.5530  102.3550 N.3   210  LYS210     -0.1231
     29  CA        -8.1570   21.4360  102.4340 C.3   210  LYS210      0.1693
     30  C         -8.4070   21.8800  103.8530 C.2   210  LYS210      0.2591
     31  O         -8.5060   23.0730  104.1200 O.2   210  LYS210     -0.2718
     32  CB        -9.3800   20.7130  101.9320 C.3   210  LYS210      0.0285
     33  CG       -10.6430   21.5340  101.9190 C.3   210  LYS210      0.0035
     34  CD       -11.6310   20.9440  100.9110 C.3   210  LYS210      0.0206
     35  CE       -12.6780   21.9640  100.5520 C.3   210  LYS210      0.1093
     36  NZ       -13.9050   21.2120  100.2560 N.3   210  LYS210     -0.1314
     37  N         -8.4860   20.9320  104.7950 N.am  211  ALA211     -0.1980
     38  CA        -8.7270   21.2850  106.2150 C.3   211  ALA211      0.1597
     39  C         -7.6520   22.2010  106.7860 C.2   211  ALA211      0.2287
     40  O         -7.9550   23.1990  107.4200 O.2   211  ALA211     -0.2864
     41  CB        -8.8400   20.0570  107.0390 C.3   211  ALA211      0.0319
     42  N        -17.5000   16.3490  105.2560 N.3   322  ASP322     -0.1239
     43  CA       -16.3730   17.2890  105.2030 C.3   322  ASP322      0.1674
     44  C        -16.7520   18.7670  105.2170 C.2   322  ASP322      0.2266
     45  O        -15.9490   19.6200  105.6070 O.2   322  ASP322     -0.2867
     46  CB       -15.4870   16.9790  103.9970 C.3   322  ASP322      0.1410
     47  CG       -14.7000   15.6990  104.1880 C.2   322  ASP322      0.3668
     48  OD1      -14.9590   14.9880  105.1990 O.co2 322  ASP322     -0.2456
     49  OD2      -13.8300   15.3800  103.3460 O.co2 322  ASP322     -0.2456
     50  N        -17.7880   19.4950  108.8090 N.3   325  LEU325     -0.1231
     51  CA       -16.5500   19.5250  109.5440 C.3   325  LEU325      0.1693
     52  C        -15.6940   20.7390  109.2120 C.2   325  LEU325      0.2592
     53  O        -15.0800   21.3010  110.1100 O.2   325  LEU325     -0.2718
     54  CB       -15.7570   18.2660  109.3160 C.3   325  LEU325      0.0284
     55  CG       -16.1970   17.0590  110.1280 C.3   325  LEU325      0.0019
     56  CD1      -15.2060   15.9370  109.9080 C.3   325  LEU325      0.0001
     57  CD2      -16.2600   17.4860  111.6000 C.3   325  LEU325      0.0001
     58  N        -15.6720   21.1830  107.9560 N.am  326  GLY326     -0.1957
     59  CA       -15.0230   22.4410  107.6220 C.3   326  GLY326      0.1869
     60  C        -15.6730   23.5810  108.4090 C.2   326  GLY326      0.2309
     61  O        -14.9910   24.4860  108.8730 O.2   326  GLY326     -0.2863
     62  N        -14.4280   23.6890  111.8000 N.3   329  LEU329     -0.1245
     63  CA       -13.0620   24.1760  111.7970 C.3   329  LEU329      0.1561
     64  C        -13.0040   25.7260  111.6440 C.2   329  LEU329      0.2260
     65  O        -12.1660   26.4100  112.2670 O.2   329  LEU329     -0.2867
     66  CB       -12.3460   23.4690  110.6700 C.3   329  LEU329      0.0270
     67  CG       -10.9040   22.9960  110.8000 C.3   329  LEU329      0.0019
     68  CD1      -10.5220   22.5380  112.2120 C.3   329  LEU329      0.0001
     69  CD2      -10.6850   21.9210  109.7320 C.3   329  LEU329      0.0001
     70  N         -6.6320   21.2800  114.1400 N.3   345  LEU345     -0.1245
     71  CA        -6.9100   20.0440  113.4080 C.3   345  LEU345      0.1561
     72  C         -7.0740   18.8360  114.2840 C.2   345  LEU345      0.2260
     73  O         -7.8620   17.9480  113.9620 O.2   345  LEU345     -0.2867
     74  CB        -5.9320   19.8170  112.3000 C.3   345  LEU345      0.0270
     75  CG        -6.1010   21.0360  111.3850 C.3   345  LEU345      0.0019
     76  CD1       -4.8560   21.3630  110.6410 C.3   345  LEU345      0.0001
     77  CD2       -7.1610   20.7790  110.3440 C.3   345  LEU345      0.0001
     78  N        -10.6210   19.1570  115.4660 N.3   348  ALA348     -0.1231
     79  CA       -11.5680   18.7720  114.4270 C.3   348  ALA348      0.1694
     80  C        -11.6020   17.2610  114.3150 C.2   348  ALA348      0.2591
     81  O        -12.6670   16.6980  114.2840 O.2   348  ALA348     -0.2718
     82  CB       -11.2290   19.4140  113.1070 C.3   348  ALA348      0.0304
     83  N        -10.4520   16.5850  114.3170 N.am  349  LYS349     -0.1980
     84  CA       -10.4500   15.1340  114.1540 C.3   349  LYS349      0.1596
     85  C        -11.1890   14.4390  115.2270 C.2   349  LYS349      0.2287
     86  O        -11.7160   13.3530  114.9980 O.2   349  LYS349     -0.2864
     87  CB        -9.0450   14.5390  114.1550 C.3   349  LYS349      0.0298
     88  CG        -9.0000   13.2780  113.2870 C.3   349  LYS349      0.0038
     89  CD        -7.7160   12.4990  113.4710 C.3   349  LYS349      0.0206
     90  CE        -7.6100   11.3000  112.5370 C.3   349  LYS349      0.1093
     91  NZ        -6.1520   11.0240  112.2390 N.3   349  LYS349     -0.1314
     92  N        -14.7780   14.6810  115.0290 N.3   352  GLU352     -0.1196
     93  CA       -15.1990   13.7690  113.9580 C.3   352  GLU352      0.1783
     94  C        -15.3900   12.3890  114.5610 C.2   352  GLU352      0.2306
     95  O        -16.4990   11.8440  114.5520 O.2   352  GLU352     -0.2863
     96  CB       -14.1490   13.7510  112.8230 C.2   352  GLU352      0.0071
     97  CG       -14.3260   12.6540  111.7740 C.2   352  GLU352      0.0834
     98  CD       -13.2820   12.6110  110.6280 C.2   352  GLU352      0.3877
     99  OE1      -12.0240   12.5850  110.8130 O.co2 352  GLU352     -0.2406
    100  OE2      -13.7670   12.5400  109.4830 O.co2 352  GLU352     -0.2406
    101  N         -1.2570    9.2110  111.8470 N.3   478  SER478     -0.1202
    102  CA        -1.8410   10.5110  111.7300 C.3   478  SER478      0.2020
    103  C         -0.8410   11.5100  111.3330 C.2   478  SER478      0.2619
    104  O          0.3550   11.3010  111.4150 O.2   478  SER478     -0.2717
    105  CB        -2.3870   10.9620  113.1060 C.3   478  SER478      0.2103
    106  OG        -1.3740   11.6610  113.8360 O.3   478  SER478     -0.2182
    107  N         -1.3130   12.6820  110.9950 N.am  479  LEU479     -0.1965
    108  CA        -0.4020   13.8290  110.9760 C.3   479  LEU479      0.1728
    109  C         -0.4390   14.5440  112.3750 C.2   479  LEU479      0.2616
    110  O          0.5530   14.9290  112.9850 O.2   479  LEU479     -0.2715
    111  CB        -0.8700   14.7550  109.8750 C.3   479  LEU479      0.0311
    112  CG         0.1500   15.3880  108.9690 C.3   479  LEU479      0.0022
    113  CD1        1.1120   14.3650  108.5280 C.3   479  LEU479      0.0001
    114  CD2       -0.5140   15.9790  107.7600 C.3   479  LEU479      0.0001
    115  N         -1.6390   14.6480  112.8920 N.am  480  VAL480     -0.1977
    116  CA        -1.9810   15.6540  113.8340 C.3   480  VAL480      0.1596
    117  C         -1.7660   15.1440  115.2560 C.2   480  VAL480      0.2287
    118  O         -1.6610   15.9470  116.1820 O.2   480  VAL480     -0.2864
    119  CB        -3.4290   16.0650  113.4930 C.3   480  VAL480      0.0276
    120  CG1       -4.4470   15.6250  114.5510 C.3   480  VAL480      0.0022
    121  CG2       -3.4850   17.5350  113.1600 C.3   480  VAL480      0.0022
@<TRIPOS>BOND
     1    36    35    1
     2    35    34    1
     3    34    33    1
     4    12    13    1
     5    33    32    1
     6    32    29    1
     7    28    29    1
     8    13    16    1
     9    13    14    1
    10    29    30    1
    11    16    17    1
    12     3     4    2
    13     3     2    1
    14     1     2    1
    15    17    18    1
    16    49    47   ar
    17    14    23   am
    18    14    15    2
    19    23    24    1
    20    30    31    2
    21    30    37   am
    22     2     5    1
    23    18    19    1
    24    46    47    1
    25    46    43    1
    26    47    48   ar
    27    25    24    1
    28    25    26    1
    29    37    38    1
    30    24    27    1
    31     5     6    1
    32    43    44    1
    33    43    42    1
    34    44    45    2
    35    19    20    2
    36     8     6   ar
    37     8    10   ar
    38     6     7   ar
    39    38    39    1
    40    38    41    1
    41    20    21    1
    42    20    22    1
    43    39    40    2
    44     7     9   ar
    45    10    11   ar
    46    59    58    1
    47    59    60    1
    48   114   112    1
    49     9    11   ar
    50    58    52   am
    51    60    61    2
    52   113   112    1
    53    50    51    1
    54   112   111    1
    55    52    51    1
    56    52    53    2
    57    54    51    1
    58    54    55    1
    59   100    98   ar
    60    69    67    1
    61   111   108    1
    62    56    55    1
    63    55    57    1
    64    77    75    1
    65    98    99   ar
    66    98    97    1
    67    76    75    1
    68    66    67    1
    69    66    63    1
    70    67    68    1
    71   108   107    1
    72   108   109    1
    73   107   103   am
    74   103   104    2
    75   103   102    1
    76    75    74    1
    77    64    63    1
    78    64    65    2
    79   102   101    1
    80   102   105    1
    81    97    96    2
    82    63    62    1
    83    91    90    1
    84    74    71    1
    85   109   115   am
    86   109   110    2
    87    90    89    1
    88    96    93    1
    89   115   116    1
    90   105   106    1
    91    82    79    1
    92   121   119    1
    93    88    89    1
    94    88    87    1
    95    71    70    1
    96    71    72    1
    97   119   116    1
    98   119   120    1
    99   116   117    1
   100    93    94    1
   101    93    92    1
   102    73    72    2
   103    84    87    1
   104    84    83    1
   105    84    85    1
   106    81    80    2
   107    80    83   am
   108    80    79    1
   109    79    78    1
   110    95    94    2
   111    86    85    2
   112   117   118    2
