@<TRIPOS>MOLECULE
tmp/4or0A04.pdb
 132 126 0 0 0
SMALL
GASTEIGER

@<TRIPOS>ATOM
      1  N          8.1640   25.2740   97.9650 N.3   148  TYR148     -0.1241
      2  CA         7.0760   26.0550   97.3520 C.3   148  TYR148      0.1605
      3  C          7.5930   27.0280   96.2670 C.2   148  TYR148      0.2264
      4  O          8.1510   28.1000   96.6130 O.2   148  TYR148     -0.2867
      5  CB         6.4650   26.8890   98.4330 C.3   148  TYR148      0.0534
      6  CG         5.1720   27.4900   98.1660 C.ar  148  TYR148     -0.0201
      7  CD1        4.3870   27.0950   97.0860 C.ar  148  TYR148     -0.0009
      8  CD2        4.6760   28.3690   99.0510 C.ar  148  TYR148     -0.0009
      9  CE1        3.1540   27.6200   96.8840 C.ar  148  TYR148      0.0417
     10  CE2        3.4420   28.8920   98.8790 C.ar  148  TYR148      0.0417
     11  CZ         2.7030   28.5360   97.7810 C.ar  148  TYR148      0.1957
     12  OH         1.4900   29.1270   97.6460 O.3   148  TYR148     -0.2866
     13  N          2.7700   20.3810  104.1190 N.3   197  ARG197     -0.1245
     14  CA         1.6380   20.5530  103.2230 C.3   197  ARG197      0.1563
     15  C          1.6300   19.4750  102.1320 C.2   197  ARG197      0.2260
     16  O          0.6140   18.8650  101.9120 O.2   197  ARG197     -0.2867
     17  CB         1.5790   21.9780  102.6300 C.3   197  ARG197      0.0307
     18  CG         1.2490   23.0380  103.6230 C.3   197  ARG197      0.0489
     19  CD         0.8240   24.2870  102.9360 C.3   197  ARG197      0.2205
     20  NE         2.0130   24.9830  102.5330 N.pl3 197  ARG197     -0.0865
     21  CZ         2.6620   25.8540  103.3040 C.cat 197  ARG197      0.5346
     22  NH1        2.2020   26.1680  104.5240 N.pl3 197  ARG197      0.1354
     23  NH2        3.7640   26.4080  102.8380 N.pl3 197  ARG197      0.1354
     24  N         -6.3940   21.9030  106.5430 N.3   212  TRP212     -0.1241
     25  CA        -5.4030   22.8930  106.8770 C.3   212  TRP212      0.1605
     26  C         -5.7680   24.2730  106.3720 C.2   212  TRP212      0.2264
     27  O         -5.6310   25.2620  107.1030 O.2   212  TRP212     -0.2867
     28  CB        -4.0850   22.5470  106.2310 C.3   212  TRP212      0.0550
     29  CG        -2.9830   23.6280  106.4410 C.ar  212  TRP212      0.0003
     30  CD1       -2.2150   23.8020  107.5640 C.ar  212  TRP212      0.0946
     31  CD2       -2.5660   24.6520  105.5190 C.ar  212  TRP212      0.0152
     32  NE1       -1.3640   24.8550  107.3950 N.ar  212  TRP212     -0.2442
     33  CE2       -1.5480   25.3910  106.1500 C.ar  212  TRP212      0.0810
     34  CE3       -2.9760   25.0330  104.2160 C.ar  212  TRP212      0.0012
     35  CZ2       -0.9010   26.4960  105.5240 C.ar  212  TRP212      0.0191
     36  CZ3       -2.3440   26.1390  103.5940 C.ar  212  TRP212      0.0001
     37  CH2       -1.3250   26.8600  104.2550 C.ar  212  TRP212      0.0015
     38  N         -6.0410   27.6060  108.7900 N.3   216  ARG216     -0.1231
     39  CA        -5.2050   28.7530  108.5820 C.3   216  ARG216      0.1694
     40  C         -5.9970   30.0080  108.1650 C.2   216  ARG216      0.2591
     41  O         -5.8450   31.1360  108.6870 O.2   216  ARG216     -0.2718
     42  CB        -4.2380   28.4290  107.4740 C.3   216  ARG216      0.0321
     43  CG        -3.0880   29.4170  107.3420 C.3   216  ARG216      0.0489
     44  CD        -1.7430   28.8620  107.8280 C.3   216  ARG216      0.2205
     45  NE        -1.6300   28.5230  109.2650 N.pl3 216  ARG216     -0.0865
     46  CZ        -0.7220   29.0820  110.0640 C.cat 216  ARG216      0.5346
     47  NH1        0.1130   30.0160  109.5700 N.pl3 216  ARG216      0.1354
     48  NH2       -0.6550   28.7280  111.3410 N.pl3 216  ARG216      0.1354
     49  N         -6.8620   29.8230  107.1980 N.am  217  LEU217     -0.1980
     50  CA        -7.5260   30.9800  106.7050 C.3   217  LEU217      0.1596
     51  C         -8.4680   31.5650  107.7360 C.2   217  LEU217      0.2287
     52  O         -8.5310   32.7660  107.8380 O.2   217  LEU217     -0.2864
     53  CB        -8.2830   30.6230  105.4650 C.3   217  LEU217      0.0297
     54  CG        -7.4170   30.4600  104.2370 C.3   217  LEU217      0.0022
     55  CD1       -8.2580   29.7270  103.2200 C.3   217  LEU217      0.0001
     56  CD2       -7.0630   31.7880  103.6420 C.3   217  LEU217      0.0001
     57  N         -6.8030   33.6550  110.2230 N.3   220  LYS220     -0.1231
     58  CA        -6.1680   34.8620  109.7300 C.3   220  LYS220      0.1693
     59  C         -7.2050   35.8730  109.3730 C.2   220  LYS220      0.2592
     60  O         -6.9520   37.0530  109.4540 O.2   220  LYS220     -0.2718
     61  CB        -5.3380   34.5760  108.4930 C.3   220  LYS220      0.0285
     62  CG        -3.9510   35.2020  108.5160 C.3   220  LYS220      0.0035
     63  CD        -2.9420   34.3540  107.7250 C.3   220  LYS220      0.0206
     64  CE        -1.4890   34.8020  107.9460 C.3   220  LYS220      0.1093
     65  NZ        -0.9780   34.7600  109.3460 N.3   220  LYS220     -0.1314
     66  N         -8.3710   35.4000  108.9580 N.am  221  PHE221     -0.1976
     67  CA        -9.4460   36.2620  108.4730 C.3   221  PHE221      0.1639
     68  C        -10.7440   35.8610  109.1380 C.2   221  PHE221      0.2290
     69  O        -11.6690   35.3870  108.4850 O.2   221  PHE221     -0.2864
     70  CB        -9.6900   36.1440  106.9740 C.3   221  PHE221      0.0560
     71  CG        -8.4880   36.2970  106.1210 C.ar  221  PHE221     -0.0200
     72  CD1       -7.5920   37.3070  106.3210 C.ar  221  PHE221     -0.0042
     73  CD2       -8.2840   35.4150  105.0310 C.ar  221  PHE221     -0.0042
     74  CE1       -6.4770   37.4400  105.4870 C.ar  221  PHE221     -0.0003
     75  CE2       -7.1840   35.5520  104.1640 C.ar  221  PHE221     -0.0003
     76  CZ        -6.2760   36.5830  104.3970 C.ar  221  PHE221     -0.0000
     77  N         -6.8800   28.0320   97.5180 N.3   236  LEU236     -0.1245
     78  CA        -5.5770   27.8050   98.2040 C.3   236  LEU236      0.1561
     79  C         -5.1660   26.3700   98.1790 C.2   236  LEU236      0.2260
     80  O         -4.0250   26.0480   98.0050 O.2   236  LEU236     -0.2867
     81  CB        -5.6380   28.2890   99.6280 C.3   236  LEU236      0.0270
     82  CG        -4.2890   28.2110  100.3880 C.3   236  LEU236      0.0019
     83  CD1       -3.1370   28.8050   99.5660 C.3   236  LEU236      0.0001
     84  CD2       -4.3640   28.8510  101.7640 C.3   236  LEU236      0.0001
     85  N         -1.7250   24.6460   96.2910 N.3   240  HIS240     -0.1241
     86  CA        -0.8080   23.7230   96.9390 C.3   240  HIS240      0.1621
     87  C         -0.8820   22.3450   96.3510 C.2   240  HIS240      0.2264
     88  O          0.1280   21.6370   96.2590 O.2   240  HIS240     -0.2867
     89  CB        -1.0820   23.6790   98.4230 C.3   240  HIS240      0.0745
     90  CG        -0.5330   24.8580   99.1350 C.ar  240  HIS240      0.0817
     91  ND1        0.7990   25.2130   99.0630 N.ar  240  HIS240     -0.2268
     92  CD2       -1.1280   25.8040   99.8810 C.ar  240  HIS240      0.1154
     93  CE1        1.0100   26.3000   99.7820 C.ar  240  HIS240      0.1986
     94  NE2       -0.1540   26.6910  100.2650 N.ar  240  HIS240     -0.2212
     95  N         -1.7380   31.0380   92.1370 N.3   255  ARG255     -0.1245
     96  CA        -1.3990   31.7510   93.3160 C.3   255  ARG255      0.1563
     97  C         -1.4830   33.2640   93.0490 C.2   255  ARG255      0.2260
     98  O         -2.1430   34.0080   93.8170 O.2   255  ARG255     -0.2867
     99  CB        -0.0140   31.3830   93.7550 C.3   255  ARG255      0.0307
    100  CG         0.3720   31.9840   95.0920 C.3   255  ARG255      0.0489
    101  CD         1.8880   31.8620   95.3590 C.3   255  ARG255      0.2205
    102  NE         2.1240   32.0920   96.7620 N.pl3 255  ARG255     -0.0865
    103  CZ         3.0970   32.8280   97.2860 C.cat 255  ARG255      0.5346
    104  NH1        3.9970   33.4410   96.4920 N.pl3 255  ARG255      0.1354
    105  NH2        3.1560   32.9260   98.6240 N.pl3 255  ARG255      0.1354
    106  N         -4.8710   34.2070   93.0640 N.3   258  LEU258     -0.1245
    107  CA        -5.6070   34.2580   94.3240 C.3   258  LEU258      0.1561
    108  C         -5.2340   35.5070   95.1070 C.2   258  LEU258      0.2260
    109  O         -6.0750   36.1230   95.7600 O.2   258  LEU258     -0.2867
    110  CB        -5.4420   32.9670   95.1140 C.3   258  LEU258      0.0270
    111  CG        -5.7530   33.0030   96.6250 C.3   258  LEU258      0.0019
    112  CD1       -7.2420   32.8430   96.8730 C.3   258  LEU258      0.0001
    113  CD2       -4.9430   31.9860   97.4580 C.3   258  LEU258      0.0001
    114  N          2.0350   38.3410   97.5920 N.3   285  SER285     -0.1217
    115  CA         1.5210   37.0550   98.0630 C.3   285  SER285      0.1889
    116  C          2.2240   36.6660   99.3580 C.2   285  SER285      0.2288
    117  O          1.6490   36.0260  100.2270 O.2   285  SER285     -0.2866
    118  CB         1.7870   35.9320   97.0370 C.3   285  SER285      0.2089
    119  OG         1.0500   36.0900   95.8310 O.3   285  SER285     -0.2183
    120  N          0.7850   38.8290  102.0950 N.3   288  ILE288     -0.1231
    121  CA        -0.4980   38.2260  102.4410 C.3   288  ILE288      0.1692
    122  C         -0.2670   37.0170  103.2910 C.2   288  ILE288      0.2591
    123  O         -0.8710   36.9420  104.3620 O.2   288  ILE288     -0.2718
    124  CB        -1.3740   37.8110  101.2430 C.3   288  ILE288      0.0266
    125  CG1       -1.9400   39.0350  100.5260 C.3   288  ILE288      0.0019
    126  CG2       -2.5630   36.9710  101.7160 C.3   288  ILE288      0.0020
    127  CD1       -2.3460   38.7460   99.0990 C.3   288  ILE288      0.0001
    128  N          0.5810   36.0860  102.8280 N.am  289  ALA289     -0.1980
    129  CA         0.8920   34.8740  103.5990 C.3   289  ALA289      0.1597
    130  C          1.2890   35.2370  105.0450 C.2   289  ALA289      0.2287
    131  O          0.9720   34.4960  105.9630 O.2   289  ALA289     -0.2864
    132  CB         2.0080   34.1010  102.9490 C.3   289  ALA289      0.0319
@<TRIPOS>BOND
     1    95    96    1
     2    97    96    1
     3    97    98    2
     4   106   107    1
     5    96    99    1
     6    99   100    1
     7   107   108    1
     8   107   110    1
     9   100   101    1
    10   108   109    2
    11   110   111    1
    12   101   102    1
    13   119   118    1
    14    88    87    2
    15     3     4    2
    16     3     2    1
    17    85    86    1
    18    87    86    1
    19   104   103    1
    20   111   112    1
    21   111   113    1
    22   102   103    2
    23     9     7   ar
    24     9    11   ar
    25    86    89    1
    26   118   115    1
    27     7     6   ar
    28   103   105    1
    29     2     1    1
    30     2     5    1
    31    77    78    1
    32   114   115    1
    33    12    11    1
    34    11    10   ar
    35    80    79    2
    36   115   116    1
    37     6     5    1
    38     6     8   ar
    39    79    78    1
    40    78    81    1
    41    89    90    1
    42    10     8   ar
    43    91    90   ar
    44    91    93   ar
    45   127   125    1
    46    90    92   ar
    47   116   117    2
    48    83    82    1
    49    81    82    1
    50    93    94   ar
    51    92    94   ar
    52    82    84    1
    53   125   124    1
    54   124   126    1
    55   124   121    1
    56    16    15    2
    57   120   121    1
    58    15    14    1
    59   121   122    1
    60    20    19    1
    61    20    21    2
    62    17    14    1
    63    17    18    1
    64   128   122   am
    65   128   129    1
    66    23    21    1
    67    19    18    1
    68   132   129    1
    69    55    54    1
    70    14    13    1
    71   122   123    2
    72    21    22    1
    73    36    34   ar
    74    36    37   ar
    75   129   130    1
    76    56    54    1
    77    75    76   ar
    78    75    73   ar
    79    34    31   ar
    80    54    53    1
    81    37    35   ar
    82    76    74   ar
    83    73    71   ar
    84   130   131    2
    85    53    50    1
    86    74    72   ar
    87    31    33   ar
    88    31    29   ar
    89    35    33   ar
    90    71    72   ar
    91    71    70    1
    92    33    32   ar
    93    28    29    1
    94    28    25    1
    95    26    25    1
    96    26    27    2
    97    29    30   ar
    98    24    25    1
    99    50    49    1
   100    50    51    1
   101    70    67    1
   102    49    40   am
   103    43    42    1
   104    43    44    1
   105    32    30   ar
   106    42    39    1
   107    63    64    1
   108    63    62    1
   109    51    52    2
   110    44    45    1
   111    64    65    1
   112    40    39    1
   113    40    41    2
   114    67    66    1
   115    67    68    1
   116    69    68    2
   117    61    62    1
   118    61    58    1
   119    39    38    1
   120    66    59   am
   121    45    46    2
   122    59    60    2
   123    59    58    1
   124    47    46    1
   125    58    57    1
   126    46    48    1
