@<TRIPOS>MOLECULE
tmp/4or2B02.pdb
 206 193 0 0 0
SMALL
GASTEIGER

@<TRIPOS>ATOM
      1  N         12.3150    9.9410   30.1430 N.3   173  LEU173     -0.1245
      2  CA        12.9460   11.0260   29.4070 C.3   173  LEU173      0.1561
      3  C         14.0110   10.5400   28.4350 C.2   173  LEU173      0.2260
      4  O         14.1250   11.1060   27.3500 O.2   173  LEU173     -0.2867
      5  CB        13.5670   12.0210   30.4010 C.3   173  LEU173      0.0270
      6  CG        12.5920   12.8870   31.1890 C.3   173  LEU173      0.0019
      7  CD1       13.1970   13.3220   32.4880 C.3   173  LEU173      0.0001
      8  CD2       12.1710   14.0870   30.3940 C.3   173  LEU173      0.0001
      9  N          6.4270   11.2660   31.0970 N.3   185  GLN185     -0.1231
     10  CA         7.4150   12.2790   31.5020 C.3   185  GLN185      0.1698
     11  C          6.7240   13.5940   31.9500 C.2   185  GLN185      0.2592
     12  O          7.1390   14.1900   32.9370 O.2   185  GLN185     -0.2718
     13  CB         8.4520   12.5630   30.3910 C.3   185  GLN185      0.0381
     14  CG         7.9090   13.3330   29.1870 C.3   185  GLN185      0.0905
     15  CD         8.8880   13.4900   28.0740 C.2   185  GLN185      0.2608
     16  OE1        9.4400   12.5180   27.5680 O.2   185  GLN185     -0.2717
     17  NE2        9.0540   14.7150   27.6060 N.am  185  GLN185     -0.0878
     18  N          5.6560   14.0120   31.2480 N.am  186  ARG186     -0.1980
     19  CA         4.9100   15.2310   31.5640 C.3   186  ARG186      0.1597
     20  C          4.2130   15.0830   32.9120 C.2   186  ARG186      0.2287
     21  O          4.2330   16.0080   33.7250 O.2   186  ARG186     -0.2864
     22  CB         3.8980   15.5470   30.4510 C.3   186  ARG186      0.0334
     23  CG         4.5580   16.0950   29.1850 C.3   186  ARG186      0.0492
     24  CD         3.6230   16.1100   27.9930 C.3   186  ARG186      0.2205
     25  NE         2.5270   17.0470   28.1990 N.pl3 186  ARG186     -0.0865
     26  CZ         1.7610   17.5320   27.2370 C.cat 186  ARG186      0.5346
     27  NH1        1.9640   17.1740   25.9730 N.pl3 186  ARG186      0.1354
     28  NH2        0.7920   18.3880   27.5250 N.pl3 186  ARG186      0.1354
     29  N          7.3390   14.2070   35.7060 N.3   189  VAL189     -0.1231
     30  CA         8.2150   15.3580   35.9840 C.3   189  VAL189      0.1692
     31  C          7.4470   16.4330   36.7760 C.2   189  VAL189      0.2592
     32  O          7.9620   16.9210   37.7860 O.2   189  VAL189     -0.2718
     33  CB         8.8910   15.9350   34.7190 C.3   189  VAL189      0.0266
     34  CG1        9.6290   17.2200   35.0380 C.3   189  VAL189      0.0020
     35  CG2        9.8560   14.9200   34.1000 C.3   189  VAL189      0.0020
     36  N          6.2270   16.7480   36.3420 N.am  190  GLY190     -0.1957
     37  CA         5.3720   17.7240   37.0060 C.3   190  GLY190      0.1869
     38  C          4.9470   17.3200   38.4080 C.2   190  GLY190      0.2309
     39  O          5.1090   18.0950   39.3510 O.2   190  GLY190     -0.2863
     40  N          7.9540   16.4610   41.6490 N.3   193  SER193     -0.1217
     41  CA         8.3990   17.6640   42.3480 C.3   193  SER193      0.1889
     42  C          7.2530   18.2960   43.1550 C.2   193  SER193      0.2288
     43  O          7.4530   18.6620   44.3140 O.2   193  SER193     -0.2866
     44  CB         8.9780   18.6700   41.3550 C.3   193  SER193      0.2089
     45  OG         9.9960   18.1040   40.5370 O.3   193  SER193     -0.2183
     46  N          7.2400   19.2040   47.2440 N.3   197  TYR197     -0.1241
     47  CA         7.0810   20.5720   47.7330 C.3   197  TYR197      0.1605
     48  C          5.6640   20.8920   48.2350 C.2   197  TYR197      0.2264
     49  O          5.5340   21.8340   49.0230 O.2   197  TYR197     -0.2867
     50  CB         7.5770   21.5700   46.6890 C.3   197  TYR197      0.0534
     51  CG         8.9620   21.2000   46.1870 C.ar  197  TYR197     -0.0201
     52  CD1       10.0280   21.0330   47.0730 C.ar  197  TYR197     -0.0009
     53  CD2        9.1940   20.9490   44.8360 C.ar  197  TYR197     -0.0009
     54  CE1       11.2820   20.6180   46.6280 C.ar  197  TYR197      0.0417
     55  CE2       10.4550   20.5590   44.3780 C.ar  197  TYR197      0.0417
     56  CZ        11.4920   20.3900   45.2800 C.ar  197  TYR197      0.1957
     57  OH        12.7360   20.0100   44.8450 O.3   197  TYR197     -0.2866
     58  N          9.7010   14.7840   22.0780 N.3   266  CYS266     -0.1235
     59  CA         8.2960   14.9060   22.4730 C.3   266  CYS266      0.1677
     60  C          7.7670   16.3060   22.0900 C.2   266  CYS266      0.2270
     61  O          8.5130   17.2880   22.1570 O.2   266  CYS266     -0.2867
     62  CB         8.1160   14.6030   23.9550 C.3   266  CYS266      0.0956
     63  SG         8.3420   12.8470   24.3630 S.3   266  CYS266     -0.0801
     64  N          5.9470   18.4110   23.5370 N.3   268  THR268     -0.1218
     65  CA         5.6770   19.2720   24.6950 C.3   268  THR268      0.1862
     66  C          6.0050   20.7580   24.3650 C.2   268  THR268      0.2287
     67  O          7.1310   21.0770   23.9800 O.2   268  THR268     -0.2866
     68  CB         6.4540   18.7700   25.9320 C.3   268  THR268      0.1770
     69  OG1        6.3280   17.3440   26.0410 O.3   268  THR268     -0.2211
     70  CG2        5.9990   19.4540   27.2340 C.3   268  THR268      0.0375
     71  N          3.4210   23.8270   28.1910 N.3   272  GLY272     -0.1210
     72  CA         3.4400   22.4970   28.7860 C.3   272  GLY272      0.1956
     73  C          4.5230   22.3160   29.8300 C.2   272  GLY272      0.2611
     74  O          4.4110   21.4140   30.6630 O.2   272  GLY272     -0.2717
     75  N          5.5790   23.1700   29.7880 N.am  273  VAL273     -0.1979
     76  CA         6.7130   23.1710   30.7210 C.3   273  VAL273      0.1595
     77  C          6.5810   24.3390   31.7270 C.2   273  VAL273      0.2287
     78  O          6.6850   24.1130   32.9300 O.2   273  VAL273     -0.2864
     79  CB         8.0870   23.2160   29.9850 C.3   273  VAL273      0.0276
     80  CG1        9.2600   23.3210   30.9680 C.3   273  VAL273      0.0022
     81  CG2        8.2600   22.0080   29.0680 C.3   273  VAL273      0.0022
     82  N          3.4300   23.9480   34.6280 N.3   276  PRO276     -0.2102
     83  CA         3.7720   23.1430   35.8200 C.3   276  PRO276      0.1504
     84  C          5.0770   23.5570   36.5300 C.2   276  PRO276      0.2575
     85  O          5.1800   23.3390   37.7390 O.2   276  PRO276     -0.2718
     86  CB         3.8940   21.7270   35.2670 C.3   276  PRO276      0.0282
     87  CG         4.2000   21.9070   33.8370 C.3   276  PRO276      0.0208
     88  CD         3.4270   23.1070   33.4130 C.3   276  PRO276      0.0893
     89  N          6.0640   24.1390   35.7990 N.am  277  LEU277     -0.1980
     90  CA         7.3410   24.5900   36.3720 C.3   277  LEU277      0.1596
     91  C          7.1030   25.7900   37.2890 C.2   277  LEU277      0.2287
     92  O          7.6730   25.8450   38.3840 O.2   277  LEU277     -0.2864
     93  CB         8.3560   24.9220   35.2560 C.3   277  LEU277      0.0297
     94  CG         9.6340   25.7010   35.5920 C.3   277  LEU277      0.0022
     95  CD1       10.6960   24.8040   36.1460 C.3   277  LEU277      0.0001
     96  CD2       10.1850   26.3800   34.3600 C.3   277  LEU277      0.0001
     97  N          5.4900   24.5690   40.4610 N.3   280  ASN280     -0.1240
     98  CA         6.5100   23.9620   41.3100 C.3   280  ASN280      0.1653
     99  C          7.3670   25.0600   41.9350 C.2   280  ASN280      0.2266
    100  O          7.6360   24.9970   43.1330 O.2   280  ASN280     -0.2867
    101  CB         7.3520   22.9700   40.5380 C.3   280  ASN280      0.1155
    102  CG         6.7110   21.6030   40.3520 C.2   280  ASN280      0.2627
    103  OD1        5.6040   21.3040   40.8200 O.2   280  ASN280     -0.2716
    104  ND2        7.4100   20.7170   39.6830 N.am  280  ASN280     -0.0877
    105  N          8.1900   25.8810   45.8040 N.3   284  ILE284     -0.1245
    106  CA         9.6150   26.0330   46.1860 C.3   284  ILE284      0.1561
    107  C          9.8370   27.4100   46.8590 C.2   284  ILE284      0.2260
    108  O         10.5530   27.4850   47.8540 O.2   284  ILE284     -0.2867
    109  CB        10.5610   25.8190   44.9490 C.3   284  ILE284      0.0252
    110  CG1       10.5410   24.3390   44.4960 C.3   284  ILE284      0.0019
    111  CG2       11.9930   26.2790   45.2180 C.3   284  ILE284      0.0019
    112  CD1       10.8900   24.0620   43.0430 C.3   284  ILE284      0.0001
    113  N         17.4720   23.8880   46.1530 N.3   314  THR314     -0.1218
    114  CA        16.3630   23.7010   45.2240 C.3   314  THR314      0.1862
    115  C         16.1000   24.9930   44.4720 C.2   314  THR314      0.2287
    116  O         15.9040   24.9510   43.2610 O.2   314  THR314     -0.2866
    117  CB        15.1300   23.2170   45.9730 C.3   314  THR314      0.1770
    118  OG1       15.4520   21.9780   46.6030 O.3   314  THR314     -0.2211
    119  CG2       13.9460   23.0170   45.0630 C.3   314  THR314      0.0375
    120  N         18.7840   25.3240   41.8970 N.3   317  ILE317     -0.1231
    121  CA        18.5610   24.3180   40.8440 C.3   317  ILE317      0.1692
    122  C         17.4810   24.8240   39.8870 C.2   317  ILE317      0.2592
    123  O         17.6840   24.7890   38.6750 O.2   317  ILE317     -0.2718
    124  CB        18.2230   22.9080   41.4350 C.3   317  ILE317      0.0266
    125  CG1       19.4200   22.3400   42.2130 C.3   317  ILE317      0.0019
    126  CG2       17.7920   21.9180   40.3420 C.3   317  ILE317      0.0020
    127  CD1       19.0560   21.2880   43.2480 C.3   317  ILE317      0.0001
    128  N         16.3640   25.3310   40.4460 N.am  318  TRP318     -0.1976
    129  CA        15.2150   25.8540   39.7030 C.3   318  TRP318      0.1640
    130  C         15.6300   27.0740   38.9000 C.2   318  TRP318      0.2290
    131  O         15.3950   27.1110   37.6920 O.2   318  TRP318     -0.2864
    132  CB        14.0530   26.1850   40.6630 C.3   318  TRP318      0.0576
    133  CG        12.7310   26.4550   39.9970 C.ar  318  TRP318      0.0006
    134  CD1       11.6950   25.5800   39.8570 C.ar  318  TRP318      0.0946
    135  CD2       12.2770   27.7030   39.4560 C.ar  318  TRP318      0.0152
    136  NE1       10.6390   26.1910   39.2290 N.ar  318  TRP318     -0.2442
    137  CE2       10.9610   27.5000   38.9840 C.ar  318  TRP318      0.0810
    138  CE3       12.8550   28.9800   39.3210 C.ar  318  TRP318      0.0012
    139  CZ2       10.2070   28.5270   38.3920 C.ar  318  TRP318      0.0191
    140  CZ3       12.1200   29.9900   38.7090 C.ar  318  TRP318      0.0001
    141  CH2       10.8090   29.7640   38.2630 C.ar  318  TRP318      0.0015
    142  N         17.8100   26.0210   36.1300 N.3   321  PHE321     -0.1241
    143  CA        17.0470   25.2480   35.1490 C.3   321  PHE321      0.1605
    144  C         16.4150   26.1390   34.0740 C.2   321  PHE321      0.2264
    145  O         16.4610   25.7700   32.9080 O.2   321  PHE321     -0.2867
    146  CB        15.9610   24.3910   35.8330 C.3   321  PHE321      0.0534
    147  CG        15.0290   23.6540   34.8920 C.ar  321  PHE321     -0.0203
    148  CD1       15.3870   22.4260   34.3510 C.ar  321  PHE321     -0.0042
    149  CD2       13.7920   24.1930   34.5440 C.ar  321  PHE321     -0.0042
    150  CE1       14.5310   21.7450   33.4780 C.ar  321  PHE321     -0.0003
    151  CE2       12.9330   23.5100   33.6710 C.ar  321  PHE321     -0.0003
    152  CZ        13.3080   22.2890   33.1490 C.ar  321  PHE321     -0.0000
    153  N         17.4090   25.3300   30.4210 N.3   325  TYR325     -0.1241
    154  CA        16.3750   24.6910   29.6250 C.3   325  TYR325      0.1605
    155  C         15.9290   25.5840   28.4570 C.2   325  TYR325      0.2264
    156  O         15.8250   25.0900   27.3370 O.2   325  TYR325     -0.2867
    157  CB        15.1600   24.2700   30.4870 C.3   325  TYR325      0.0534
    158  CG        14.0670   23.5870   29.6950 C.ar  325  TYR325     -0.0201
    159  CD1       14.0310   22.2010   29.5670 C.ar  325  TYR325     -0.0009
    160  CD2       13.0860   24.3300   29.0420 C.ar  325  TYR325     -0.0009
    161  CE1       13.0330   21.5690   28.8250 C.ar  325  TYR325      0.0417
    162  CE2       12.1230   23.7150   28.2480 C.ar  325  TYR325      0.0417
    163  CZ        12.0980   22.3340   28.1430 C.ar  325  TYR325      0.1957
    164  OH        11.1230   21.7450   27.3750 O.3   325  TYR325     -0.2866
    165  N         17.7270   20.1860   26.6660 N.3   331  LYS331     -0.1231
    166  CA        16.4420   20.1290   27.3610 C.3   331  LYS331      0.1693
    167  C         16.1190   18.7820   28.0460 C.2   331  LYS331      0.2591
    168  O         15.6010   18.8060   29.1590 O.2   331  LYS331     -0.2718
    169  CB        15.3240   20.5250   26.3960 C.3   331  LYS331      0.0285
    170  CG        15.3550   22.0130   26.1030 C.3   331  LYS331      0.0035
    171  CD        14.2650   22.4410   25.1430 C.3   331  LYS331      0.0206
    172  CE        14.3520   23.9020   24.7560 C.3   331  LYS331      0.1093
    173  NZ        15.5980   24.1990   23.9990 N.3   331  LYS331     -0.1314
    174  N         16.4200   17.6350   27.4200 N.am  332  ILE332     -0.1980
    175  CA        16.1060   16.3340   28.0050 C.3   332  ILE332      0.1595
    176  C         17.0320   16.0490   29.1820 C.2   332  ILE332      0.2287
    177  O         16.5330   15.7750   30.2750 O.2   332  ILE332     -0.2864
    178  CB        16.0850   15.1700   26.9730 C.3   332  ILE332      0.0276
    179  CG1       15.0060   15.4230   25.8850 C.3   332  ILE332      0.0022
    180  CG2       15.8190   13.8340   27.6780 C.3   332  ILE332      0.0022
    181  CD1       15.1230   14.5770   24.6040 C.3   332  ILE332      0.0001
    182  N         16.3570   18.4840   32.1850 N.3   335  THR335     -0.1218
    183  CA        15.1840   18.0490   32.9470 C.3   335  THR335      0.1862
    184  C         15.6000   16.8600   33.8500 C.2   335  THR335      0.2287
    185  O         15.3770   16.9130   35.0610 O.2   335  THR335     -0.2866
    186  CB        14.0010   17.7150   32.0090 C.3   335  THR335      0.1770
    187  OG1       13.6770   18.8530   31.2050 O.3   335  THR335     -0.2211
    188  CG2       12.7570   17.2760   32.7740 C.3   335  THR335      0.0375
    189  N         17.8140   18.1800   36.6180 N.3   338  ALA338     -0.1231
    190  CA        17.1060   19.1090   37.5020 C.3   338  ALA338      0.1694
    191  C         16.2160   18.3320   38.4800 C.2   338  ALA338      0.2591
    192  O         16.2490   18.5960   39.6760 O.2   338  ALA338     -0.2718
    193  CB        16.2740   20.0810   36.6960 C.3   338  ALA338      0.0304
    194  N         15.5040   17.3140   37.9750 N.am  339  VAL339     -0.1980
    195  CA        14.6240   16.4610   38.7680 C.3   339  VAL339      0.1595
    196  C         15.4730   15.5750   39.7060 C.2   339  VAL339      0.2287
    197  O         15.2880   15.6750   40.9190 O.2   339  VAL339     -0.2864
    198  CB        13.6430   15.6230   37.9040 C.3   339  VAL339      0.0276
    199  CG1       12.7650   14.7510   38.7770 C.3   339  VAL339      0.0022
    200  CG2       12.7870   16.5120   37.0130 C.3   339  VAL339      0.0022
    201  N         17.4860   17.7820   42.4160 N.3   342  SER342     -0.1217
    202  CA        16.5880   18.4140   43.3920 C.3   342  SER342      0.1889
    203  C         16.0110   17.4120   44.3930 C.2   342  SER342      0.2288
    204  O         15.8700   17.7350   45.5730 O.2   342  SER342     -0.2866
    205  CB        15.4620   19.1490   42.6850 C.3   342  SER342      0.2089
    206  OG        14.8790   18.2650   41.7470 O.3   342  SER342     -0.2183
@<TRIPOS>BOND
     1    58    59    1
     2    60    61    2
     3    60    59    1
     4    59    62    1
     5    64    65    1
     6    62    63    1
     7    67    66    2
     8   173   172    1
     9    66    65    1
    10   181   179    1
    11    65    68    1
    12   172   171    1
    13   171   170    1
    14   179   178    1
    15    68    69    1
    16    68    70    1
    17    27    26    1
    18   170   169    1
    19   169   166    1
    20   165   166    1
    21   178   180    1
    22   178   175    1
    23    26    28    1
    24    26    25    2
    25   156   155    2
    26     4     3    2
    27   166   167    1
    28   164   163    1
    29   174   175    1
    30   174   167   am
    31    16    15    2
    32    17    15   am
    33    24    25    1
    34    24    23    1
    35   175   176    1
    36   167   168    2
    37    15    14    1
    38   163   162   ar
    39   163   161   ar
    40    71    72    1
    41   162   160   ar
    42     3     2    1
    43   155   154    1
    44    72    73    1
    45   161   159   ar
    46   160   158   ar
    47    81    79    1
    48   176   177    2
    49    23    22    1
    50    14    13    1
    51     2     1    1
    52     2     5    1
    53   159   158   ar
    54   154   153    1
    55   154   157    1
    56   158   157    1
    57    75    73   am
    58    75    76    1
    59    73    74    2
    60    79    76    1
    61    79    80    1
    62    13    10    1
    63     8     6    1
    64     5     6    1
    65    22    19    1
    66    76    77    1
    67     9    10    1
    68     6     7    1
    69   187   186    1
    70    18    19    1
    71    18    11   am
    72    10    11    1
    73    19    20    1
    74    77    78    2
    75    11    12    2
    76   186   188    1
    77   186   183    1
    78   182   183    1
    79   145   144    2
    80    20    21    2
    81   183   184    1
    82   152   150   ar
    83   152   151   ar
    84    88    87    1
    85    88    82    1
    86   150   148   ar
    87   151   149   ar
    88    87    86    1
    89   184   185    2
    90   144   143    1
    91    35    33    1
    92   148   147   ar
    93    96    94    1
    94   149   147   ar
    95    82    83    1
    96    33    34    1
    97    33    30    1
    98   147   146    1
    99   143   146    1
   100   143   142    1
   101    93    94    1
   102    93    90    1
   103    86    83    1
   104    94    95    1
   105    29    30    1
   106    89    90    1
   107    89    84   am
   108    83    84    1
   109    30    31    1
   110    36    31   am
   111    36    37    1
   112    90    91    1
   113    84    85    2
   114   189   190    1
   115   193   190    1
   116    31    32    2
   117    37    38    1
   118   200   198    1
   119    91    92    2
   120   190   191    1
   121   131   130    2
   122   198   195    1
   123   198   199    1
   124   194   191   am
   125   194   195    1
   126   141   139   ar
   127   141   140   ar
   128   139   137   ar
   129    38    39    2
   130   191   192    2
   131   123   122    2
   132   140   138   ar
   133   195   196    1
   134   130   129    1
   135   137   136   ar
   136   137   135   ar
   137   136   134   ar
   138   138   135   ar
   139   135   133   ar
   140   104   102   am
   141   129   128    1
   142   129   132    1
   143   196   197    2
   144   134   133   ar
   145   122   128   am
   146   122   121    1
   147   133   132    1
   148   126   124    1
   149   102   101    1
   150   102   103    2
   151    97    98    1
   152    45    44    1
   153   101    98    1
   154   121   124    1
   155   121   120    1
   156    98    99    1
   157    44    41    1
   158   124   125    1
   159    40    41    1
   160   206   205    1
   161    99   100    2
   162   125   127    1
   163    41    42    1
   164   201   202    1
   165   205   202    1
   166   112   110    1
   167    42    43    2
   168   116   115    2
   169   202   203    1
   170    55    53   ar
   171    55    56   ar
   172   203   204    2
   173   115   114    1
   174   110   109    1
   175    53    51   ar
   176    57    56    1
   177   109   111    1
   178   109   106    1
   179   119   117    1
   180   114   117    1
   181   114   113    1
   182    56    54   ar
   183   105   106    1
   184   117   118    1
   185   106   107    1
   186    51    50    1
   187    51    52   ar
   188    54    52   ar
   189    50    47    1
   190   107   108    2
   191    46    47    1
   192    47    48    1
   193    48    49    2
