@<TRIPOS>MOLECULE
tmp/4or2A05.pdb
 93 88 0 0 0
SMALL
GASTEIGER

@<TRIPOS>ATOM
      1  N         13.6090  -28.8980   38.7630 N.3   314  ILE314     -0.1245
      2  CA        13.9320  -27.7810   37.8660 C.3   314  ILE314      0.1561
      3  C         15.1670  -28.1450   37.0300 C.2   314  ILE314      0.2260
      4  O         15.1390  -27.9680   35.8120 O.2   314  ILE314     -0.2867
      5  CB        14.1210  -26.4430   38.6340 C.3   314  ILE314      0.0252
      6  CG1       12.8070  -25.9930   39.2870 C.3   314  ILE314      0.0019
      7  CG2       14.6810  -25.3240   37.7200 C.3   314  ILE314      0.0019
      8  CD1       12.9890  -25.0520   40.4710 C.3   314  ILE314      0.0001
      9  N         14.4200  -31.0280   34.6640 N.3   317  ALA317     -0.1231
     10  CA        13.5990  -30.5530   33.5580 C.3   317  ALA317      0.1694
     11  C         14.4270  -29.6830   32.6220 C.2   317  ALA317      0.2592
     12  O         14.2220  -29.7430   31.4140 O.2   317  ALA317     -0.2718
     13  CB        12.3970  -29.7820   34.0720 C.3   317  ALA317      0.0304
     14  N         15.3890  -28.9160   33.1630 N.am  318  PHE318     -0.1976
     15  CA        16.2480  -28.0200   32.3810 C.3   318  PHE318      0.1639
     16  C         17.0340  -28.7660   31.3050 C.2   318  PHE318      0.2290
     17  O         17.1230  -28.2630   30.1910 O.2   318  PHE318     -0.2864
     18  CB        17.2120  -27.2240   33.2870 C.3   318  PHE318      0.0560
     19  CG        18.2260  -26.3660   32.5540 C.ar  318  PHE318     -0.0200
     20  CD1       17.8980  -25.0900   32.1170 C.ar  318  PHE318     -0.0042
     21  CD2       19.5110  -26.8350   32.3030 C.ar  318  PHE318     -0.0042
     22  CE1       18.8390  -24.3000   31.4400 C.ar  318  PHE318     -0.0003
     23  CE2       20.4480  -26.0430   31.6270 C.ar  318  PHE318     -0.0003
     24  CZ        20.1060  -24.7840   31.2040 C.ar  318  PHE318     -0.0000
     25  N         14.7510  -29.7450   28.2540 N.3   321  ILE321     -0.1245
     26  CA        14.1930  -28.5130   27.6890 C.3   321  ILE321      0.1561
     27  C         15.3180  -27.7220   26.9940 C.2   321  ILE321      0.2260
     28  O         15.1500  -27.3200   25.8410 O.2   321  ILE321     -0.2867
     29  CB        13.4010  -27.6390   28.7100 C.3   321  ILE321      0.0252
     30  CG1       12.2840  -28.4420   29.3940 C.3   321  ILE321      0.0019
     31  CG2       12.7870  -26.4190   28.0000 C.3   321  ILE321      0.0019
     32  CD1       11.7290  -27.8160   30.6670 C.3   321  ILE321      0.0001
     33  N         16.9020  -30.1740   24.1420 N.3   324  GLY324     -0.1210
     34  CA        15.9180  -30.6810   23.1920 C.3   324  GLY324      0.1956
     35  C         15.0070  -29.6640   22.5300 C.2   324  GLY324      0.2612
     36  O         14.1040  -30.0530   21.7850 O.2   324  GLY324     -0.2717
     37  N         15.2150  -28.3620   22.7850 N.am  325  SER325     -0.1952
     38  CA        14.3890  -27.3190   22.1690 C.3   325  SER325      0.1924
     39  C         15.2080  -26.0570   21.8710 C.2   325  SER325      0.2314
     40  O         16.3000  -25.8870   22.4190 O.2   325  SER325     -0.2863
     41  CB        13.1900  -26.9830   23.0560 C.3   325  SER325      0.2116
     42  OG        13.5290  -26.0760   24.0950 O.3   325  SER325     -0.2180
     43  N         14.5760  -23.0040   22.8270 N.3   327  TYR327     -0.1241
     44  CA        14.1350  -22.0190   23.8280 C.3   327  TYR327      0.1605
     45  C         15.2160  -21.8400   24.8880 C.2   327  TYR327      0.2264
     46  O         14.9110  -21.5450   26.0360 O.2   327  TYR327     -0.2867
     47  CB        12.8150  -22.4900   24.4930 C.3   327  TYR327      0.0534
     48  CG        11.5890  -22.3150   23.6340 C.ar  327  TYR327     -0.0201
     49  CD1       10.8280  -21.1520   23.7030 C.ar  327  TYR327     -0.0009
     50  CD2       11.1850  -23.3110   22.7500 C.ar  327  TYR327     -0.0009
     51  CE1        9.6980  -20.9810   22.9090 C.ar  327  TYR327      0.0417
     52  CE2       10.0730  -23.1400   21.9320 C.ar  327  TYR327      0.0417
     53  CZ         9.3320  -21.9710   22.0150 C.ar  327  TYR327      0.1957
     54  OH         8.2260  -21.8030   21.2210 O.3   327  TYR327     -0.2866
     55  N         15.5010  -18.2480   27.1490 N.3   330  ILE330     -0.1231
     56  CA        14.4250  -18.0950   28.1130 C.3   330  ILE330      0.1692
     57  C         14.4230  -19.2720   29.1280 C.2   330  ILE330      0.2592
     58  O         14.1790  -19.0130   30.3060 O.2   330  ILE330     -0.2718
     59  CB        13.0520  -17.8390   27.4260 C.3   330  ILE330      0.0266
     60  CG1       12.1210  -16.9900   28.3130 C.3   330  ILE330      0.0019
     61  CG2       12.3590  -19.1020   26.8890 C.3   330  ILE330      0.0020
     62  CD1       12.5680  -15.4920   28.5250 C.3   330  ILE330      0.0001
     63  N         14.7820  -20.5200   28.7030 N.am  331  THR331     -0.1953
     64  CA        14.8770  -21.6870   29.5960 C.3   331  THR331      0.1897
     65  C         15.9060  -21.3940   30.6830 C.2   331  THR331      0.2313
     66  O         15.5760  -21.5470   31.8560 O.2   331  THR331     -0.2863
     67  CB        15.2060  -22.9870   28.8440 C.3   331  THR331      0.1794
     68  OG1       14.2290  -23.2130   27.8360 O.3   331  THR331     -0.2208
     69  CG2       15.2550  -24.2070   29.7630 C.3   331  THR331      0.0378
     70  N         14.4940  -18.7220   33.1410 N.3   334  PHE334     -0.1227
     71  CA        13.5500  -19.2340   34.1190 C.3   334  PHE334      0.1736
     72  C         14.1340  -20.3450   34.9920 C.2   334  PHE334      0.2595
     73  O         13.7600  -20.4190   36.1500 O.2   334  PHE334     -0.2718
     74  CB        12.2190  -19.6470   33.4820 C.3   334  PHE334      0.0547
     75  CG        11.4020  -18.4110   33.1790 C.ar  334  PHE334     -0.0202
     76  CD1       10.7310  -17.7350   34.1910 C.ar  334  PHE334     -0.0042
     77  CD2       11.3960  -17.8560   31.9030 C.ar  334  PHE334     -0.0042
     78  CE1       10.0360  -16.5530   33.9210 C.ar  334  PHE334     -0.0003
     79  CE2       10.6840  -16.6820   31.6320 C.ar  334  PHE334     -0.0003
     80  CZ        10.0050  -16.0440   32.6400 C.ar  334  PHE334     -0.0000
     81  N         15.0800  -21.1500   34.5040 N.am  335  ALA335     -0.1980
     82  CA        15.6750  -22.1750   35.3610 C.3   335  ALA335      0.1597
     83  C         16.3960  -21.5130   36.5380 C.2   335  ALA335      0.2287
     84  O         16.1990  -21.9240   37.6770 O.2   335  ALA335     -0.2864
     85  CB        16.6380  -23.0480   34.5720 C.3   335  ALA335      0.0319
     86  N         13.5690  -19.2690   38.6710 N.3   338  LEU338     -0.1245
     87  CA        12.6690  -20.1740   39.3980 C.3   338  LEU338      0.1561
     88  C         13.3800  -20.8920   40.5370 C.2   338  LEU338      0.2260
     89  O         12.8610  -20.8920   41.6450 O.2   338  LEU338     -0.2867
     90  CB        11.9780  -21.2180   38.5040 C.3   338  LEU338      0.0270
     91  CG        10.9060  -20.7190   37.5220 C.3   338  LEU338      0.0019
     92  CD1       10.5090  -21.8210   36.5640 C.3   338  LEU338      0.0001
     93  CD2        9.6950  -20.1710   38.2460 C.3   338  LEU338      0.0001
@<TRIPOS>BOND
     1    54    53    1
     2    36    35    2
     3    39    38    1
     4    39    40    2
     5    52    53   ar
     6    52    50   ar
     7    53    51   ar
     8    38    37    1
     9    38    41    1
    10    35    37   am
    11    35    34    1
    12    50    48   ar
    13    43    44    1
    14    51    49   ar
    15    41    42    1
    16    34    33    1
    17    48    49   ar
    18    48    47    1
    19    44    47    1
    20    44    45    1
    21    45    46    2
    22    28    27    2
    23    61    59    1
    24    27    26    1
    25    55    56    1
    26    59    56    1
    27    59    60    1
    28    26    25    1
    29    26    29    1
    30    68    67    1
    31    31    29    1
    32    56    57    1
    33    60    62    1
    34    63    57   am
    35    63    64    1
    36    29    30    1
    37    67    64    1
    38    67    69    1
    39    57    58    2
    40    30    32    1
    41    64    65    1
    42    17    16    2
    43    65    66    2
    44    24    22   ar
    45    24    23   ar
    46    16    15    1
    47    12    11    2
    48    22    20   ar
    49    23    21   ar
    50    79    77   ar
    51    79    80   ar
    52    77    75   ar
    53    20    19   ar
    54    21    19   ar
    55    15    14    1
    56    15    18    1
    57    19    18    1
    58    11    14   am
    59    11    10    1
    60    80    78   ar
    61    70    71    1
    62    75    74    1
    63    75    76   ar
    64    74    71    1
    65    10    13    1
    66    10     9    1
    67    78    76   ar
    68    71    72    1
    69    81    72   am
    70    81    82    1
    71    85    82    1
    72    72    73    2
    73    82    83    1
    74     4     3    2
    75    83    84    2
    76    92    91    1
    77     3     2    1
    78    91    93    1
    79    91    90    1
    80     7     5    1
    81     2     5    1
    82     2     1    1
    83    90    87    1
    84     5     6    1
    85    86    87    1
    86     6     8    1
    87    87    88    1
    88    88    89    2
