@<TRIPOS>MOLECULE
tmp/4or2B05.pdb
 123 116 0 0 0
SMALL
GASTEIGER

@<TRIPOS>ATOM
      1  N          6.7960   -3.0760   19.6120 N.3    55  PRO55      -0.2116
      2  CA         6.0750   -1.7840   19.6500 C.3    55  PRO55       0.1372
      3  C          6.3260   -0.8640   18.4350 C.2    55  PRO55       0.2244
      4  O          5.3710   -0.2640   17.9420 O.2    55  PRO55      -0.2868
      5  CB         6.5770   -1.1430   20.9460 C.3    55  PRO55       0.0268
      6  CG         6.9430   -2.2890   21.8020 C.3    55  PRO55       0.0207
      7  CD         7.5260   -3.3090   20.8750 C.3    55  PRO55       0.0892
      8  N         20.3680    5.4110   25.3290 N.3   113  TRP113     -0.1241
      9  CA        20.7850    4.8950   26.6250 C.3   113  TRP113      0.1605
     10  C         22.3210    4.7040   26.6290 C.2   113  TRP113      0.2264
     11  O         22.9430    4.7890   27.6840 O.2   113  TRP113     -0.2867
     12  CB        20.0810    3.5600   26.9270 C.3   113  TRP113      0.0550
     13  CG        18.5810    3.6050   26.8730 C.ar  113  TRP113      0.0003
     14  CD1       17.7940    3.4570   25.7690 C.ar  113  TRP113      0.0946
     15  CD2       17.6890    3.7990   27.9800 C.ar  113  TRP113      0.0152
     16  NE1       16.4640    3.5340   26.1200 N.ar  113  TRP113     -0.2442
     17  CE2       16.3710    3.7640   27.4670 C.ar  113  TRP113      0.0810
     18  CE3       17.8740    4.0240   29.3550 C.ar  113  TRP113      0.0012
     19  CZ2       15.2460    3.9360   28.2810 C.ar  113  TRP113      0.0191
     20  CZ3       16.7570    4.2090   30.1550 C.ar  113  TRP113      0.0001
     21  CH2       15.4610    4.1600   29.6190 C.ar  113  TRP113      0.0015
     22  N         16.6130    5.2200   43.5640 N.3   129  ILE129     -0.1245
     23  CA        15.4660    4.3470   43.8490 C.3   129  ILE129      0.1561
     24  C         15.8110    3.4000   45.0220 C.2   129  ILE129      0.2260
     25  O         14.9950    3.2370   45.9280 O.2   129  ILE129     -0.2867
     26  CB        15.0470    3.5670   42.5720 C.3   129  ILE129      0.0252
     27  CG1       14.3170    4.4830   41.5740 C.3   129  ILE129      0.0019
     28  CG2       14.1990    2.3170   42.9140 C.3   129  ILE129      0.0019
     29  CD1       14.3810    4.0190   40.1160 C.3   129  ILE129      0.0001
     30  N         13.9890    3.4570   48.5860 N.3   133  LEU133     -0.1245
     31  CA        13.2870    2.2850   49.1100 C.3   133  LEU133      0.1561
     32  C         13.8920    1.8350   50.4520 C.2   133  LEU133      0.2260
     33  O         13.1490    1.3840   51.3280 O.2   133  LEU133     -0.2867
     34  CB        13.2750    1.1420   48.0850 C.3   133  LEU133      0.0270
     35  CG        12.3720    1.3900   46.8700 C.3   133  LEU133      0.0019
     36  CD1       12.7360    0.4730   45.7390 C.3   133  LEU133      0.0001
     37  CD2       10.8810    1.2890   47.2290 C.3   133  LEU133      0.0001
     38  N         10.9440    9.1890   44.9060 N.3   164  PHE164     -0.1241
     39  CA        10.9690    7.9280   44.1650 C.3   164  PHE164      0.1605
     40  C         10.5610    8.1580   42.7070 C.2   164  PHE164      0.2264
     41  O         11.2890    7.7760   41.8090 O.2   164  PHE164     -0.2867
     42  CB        10.0600    6.8820   44.8380 C.3   164  PHE164      0.0534
     43  CG         9.9330    5.5820   44.0700 C.ar  164  PHE164     -0.0203
     44  CD1       10.9260    4.6140   44.1370 C.ar  164  PHE164     -0.0042
     45  CD2        8.8130    5.3230   43.2880 C.ar  164  PHE164     -0.0042
     46  CE1       10.8030    3.4120   43.4380 C.ar  164  PHE164     -0.0003
     47  CE2        8.6950    4.1200   42.5810 C.ar  164  PHE164     -0.0003
     48  CZ         9.6930    3.1750   42.6590 C.ar  164  PHE164     -0.0000
     49  N         12.3730    8.0340   38.8270 N.3   168  VAL168     -0.1245
     50  CA        11.7520    7.2780   37.7460 C.3   168  VAL168      0.1561
     51  C         11.7550    8.1490   36.4560 C.2   168  VAL168      0.2260
     52  O         11.9210    7.5920   35.3690 O.2   168  VAL168     -0.2867
     53  CB        10.3300    6.7770   38.1450 C.3   168  VAL168      0.0252
     54  CG1        9.6010    6.1430   36.9640 C.3   168  VAL168      0.0019
     55  CG2       10.4080    5.7830   39.2940 C.3   168  VAL168      0.0019
     56  N         14.0830    7.5850   33.2190 N.3   171  PHE171     -0.1227
     57  CA        13.7190    6.4130   32.4050 C.3   171  PHE171      0.1736
     58  C         12.7120    6.7810   31.2940 C.2   171  PHE171      0.2596
     59  O         12.8190    6.2650   30.1850 O.2   171  PHE171     -0.2718
     60  CB        13.1500    5.2770   33.2840 C.3   171  PHE171      0.0547
     61  CG        14.1610    4.6770   34.2290 C.ar  171  PHE171     -0.0202
     62  CD1       14.9980    3.6470   33.8160 C.ar  171  PHE171     -0.0042
     63  CD2       14.2900    5.1530   35.5270 C.ar  171  PHE171     -0.0042
     64  CE1       15.9370    3.0950   34.6880 C.ar  171  PHE171     -0.0003
     65  CE2       15.2310    4.6030   36.3970 C.ar  171  PHE171     -0.0003
     66  CZ        16.0470    3.5750   35.9730 C.ar  171  PHE171     -0.0000
     67  N         11.7620    7.6820   31.5960 N.am  172  THR172     -0.1953
     68  CA        10.7220    8.1590   30.6740 C.3   172  THR172      0.1897
     69  C         11.2870    9.2210   29.6950 C.2   172  THR172      0.2313
     70  O         10.7920    9.3800   28.5700 O.2   172  THR172     -0.2863
     71  CB         9.5310    8.7410   31.4680 C.3   172  THR172      0.1794
     72  OG1        9.9520    9.8980   32.1940 O.3   172  THR172     -0.2208
     73  CG2        8.9110    7.7480   32.4190 C.3   172  THR172      0.0378
     74  N         14.1410    7.3120   27.2620 N.3   175  ALA175     -0.1231
     75  CA        13.4620    6.3770   26.3700 C.3   175  ALA175      0.1694
     76  C         13.0860    7.0710   25.0790 C.2   175  ALA175      0.2591
     77  O         12.5660    8.1970   25.1280 O.2   175  ALA175     -0.2718
     78  CB        12.2200    5.8200   27.0430 C.3   175  ALA175      0.0304
     79  N         13.3750    6.4160   23.9230 N.am  176  LYS176     -0.1980
     80  CA        13.0500    6.8890   22.5730 C.3   176  LYS176      0.1596
     81  C         11.6030    7.4090   22.5800 C.2   176  LYS176      0.2287
     82  O         10.7070    6.6970   23.0630 O.2   176  LYS176     -0.2864
     83  CB        13.2400    5.7580   21.5520 C.3   176  LYS176      0.0298
     84  CG        13.0200    6.1820   20.1070 C.3   176  LYS176      0.0038
     85  CD        13.1770    5.0120   19.1380 C.3   176  LYS176      0.0206
     86  CE        12.8680    5.4140   17.7150 C.3   176  LYS176      0.1093
     87  NZ        13.3870    4.4320   16.7290 N.3   176  LYS176     -0.1314
     88  N          7.9530    7.9910   22.4460 N.3   178  THR178     -0.1218
     89  CA         6.7230    7.2610   22.1060 C.3   178  THR178      0.1862
     90  C          5.5960    8.0520   22.7450 C.2   178  THR178      0.2287
     91  O          5.8610    8.8280   23.6590 O.2   178  THR178     -0.2866
     92  CB         6.7470    5.7840   22.5760 C.3   178  THR178      0.1770
     93  OG1        6.7780    5.7350   24.0010 O.3   178  THR178     -0.2211
     94  CG2        7.8800    4.9700   21.9790 C.3   178  THR178      0.0375
     95  N          3.4360    7.0660   24.8740 N.3   180  THR180     -0.1203
     96  CA         3.4590    6.6600   26.2840 C.3   180  THR180      0.1994
     97  C          4.5580    7.3810   27.0800 C.2   180  THR180      0.2618
     98  O          4.2570    7.9390   28.1380 O.2   180  THR180     -0.2717
     99  CB         3.6070    5.1440   26.4140 C.3   180  THR180      0.1784
    100  OG1        2.7390    4.5000   25.4770 O.3   180  THR180     -0.2211
    101  CG2        3.3090    4.6570   27.8310 C.3   180  THR180      0.0376
    102  N          5.8140    7.3840   26.5700 N.am  181  SER181     -0.1951
    103  CA         6.9300    8.0380   27.2390 C.3   181  SER181      0.1924
    104  C          6.6940    9.5570   27.3390 C.2   181  SER181      0.2314
    105  O          7.0200   10.1400   28.3680 O.2   181  SER181     -0.2863
    106  CB         8.2580    7.7140   26.5530 C.3   181  SER181      0.2116
    107  OG         8.4550    8.3890   25.3220 O.3   181  SER181     -0.2180
    108  N          3.8490   10.0190   30.2510 N.3   184  LEU184     -0.1245
    109  CA         4.4660    9.7490   31.5380 C.3   184  LEU184      0.1561
    110  C          5.4900   10.8160   31.9720 C.2   184  LEU184      0.2260
    111  O          5.4070   11.2350   33.1170 O.2   184  LEU184     -0.2867
    112  CB         5.1340    8.3630   31.5440 C.3   184  LEU184      0.0270
    113  CG         4.2250    7.1270   31.3620 C.3   184  LEU184      0.0019
    114  CD1        5.0430    5.8390   31.4090 C.3   184  LEU184      0.0001
    115  CD2        3.0810    7.0930   32.3720 C.3   184  LEU184      0.0001
    116  N          4.9530   12.5700   35.3640 N.3   188  LEU188     -0.1245
    117  CA         5.9540   12.2590   36.3700 C.3   188  LEU188      0.1561
    118  C          6.8580   13.4280   36.7020 C.2   188  LEU188      0.2260
    119  O          7.1050   13.6290   37.8880 O.2   188  LEU188     -0.2867
    120  CB         6.7850   11.0430   35.9620 C.3   188  LEU188      0.0270
    121  CG         6.3640    9.6490   36.4940 C.3   188  LEU188      0.0019
    122  CD1        4.8440    9.4730   36.6010 C.3   188  LEU188      0.0001
    123  CD2        6.9450    8.5490   35.6130 C.3   188  LEU188      0.0001
@<TRIPOS>BOND
     1    87    86    1
     2    86    85    1
     3     4     3    2
     4     3     2    1
     5    85    84    1
     6     1     2    1
     7     1     7    1
     8     2     5    1
     9    84    83    1
    10     7     6    1
    11     5     6    1
    12    83    80    1
    13    94    92    1
    14    89    88    1
    15    89    92    1
    16    89    90    1
    17    80    81    1
    18    80    79    1
    19    92    93    1
    20    81    82    2
    21    90    91    2
    22    79    76   am
    23    95    96    1
    24    76    77    2
    25    76    75    1
    26   107   106    1
    27     8     9    1
    28   100    99    1
    29    14    16   ar
    30    14    13   ar
    31    16    17   ar
    32    96    99    1
    33    96    97    1
    34    75    78    1
    35    75    74    1
    36    99   101    1
    37   106   103    1
    38   102    97   am
    39   102   103    1
    40     9    10    1
    41     9    12    1
    42    10    11    2
    43    13    12    1
    44    13    15   ar
    45    97    98    2
    46   103   104    1
    47   104   105    2
    48    17    15   ar
    49    17    19   ar
    50    15    18   ar
    51    19    21   ar
    52    70    69    2
    53    18    20   ar
    54    21    20   ar
    55    69    68    1
    56    59    58    2
    57   108   109    1
    58    68    71    1
    59    68    67    1
    60    58    67   am
    61    58    57    1
    62   113   114    1
    63   113   112    1
    64   113   115    1
    65    71    72    1
    66    71    73    1
    67   109   112    1
    68   109   110    1
    69   110   111    2
    70    57    56    1
    71    57    60    1
    72    60    61    1
    73    62    61   ar
    74    62    64   ar
    75    61    63   ar
    76    64    66   ar
    77   116   117    1
    78    52    51    2
    79    63    65   ar
    80   123   121    1
    81   120   117    1
    82   120   121    1
    83    66    65   ar
    84   117   118    1
    85    51    50    1
    86   121   122    1
    87   118   119    2
    88    54    53    1
    89    50    53    1
    90    50    49    1
    91    53    55    1
    92    29    27    1
    93    27    26    1
    94    41    40    2
    95    26    28    1
    96    26    23    1
    97    47    48   ar
    98    47    45   ar
    99    48    46   ar
   100    40    39    1
   101    45    43   ar
   102    46    44   ar
   103    22    23    1
   104    23    24    1
   105    43    44   ar
   106    43    42    1
   107    39    42    1
   108    39    38    1
   109    24    25    2
   110    36    35    1
   111    35    37    1
   112    35    34    1
   113    34    31    1
   114    30    31    1
   115    31    32    1
   116    32    33    2
