@<TRIPOS>MOLECULE
tmp/4or4A00.pdb
 165 160 0 0 0
SMALL
GASTEIGER

@<TRIPOS>ATOM
      1  N         -0.1600   14.5320  -46.0580 N.3     4  PHE4       -0.1227
      2  CA        -0.8680   15.5560  -46.8440 C.3     4  PHE4        0.1736
      3  C         -0.2480   16.9070  -46.5470 C.2     4  PHE4        0.2595
      4  O          0.5480   17.0280  -45.6170 O.2     4  PHE4       -0.2718
      5  CB        -2.3710   15.5460  -46.5480 C.3     4  PHE4        0.0547
      6  CG        -2.7100   15.8890  -45.1330 C.ar    4  PHE4       -0.0202
      7  CD1       -3.1150   17.1930  -44.7900 C.ar    4  PHE4       -0.0042
      8  CD2       -2.6620   14.9240  -44.1340 C.ar    4  PHE4       -0.0042
      9  CE1       -3.4130   17.5250  -43.4690 C.ar    4  PHE4       -0.0003
     10  CE2       -2.9950   15.2520  -42.7980 C.ar    4  PHE4       -0.0003
     11  CZ        -3.3640   16.5400  -42.4690 C.ar    4  PHE4       -0.0000
     12  N         -0.5980   17.9170  -47.3370 N.am    5  ARG5       -0.1966
     13  CA        -0.0020   19.2580  -47.1740 C.3     5  ARG5        0.1729
     14  C         -1.0180   20.2880  -46.7190 C.2     5  ARG5        0.2616
     15  O         -2.1970   20.1970  -47.0300 O.2     5  ARG5       -0.2715
     16  CB         0.5400   19.7820  -48.5320 C.3     5  ARG5        0.0348
     17  CG         1.3850   18.7600  -49.2880 C.3     5  ARG5        0.0492
     18  CD         2.6890   18.4220  -48.5380 C.3     5  ARG5        0.2205
     19  NE         3.4350   19.6610  -48.3260 N.pl3   5  ARG5       -0.0865
     20  CZ         4.6550   19.9510  -48.7870 C.cat   5  ARG5        0.5346
     21  NH1        5.3640   19.0850  -49.4690 N.pl3   5  ARG5        0.1354
     22  NH2        5.1840   21.1260  -48.5130 N.pl3   5  ARG5        0.1354
     23  N         -0.5130   21.2980  -46.0250 N.am    6  PHE6       -0.1974
     24  CA        -1.2000   22.5640  -45.8640 C.3     6  PHE6        0.1639
     25  C         -0.1930   23.5820  -46.4090 C.2     6  PHE6        0.2290
     26  O          0.6440   24.0740  -45.6630 O.2     6  PHE6       -0.2864
     27  CB        -1.4940   22.7930  -44.3640 C.3     6  PHE6        0.0560
     28  CG        -1.9970   24.1840  -44.0240 C.ar    6  PHE6       -0.0200
     29  CD1       -3.0560   24.7700  -44.7630 C.ar    6  PHE6       -0.0042
     30  CD2       -1.4140   24.9100  -42.9510 C.ar    6  PHE6       -0.0042
     31  CE1       -3.4940   26.0190  -44.4310 C.ar    6  PHE6       -0.0003
     32  CE2       -1.8960   26.1350  -42.5800 C.ar    6  PHE6       -0.0003
     33  CZ        -2.9330   26.7020  -43.3120 C.ar    6  PHE6       -0.0000
     34  N         -1.0710   11.9870  -39.8570 N.3    13  ARG13      -0.1245
     35  CA        -1.7910   11.8080  -38.6230 C.3    13  ARG13       0.1563
     36  C         -1.0970   10.7380  -37.7820 C.2    13  ARG13       0.2260
     37  O         -0.6580    9.6930  -38.2930 O.2    13  ARG13      -0.2867
     38  CB        -3.2320   11.4270  -38.9110 C.3    13  ARG13       0.0307
     39  CG        -4.1160   11.2950  -37.6890 C.3    13  ARG13       0.0489
     40  CD        -5.5560   10.9930  -38.1300 C.3    13  ARG13       0.2205
     41  NE        -6.0290   11.9410  -39.1470 N.pl3  13  ARG13      -0.0865
     42  CZ        -6.5480   13.1380  -38.8610 C.cat  13  ARG13       0.5346
     43  NH1       -6.6720   13.5640  -37.5650 N.pl3  13  ARG13       0.1354
     44  NH2       -6.9060   13.9200  -39.8820 N.pl3  13  ARG13       0.1354
     45  N        -10.6500   15.1040  -35.9340 N.3    18  GLY18      -0.1225
     46  CA       -11.2640   16.3870  -35.7940 C.3    18  GLY18       0.1811
     47  C        -12.6120   16.4010  -36.4640 C.2    18  GLY18       0.2280
     48  O        -12.8390   15.6500  -37.3930 O.2    18  GLY18      -0.2866
     49  N        -15.1870   19.4250  -38.1190 N.3    20  LYS20      -0.1245
     50  CA       -15.1400   20.7960  -38.4850 C.3    20  LYS20       0.1561
     51  C        -16.5180   21.4480  -38.4430 C.2    20  LYS20       0.2260
     52  O        -17.4640   20.8460  -38.8990 O.2    20  LYS20      -0.2867
     53  CB       -14.5860   20.9080  -39.8800 C.3    20  LYS20       0.0271
     54  CG       -14.0420   22.3240  -40.1090 C.3    20  LYS20       0.0035
     55  CD       -14.2320   22.7380  -41.5240 C.3    20  LYS20       0.0206
     56  CE       -13.5490   21.8390  -42.4860 C.3    20  LYS20       0.1093
     57  NZ       -14.1600   22.2770  -43.6970 N.3    20  LYS20      -0.1314
     58  N        -18.3710   25.5270  -39.1140 N.3    22  ASP22      -0.1239
     59  CA       -18.1210   26.9020  -39.5320 C.3    22  ASP22       0.1674
     60  C        -18.4090   27.8580  -38.3810 C.2    22  ASP22       0.2266
     61  O        -19.4630   27.7560  -37.7340 O.2    22  ASP22      -0.2867
     62  CB       -18.8960   27.2730  -40.7890 C.3    22  ASP22       0.1410
     63  CG       -18.1040   26.9580  -42.0800 C.2    22  ASP22       0.3668
     64  OD1      -16.9720   26.4170  -41.9980 O.co2  22  ASP22      -0.2456
     65  OD2      -18.6040   27.2430  -43.1990 O.co2  22  ASP22      -0.2456
     66  N        -13.9230   27.5160  -41.1600 N.3    36  GLY36      -0.1225
     67  CA       -14.0330   26.1330  -40.6340 C.3    36  GLY36       0.1811
     68  C        -13.0960   25.8870  -39.4690 C.2    36  GLY36       0.2280
     69  O        -11.8360   25.8220  -39.6260 O.2    36  GLY36      -0.2866
     70  N        -11.8540   23.4160  -36.5310 N.3    38  TRP38      -0.1241
     71  CA       -11.7850   22.0060  -36.1120 C.3    38  TRP38       0.1605
     72  C        -11.9480   21.8060  -34.5940 C.2    38  TRP38       0.2264
     73  O        -11.3550   22.5230  -33.7820 O.2    38  TRP38      -0.2867
     74  CB       -10.4560   21.3470  -36.5460 C.3    38  TRP38       0.0550
     75  CG       -10.3400   21.1950  -38.0390 C.ar   38  TRP38       0.0003
     76  CD1       -9.7580   22.0800  -38.9080 C.ar   38  TRP38       0.0946
     77  CD2      -10.9000   20.1410  -38.8340 C.ar   38  TRP38       0.0152
     78  NE1       -9.8990   21.6280  -40.1900 N.ar   38  TRP38      -0.2442
     79  CE2      -10.5840   20.4390  -40.1910 C.ar   38  TRP38       0.0810
     80  CE3      -11.6510   18.9740  -38.5350 C.ar   38  TRP38       0.0012
     81  CZ2      -10.9820   19.6320  -41.2560 C.ar   38  TRP38       0.0191
     82  CZ3      -12.0560   18.1230  -39.6130 C.ar   38  TRP38       0.0001
     83  CH2      -11.6950   18.4590  -40.9630 C.ar   38  TRP38       0.0015
     84  N         -6.1020   16.3400  -31.8140 N.3    42  GLU42      -0.1245
     85  CA        -5.4940   15.6400  -32.9340 C.3    42  GLU42       0.1567
     86  C         -3.9680   15.7430  -32.7990 C.2    42  GLU42       0.2260
     87  O         -3.4430   16.7220  -32.2860 O.2    42  GLU42      -0.2867
     88  CB        -5.9540   16.2610  -34.2580 C.3    42  GLU42       0.0388
     89  CG        -7.4380   16.0730  -34.6570 C.3    42  GLU42       0.1160
     90  CD        -7.7310   16.8320  -35.9610 C.2    42  GLU42       0.3649
     91  OE1       -7.9470   18.0580  -35.8990 O.co2  42  GLU42      -0.2457
     92  OE2       -7.6800   16.2230  -37.0720 O.co2  42  GLU42      -0.2457
     93  N         -0.1360   15.0640  -34.9640 N.3    44  PHE44      -0.1241
     94  CA         0.4660   14.8770  -36.2880 C.3    44  PHE44       0.1605
     95  C          1.9800   14.9190  -36.2650 C.2    44  PHE44       0.2264
     96  O          2.5470   15.7660  -35.6050 O.2    44  PHE44      -0.2867
     97  CB         0.0500   15.9850  -37.2410 C.3    44  PHE44       0.0534
     98  CG        -1.4540   16.1330  -37.4450 C.ar   44  PHE44      -0.0203
     99  CD1       -2.1150   15.4100  -38.4410 C.ar   44  PHE44      -0.0042
    100  CD2       -2.1990   17.0470  -36.6610 C.ar   44  PHE44      -0.0042
    101  CE1       -3.5460   15.5900  -38.6420 C.ar   44  PHE44      -0.0003
    102  CE2       -3.5700   17.2340  -36.8420 C.ar   44  PHE44      -0.0003
    103  CZ        -4.2570   16.5230  -37.8470 C.ar   44  PHE44      -0.0000
    104  N         -2.9670   19.4440  -31.2210 N.3    57  LYS57      -0.1245
    105  CA        -3.8800   20.5730  -31.1780 C.3    57  LYS57       0.1561
    106  C         -5.1990   20.1180  -30.5990 C.2    57  LYS57       0.2260
    107  O         -5.4870   18.9490  -30.5880 O.2    57  LYS57      -0.2867
    108  CB        -4.1130   21.1400  -32.6050 C.3    57  LYS57       0.0271
    109  CG        -4.9920   20.2420  -33.4620 C.3    57  LYS57       0.0035
    110  CD        -5.3620   20.8490  -34.7930 C.3    57  LYS57       0.0206
    111  CE        -6.1830   22.1820  -34.7230 C.3    57  LYS57       0.1093
    112  NZ        -7.5320   22.1520  -34.0430 N.3    57  LYS57      -0.1314
    113  N         -1.9980   26.3640  -38.4880 N.3    85  PHE85      -0.1241
    114  CA        -2.7690   25.1140  -38.6320 C.3    85  PHE85       0.1605
    115  C         -3.4900   24.7660  -37.3370 C.2    85  PHE85       0.2264
    116  O         -4.5330   24.2150  -37.4420 O.2    85  PHE85      -0.2867
    117  CB        -1.8580   23.9300  -38.9950 C.3    85  PHE85       0.0534
    118  CG        -2.6040   22.6150  -39.2280 C.ar   85  PHE85      -0.0203
    119  CD1       -3.0960   22.2980  -40.5130 C.ar   85  PHE85      -0.0042
    120  CD2       -2.7730   21.6690  -38.1700 C.ar   85  PHE85      -0.0042
    121  CE1       -3.7470   21.0680  -40.7520 C.ar   85  PHE85      -0.0003
    122  CE2       -3.4270   20.4270  -38.3760 C.ar   85  PHE85      -0.0003
    123  CZ        -3.9390   20.1100  -39.6780 C.ar   85  PHE85      -0.0000
    124  N         -5.0370   26.7330  -35.4180 N.3    87  GLN87      -0.1245
    125  CA        -6.2020   27.6270  -35.3360 C.3    87  GLN87       0.1566
    126  C         -6.2920   28.2710  -33.9400 C.2    87  GLN87       0.2260
    127  O         -7.3510   28.6440  -33.4670 O.2    87  GLN87      -0.2867
    128  CB        -7.4960   26.9120  -35.6780 C.3    87  GLN87       0.0367
    129  CG        -7.4910   26.3610  -37.1100 C.3    87  GLN87       0.0905
    130  CD        -8.8050   25.7660  -37.4810 C.2    87  GLN87       0.2608
    131  OE1       -9.4050   24.9670  -36.7170 O.2    87  GLN87      -0.2717
    132  NE2       -9.2690   26.1010  -38.6860 N.am   87  GLN87      -0.0878
    133  N         -9.1910   30.5070  -49.7270 N.3   110  SER110     -0.1203
    134  CA        -9.2050   29.7530  -48.4950 C.3   110  SER110      0.2005
    135  C         -8.7910   30.6200  -47.3150 C.2   110  SER110      0.2461
    136  O         -7.6890   31.1860  -47.3270 O.2   110  SER110     -0.2732
    137  CB        -8.2800   28.5490  -48.6350 C.3   110  SER110      0.2103
    138  OG        -7.9630   28.0210  -47.3550 O.3   110  SER110     -0.2182
    139  N         -9.6950   30.8070  -46.3260 N.am  111  PRO111     -0.2717
    140  CA        -9.2380   31.6300  -45.2060 C.3   111  PRO111      0.1535
    141  C         -7.9410   31.1130  -44.5390 C.2   111  PRO111      0.2598
    142  O         -7.0310   31.9020  -44.2060 O.2   111  PRO111     -0.2715
    143  CB       -10.4080   31.6150  -44.2360 C.3   111  PRO111      0.0310
    144  CG       -11.6570   31.3410  -45.1070 C.3   111  PRO111      0.0237
    145  CD       -11.1370   30.4730  -46.2540 C.3   111  PRO111      0.0939
    146  N         -7.8420   29.8070  -44.3490 N.am  112  MET112     -0.1964
    147  CA        -6.6660   29.2240  -43.7250 C.3   112  MET112      0.1736
    148  C         -5.3940   29.3760  -44.5640 C.2   112  MET112      0.2616
    149  O         -4.2960   29.6730  -44.0250 O.2   112  MET112     -0.2715
    150  CB        -6.9230   27.7390  -43.3290 C.3   112  MET112      0.0427
    151  CG        -7.8980   27.5750  -42.0960 C.3   112  MET112      0.0599
    152  SD        -7.1050   28.2050  -40.5800 S.3   112  MET112     -0.1393
    153  CE        -5.7390   27.0630  -40.4930 C.3   112  MET112      0.0692
    154  N         -5.4850   29.1610  -45.8790 N.am  113  TYR113     -0.1974
    155  CA        -4.3110   29.3390  -46.7360 C.3   113  TYR113      0.1639
    156  C         -3.8640   30.8140  -46.7690 C.2   113  TYR113      0.2290
    157  O         -2.6490   31.1210  -46.7270 O.2   113  TYR113     -0.2864
    158  CB        -4.6160   28.7780  -48.1150 C.3   113  TYR113      0.0560
    159  CG        -4.5760   27.2640  -48.1000 C.ar  113  TYR113     -0.0198
    160  CD1       -3.3730   26.6150  -48.2550 C.ar  113  TYR113     -0.0009
    161  CD2       -5.7280   26.4840  -47.8750 C.ar  113  TYR113     -0.0009
    162  CE1       -3.2910   25.2660  -48.2470 C.ar  113  TYR113      0.0417
    163  CE2       -5.6620   25.0990  -47.8660 C.ar  113  TYR113      0.0417
    164  CZ        -4.4080   24.5150  -48.0540 C.ar  113  TYR113      0.1957
    165  OH        -4.1840   23.1830  -48.0660 O.3   113  TYR113     -0.2866
@<TRIPOS>BOND
     1   133   134    1
     2    21    20    1
     3    17    18    1
     4    17    16    1
     5    20    22    1
     6    20    19    2
     7   137   134    1
     8   137   138    1
     9    18    19    1
    10    16    13    1
    11   134   135    1
    12   160   162   ar
    13   160   159   ar
    14   162   164   ar
    15   158   159    1
    16   158   155    1
    17   159   161   ar
    18   165   164    1
    19   164   163   ar
    20   161   163   ar
    21    12    13    1
    22    12     3   am
    23   136   135    2
    24   135   139   am
    25    13    14    1
    26    15    14    2
    27     2     5    1
    28     2     3    1
    29     2     1    1
    30   156   155    1
    31   156   157    2
    32   155   154    1
    33    14    23   am
    34     5     6    1
    35     3     4    2
    36    25    24    1
    37    25    26    2
    38   139   145    1
    39   139   140    1
    40   145   144    1
    41    23    24    1
    42   154   148   am
    43    24    27    1
    44   140   141    1
    45   140   143    1
    46     6     7   ar
    47     6     8   ar
    48   144   143    1
    49     7     9   ar
    50    29    31   ar
    51    29    28   ar
    52   148   149    2
    53   148   147    1
    54   141   146   am
    55   141   142    2
    56    31    33   ar
    57    27    28    1
    58   146   147    1
    59     8    10   ar
    60    28    30   ar
    61   147   150    1
    62    57    56    1
    63     9    11   ar
    64   150   151    1
    65    33    32   ar
    66    65    63   ar
    67    30    32   ar
    68    10    11   ar
    69    56    55    1
    70   151   152    1
    71    63    64   ar
    72    63    62    1
    73    55    54    1
    74    81    83   ar
    75    81    79   ar
    76    66    67    1
    77    83    82   ar
    78    62    59    1
    79   121   119   ar
    80   121   123   ar
    81    67    68    1
    82   152   153    1
    83   119   118   ar
    84    79    78   ar
    85    79    77   ar
    86    78    76   ar
    87    54    53    1
    88    44    42    1
    89    53    50    1
    90    34    35    1
    91   123   122   ar
    92    69    68    2
    93    82    80   ar
    94    59    58    1
    95    59    60    1
    96   118   117    1
    97   118   120   ar
    98    41    42    2
    99    41    40    1
   100   117   114    1
   101    38    35    1
   102    38    39    1
   103    76    75   ar
   104    52    51    2
   105    42    43    1
   106    77    80   ar
   107    77    75   ar
   108   132   130   am
   109   101    99   ar
   110   101   103   ar
   111   114   113    1
   112   114   115    1
   113    35    36    1
   114    50    51    1
   115    50    49    1
   116    99    98   ar
   117    60    61    2
   118   122   120   ar
   119    37    36    2
   120    40    39    1
   121    75    74    1
   122   103   102   ar
   123   130   129    1
   124   130   131    2
   125    98    97    1
   126    98   100   ar
   127   116   115    2
   128    48    47    2
   129    97    94    1
   130   129   128    1
   131    92    90   ar
   132   102   100   ar
   133    74    71    1
   134    70    71    1
   135    47    46    1
   136    94    95    1
   137    94    93    1
   138    95    96    2
   139    71    72    1
   140    90    91   ar
   141    90    89    1
   142    45    46    1
   143   128   125    1
   144   124   125    1
   145   125   126    1
   146   110   111    1
   147   110   109    1
   148   111   112    1
   149    89    88    1
   150    72    73    2
   151    88    85    1
   152   126   127    2
   153   109   108    1
   154    85    86    1
   155    85    84    1
   156    86    87    2
   157   108   105    1
   158   104   105    1
   159   105   106    1
   160   106   107    2
