@<TRIPOS>MOLECULE
tmp/4or7A01.pdb
 166 160 0 0 0
SMALL
GASTEIGER

@<TRIPOS>ATOM
      1  N         50.2420   19.1660   17.7770 N.3     5  ILE5       -0.1231
      2  CA        50.9310   19.8110   18.8930 C.3     5  ILE5        0.1692
      3  C         50.3770   21.2220   18.9890 C.2     5  ILE5        0.2592
      4  O         50.2840   21.9300   17.9860 O.2     5  ILE5       -0.2718
      5  CB        52.4920   19.7560   18.7570 C.3     5  ILE5        0.0266
      6  CG1       53.1700   20.4010   19.9740 C.3     5  ILE5        0.0019
      7  CG2       52.9640   20.4170   17.4540 C.3     5  ILE5        0.0020
      8  CD1       54.6120   19.9330   20.2180 C.3     5  ILE5        0.0001
      9  N         49.9650   21.6150   20.1910 N.am    6  ALA6       -0.1966
     10  CA        49.2690   22.8760   20.3800 C.3     6  ALA6        0.1728
     11  C         49.4140   23.3650   21.8010 C.2     6  ALA6        0.2616
     12  O         49.5690   22.5590   22.7220 O.2     6  ALA6       -0.2715
     13  CB        47.7770   22.7150   20.0390 C.3     6  ALA6        0.0334
     14  N         49.3380   24.6820   21.9730 N.am    7  ALA7       -0.1977
     15  CA        49.3320   25.2920   23.2960 C.3     7  ALA7        0.1597
     16  C         47.9550   25.9040   23.5360 C.2     7  ALA7        0.2287
     17  O         47.4860   26.6990   22.7270 O.2     7  ALA7       -0.2864
     18  CB        50.3980   26.3590   23.3820 C.3     7  ALA7        0.0319
     19  N         49.6030   34.5340   19.3880 N.3    20  MET20      -0.1245
     20  CA        49.2020   33.7900   20.5720 C.3    20  MET20       0.1570
     21  C         49.1990   34.7520   21.7360 C.2    20  MET20       0.2261
     22  O         50.1960   35.4380   21.9910 O.2    20  MET20      -0.2867
     23  CB        50.1370   32.6140   20.8420 C.3    20  MET20       0.0387
     24  CG        50.2400   31.6560   19.6850 C.3    20  MET20       0.0595
     25  SD        51.2550   30.2400   20.0860 S.3    20  MET20      -0.1393
     26  CE        51.4610   29.6040   18.4330 C.3    20  MET20       0.0692
     27  N         49.8620   35.0840   24.6630 N.3    22  TRP22      -0.1241
     28  CA        50.7370   34.8680   25.8070 C.3    22  TRP22       0.1605
     29  C         52.1820   34.9040   25.3410 C.2    22  TRP22       0.2264
     30  O         52.4610   34.9670   24.1410 O.2    22  TRP22      -0.2867
     31  CB        50.4570   33.5170   26.4790 C.3    22  TRP22       0.0550
     32  CG        50.5480   32.3710   25.5390 C.ar   22  TRP22       0.0003
     33  CD1       51.6870   31.7660   25.0790 C.ar   22  TRP22       0.0946
     34  CD2       49.4530   31.6790   24.9320 C.ar   22  TRP22       0.0152
     35  NE1       51.3630   30.7430   24.2150 N.ar   22  TRP22      -0.2442
     36  CE2       49.9960   30.6700   24.1100 C.ar   22  TRP22       0.0810
     37  CE3       48.0630   31.8120   25.0080 C.ar   22  TRP22       0.0012
     38  CZ2       49.1970   29.8050   23.3640 C.ar   22  TRP22       0.0191
     39  CZ3       47.2740   30.9520   24.2660 C.ar   22  TRP22       0.0001
     40  CH2       47.8400   29.9630   23.4620 C.ar   22  TRP22       0.0015
     41  N         57.5740   27.0300   26.4610 N.3    27  ASP27      -0.1225
     42  CA        56.7890   26.2480   25.5240 C.3    27  ASP27       0.1805
     43  C         57.5560   26.0810   24.2170 C.2    27  ASP27       0.2597
     44  O         57.4100   25.0740   23.5380 O.2    27  ASP27      -0.2718
     45  CB        55.4390   26.9200   25.2810 C.3    27  ASP27       0.1424
     46  CG        54.5950   26.1760   24.2800 C.2    27  ASP27       0.3668
     47  OD1       54.3580   24.9630   24.4720 O.co2  27  ASP27      -0.2456
     48  OD2       54.1770   26.8120   23.2960 O.co2  27  ASP27      -0.2456
     49  N         58.3880   27.0650   23.8770 N.am   28  LEU28      -0.1979
     50  CA        59.2100   26.9910   22.6680 C.3    28  LEU28       0.1596
     51  C         60.1380   25.7910   22.6820 C.2    28  LEU28       0.2287
     52  O         60.2710   25.0880   21.6830 O.2    28  LEU28      -0.2864
     53  CB        60.0420   28.2620   22.5010 C.3    28  LEU28       0.0297
     54  CG        59.5870   29.2620   21.4470 C.3    28  LEU28       0.0022
     55  CD1       58.1550   29.7430   21.7330 C.3    28  LEU28       0.0001
     56  CD2       60.5800   30.4250   21.3630 C.3    28  LEU28       0.0001
     57  N         59.8070   23.0010   24.4430 N.3    30  TRP30      -0.1227
     58  CA        58.9770   21.8030   24.3340 C.3    30  TRP30       0.1737
     59  C         58.5470   21.5620   22.8810 C.2    30  TRP30       0.2595
     60  O         58.5900   20.4290   22.3980 O.2    30  TRP30      -0.2718
     61  CB        57.7670   21.9320   25.2700 C.3    30  TRP30       0.0564
     62  CG        56.6060   21.0000   24.9840 C.ar   30  TRP30       0.0003
     63  CD1       55.5160   21.2670   24.2100 C.ar   30  TRP30       0.0946
     64  CD2       56.4080   19.6850   25.5150 C.ar   30  TRP30       0.0152
     65  NE1       54.6650   20.1870   24.2070 N.ar   30  TRP30      -0.2442
     66  CE2       55.1880   19.2010   25.0040 C.ar   30  TRP30       0.0810
     67  CE3       57.1550   18.8580   26.3600 C.ar   30  TRP30       0.0012
     68  CZ2       54.7000   17.9320   25.3100 C.ar   30  TRP30       0.0191
     69  CZ3       56.6720   17.6040   26.6660 C.ar   30  TRP30       0.0001
     70  CH2       55.4540   17.1500   26.1450 C.ar   30  TRP30       0.0015
     71  N         58.1290   22.6270   22.2010 N.am   31  PHE31      -0.1976
     72  CA        57.7290   22.5540   20.7990 C.3    31  PHE31       0.1639
     73  C         58.8940   22.1050   19.9140 C.2    31  PHE31       0.2290
     74  O         58.7360   21.2210   19.0760 O.2    31  PHE31      -0.2864
     75  CB        57.1810   23.9100   20.3520 C.3    31  PHE31       0.0560
     76  CG        56.8490   23.9960   18.8810 C.ar   31  PHE31      -0.0200
     77  CD1       55.6440   23.5030   18.3950 C.ar   31  PHE31      -0.0042
     78  CD2       57.7310   24.5960   17.9890 C.ar   31  PHE31      -0.0042
     79  CE1       55.3300   23.5950   17.0470 C.ar   31  PHE31      -0.0003
     80  CE2       57.4240   24.6930   16.6440 C.ar   31  PHE31      -0.0003
     81  CZ        56.2220   24.1900   16.1720 C.ar   31  PHE31      -0.0000
     82  N         48.9000   30.5060    9.9300 N.3    46  THR46      -0.1218
     83  CA        49.9390   30.1630   10.9000 C.3    46  THR46       0.1862
     84  C         51.3100   30.4210   10.2840 C.2    46  THR46       0.2287
     85  O         52.1860   30.9930   10.9340 O.2    46  THR46      -0.2866
     86  CB        49.8330   28.7050   11.3510 C.3    46  THR46       0.1770
     87  OG1       48.5980   28.5160   12.0530 O.3    46  THR46      -0.2211
     88  CG2       50.9870   28.3540   12.2770 C.3    46  THR46       0.0375
     89  N         52.2070   34.0260   10.4560 N.3    49  SER49      -0.1202
     90  CA        52.5550   34.4740   11.8030 C.3    49  SER49       0.2020
     91  C         54.0090   34.1530   12.1480 C.2    49  SER49       0.2618
     92  O         54.6340   34.8620   12.9370 O.2    49  SER49      -0.2717
     93  CB        51.6260   33.8560   12.8510 C.3    49  SER49       0.2103
     94  OG        51.8190   32.4580   12.9550 O.3    49  SER49      -0.2182
     95  N         54.5390   33.0800   11.5660 N.am   50  ILE50      -0.1979
     96  CA        55.9350   32.7030   11.7990 C.3    50  ILE50       0.1595
     97  C         56.8640   33.5850   10.9640 C.2    50  ILE50       0.2287
     98  O         57.7720   34.2140   11.5020 O.2    50  ILE50      -0.2864
     99  CB        56.2010   31.2150   11.5010 C.3    50  ILE50       0.0276
    100  CG1       55.2750   30.3170   12.3260 C.3    50  ILE50       0.0022
    101  CG2       57.6580   30.8690   11.7890 C.3    50  ILE50       0.0022
    102  CD1       55.4130   28.8410   12.0040 C.3    50  ILE50       0.0001
    103  N         59.0470   32.8490    8.5560 N.3    52  ARG52      -0.1245
    104  CA        60.2800   32.2300    8.0890 C.3    52  ARG52       0.1563
    105  C         60.2990   30.7210    8.4550 C.2    52  ARG52       0.2260
    106  O         59.5630   30.3030    9.3350 O.2    52  ARG52      -0.2867
    107  CB        61.4400   32.9520    8.6870 C.3    52  ARG52       0.0307
    108  CG        61.4340   32.7700   10.1550 C.3    52  ARG52       0.0489
    109  CD        62.0660   33.8840   10.8970 C.3    52  ARG52       0.2205
    110  NE        62.3770   33.3700   12.2010 N.pl3  52  ARG52      -0.0865
    111  CZ        61.4740   32.8370   13.0090 C.cat  52  ARG52       0.5346
    112  NH1       60.2190   32.8430   12.6380 N.pl3  52  ARG52       0.1354
    113  NH2       61.7890   32.3730   14.1940 N.pl3  52  ARG52       0.1354
    114  N         60.8870   26.9700    9.8860 N.3    54  LEU54      -0.1231
    115  CA        61.3470   26.3790   11.1390 C.3    54  LEU54       0.1678
    116  C         62.5350   25.4740   10.8490 C.2    54  LEU54       0.2434
    117  O         62.3910   24.4540   10.1680 O.2    54  LEU54      -0.2733
    118  CB        60.2330   25.5690   11.8030 C.3    54  LEU54       0.0284
    119  CG        59.0500   26.3700   12.3520 C.3    54  LEU54       0.0019
    120  CD1       57.9960   25.4420   12.9270 C.3    54  LEU54       0.0001
    121  CD2       59.5020   27.3560   13.4090 C.3    54  LEU54       0.0001
    122  N         63.7160   25.8360   11.3790 N.am   55  PRO55      -0.2729
    123  CA        64.9500   25.0710   11.1700 C.3    55  PRO55       0.1401
    124  C         64.8460   23.6680   11.7490 C.2    55  PRO55       0.2269
    125  O         64.2850   23.4850   12.8320 O.2    55  PRO55      -0.2865
    126  CB        65.9960   25.8750   11.9550 C.3    55  PRO55       0.0296
    127  CG        65.4360   27.2520   12.0480 C.3    55  PRO55       0.0237
    128  CD        63.9510   27.0470   12.1820 C.3    55  PRO55       0.0939
    129  N         63.2430   21.1310   10.4490 N.3    57  ARG57      -0.1245
    130  CA        62.0100   20.4450   10.0860 C.3    57  ARG57       0.1563
    131  C         61.6110   20.7140    8.6460 C.2    57  ARG57       0.2260
    132  O         61.8940   21.7820    8.1080 O.2    57  ARG57      -0.2867
    133  CB        60.8910   20.8840   11.0290 C.3    57  ARG57       0.0307
    134  CG        61.1020   20.4070   12.4480 C.3    57  ARG57       0.0489
    135  CD        60.6840   21.4310   13.4800 C.3    57  ARG57       0.2205
    136  NE        61.6890   22.4780   13.6290 N.pl3  57  ARG57      -0.0865
    137  CZ        61.6410   23.4400   14.5450 C.cat  57  ARG57       0.5346
    138  NH1       60.6370   23.4940   15.4160 N.pl3  57  ARG57       0.1354
    139  NH2       62.6020   24.3530   14.5940 N.pl3  57  ARG57       0.1354
    140  N         50.9330   21.5230   13.2620 N.3    94  ILE94      -0.1245
    141  CA        51.2490   22.6050   14.1920 C.3    94  ILE94       0.1561
    142  C         50.3130   23.8140   14.2040 C.2    94  ILE94       0.2260
    143  O         50.6340   24.8310   14.8240 O.2    94  ILE94      -0.2867
    144  CB        52.7080   23.0960   14.0210 C.3    94  ILE94       0.0252
    145  CG1       52.8930   23.8350   12.6890 C.3    94  ILE94       0.0019
    146  CG2       53.6580   21.9230   14.1230 C.3    94  ILE94       0.0019
    147  CD1       54.2060   24.6250   12.6140 C.3    94  ILE94       0.0001
    148  N         43.9100   22.2150   12.6060 N.3   100  TYR100     -0.1241
    149  CA        43.6780   21.2980   13.7140 C.3   100  TYR100      0.1605
    150  C         42.3300   20.5700   13.5680 C.2   100  TYR100      0.2264
    151  O         42.2400   19.3650   13.8330 O.2   100  TYR100     -0.2867
    152  CB        43.6720   22.0520   15.0400 C.3   100  TYR100      0.0534
    153  CG        45.0230   22.5130   15.5730 C.ar  100  TYR100     -0.0201
    154  CD1       46.1700   21.7390   15.4370 C.ar  100  TYR100     -0.0009
    155  CD2       45.1260   23.7240   16.2480 C.ar  100  TYR100     -0.0009
    156  CE1       47.3990   22.1830   15.9590 C.ar  100  TYR100      0.0417
    157  CE2       46.3320   24.1720   16.7630 C.ar  100  TYR100      0.0417
    158  CZ        47.4630   23.3980   16.6180 C.ar  100  TYR100      0.1957
    159  OH        48.6560   23.8700   17.1430 O.3   100  TYR100     -0.2866
    160  N         50.1590   21.8600   25.5650 N.3   113  THR113     -0.1218
    161  CA        50.6590   22.6800   26.6590 C.3   113  THR113      0.1862
    162  C         49.4780   23.4190   27.2430 C.2   113  THR113      0.2287
    163  O         48.9220   24.3020   26.5950 O.2   113  THR113     -0.2866
    164  CB        51.6780   23.7220   26.1690 C.3   113  THR113      0.1770
    165  OG1       52.7700   23.0650   25.5070 O.3   113  THR113     -0.2211
    166  CG2       52.2120   24.5150   27.3440 C.3   113  THR113      0.0375
@<TRIPOS>BOND
     1   104   105    1
     2   104   103    1
     3   104   107    1
     4   132   131    2
     5   105   106    2
     6   131   130    1
     7   107   108    1
     8   114   115    1
     9    82    83    1
    10   130   129    1
    11   130   133    1
    12   108   109    1
    13   117   116    2
    14    84    83    1
    15    84    85    2
    16    89    90    1
    17   116   115    1
    18   116   122   am
    19   109   110    1
    20    83    86    1
    21    97    98    2
    22    97    96    1
    23   133   134    1
    24   115   118    1
    25   123   122    1
    26   123   124    1
    27   123   126    1
    28    86    87    1
    29    86    88    1
    30   122   128    1
    31    99   101    1
    32    99    96    1
    33    99   100    1
    34    95    96    1
    35    95    91   am
    36   124   125    2
    37   118   119    1
    38    90    91    1
    39    90    93    1
    40   126   127    1
    41   102   100    1
    42   127   128    1
    43    91    92    2
    44   110   111    2
    45   119   120    1
    46   119   121    1
    47   134   135    1
    48   148   149    1
    49   147   145    1
    50   112   111    1
    51   145   144    1
    52    93    94    1
    53   111   113    1
    54   140   141    1
    55   135   136    1
    56   150   149    1
    57   150   151    2
    58   136   137    2
    59   149   152    1
    60   144   146    1
    61   144   141    1
    62   141   142    1
    63   142   143    2
    64   137   139    1
    65   137   138    1
    66   152   153    1
    67   154   153   ar
    68   154   156   ar
    69   153   155   ar
    70   156   158   ar
    71    81    80   ar
    72    81    79   ar
    73   155   157   ar
    74   158   157   ar
    75   158   159    1
    76    80    78   ar
    77    79    77   ar
    78     7     5    1
    79     1     2    1
    80     4     3    2
    81    78    76   ar
    82    77    76   ar
    83    26    25    1
    84     5     2    1
    85     5     6    1
    86    76    75    1
    87     2     3    1
    88     3     9   am
    89    74    73    2
    90    19    20    1
    91    24    25    1
    92    24    23    1
    93    73    72    1
    94     6     8    1
    95    13    10    1
    96     9    10    1
    97    75    72    1
    98    10    11    1
    99    20    23    1
   100    20    21    1
   101    72    71    1
   102    56    54    1
   103    54    55    1
   104    54    53    1
   105    52    51    2
   106    21    22    2
   107    11    14   am
   108    11    12    2
   109    14    15    1
   110    71    59   am
   111    60    59    2
   112    53    50    1
   113    50    51    1
   114    50    49    1
   115    17    16    2
   116    59    58    1
   117    15    18    1
   118    15    16    1
   119    48    46   ar
   120    38    40   ar
   121    38    36   ar
   122    40    39   ar
   123    44    43    2
   124    49    43   am
   125    36    35   ar
   126    36    34   ar
   127    30    29    2
   128    65    63   ar
   129    65    66   ar
   130    63    62   ar
   131    35    33   ar
   132    43    42    1
   133    39    37   ar
   134    46    47   ar
   135    46    45    1
   136    58    57    1
   137    58    61    1
   138    27    28    1
   139    34    37   ar
   140    34    32   ar
   141    62    61    1
   142    62    64   ar
   143    66    68   ar
   144    66    64   ar
   145    33    32   ar
   146    45    42    1
   147    68    70   ar
   148    29    28    1
   149   165   164    1
   150    64    67   ar
   151    42    41    1
   152    32    31    1
   153   160   161    1
   154    28    31    1
   155    70    69   ar
   156   164   161    1
   157   164   166    1
   158    67    69   ar
   159   163   162    2
   160   161   162    1
