@<TRIPOS>MOLECULE
tmp/4oreA00.pdb
 206 201 0 0 0
SMALL
GASTEIGER

@<TRIPOS>ATOM
      1  N        131.1810  107.0660   28.4230 N.3    67  THR67      -0.1218
      2  CA       130.3960  108.1760   27.8880 C.3    67  THR67       0.1862
      3  C        129.3880  108.6700   28.9260 C.2    67  THR67       0.2287
      4  O        128.7710  107.8730   29.6430 O.2    67  THR67      -0.2866
      5  CB       129.6510  107.7620   26.5980 C.3    67  THR67       0.1770
      6  OG1      128.4960  108.5840   26.4090 O.3    67  THR67      -0.2211
      7  CG2      129.1950  106.3080   26.6930 C.3    67  THR67       0.0375
      8  N        126.6250  111.3920   27.5820 N.3    68  GLY68      -0.1210
      9  CA       125.6690  110.3030   27.7120 C.3    68  GLY68       0.1956
     10  C        124.9130  109.9400   26.4450 C.2    68  GLY68       0.2612
     11  O        124.5600  108.7800   26.2360 O.2    68  GLY68      -0.2717
     12  N        124.6520  110.9250   25.5970 N.am   69  ASN69      -0.1960
     13  CA       123.9570  110.6750   24.3430 C.3    69  ASN69       0.1819
     14  C        124.6090  109.5710   23.5140 C.2    69  ASN69       0.2621
     15  O        123.9140  108.7590   22.8940 O.2    69  ASN69      -0.2715
     16  CB       123.8530  111.9590   23.5250 C.3    69  ASN69       0.1195
     17  CG       122.7400  112.8690   24.0100 C.2    69  ASN69       0.2630
     18  OD1      121.8780  112.4510   24.7830 O.2    69  ASN69      -0.2716
     19  ND2      122.7430  114.1070   23.5410 N.am   69  ASN69      -0.0877
     20  N        125.9430  109.5360   23.5180 N.am   70  THR70      -0.1951
     21  CA       126.6820  108.4670   22.8350 C.3    70  THR70       0.1897
     22  C        126.4270  107.0740   23.4340 C.2    70  THR70       0.2313
     23  O        126.2660  106.1030   22.7000 O.2    70  THR70      -0.2863
     24  CB       128.1890  108.7790   22.7520 C.3    70  THR70       0.1794
     25  OG1      128.3700  109.9030   21.8860 O.3    70  THR70      -0.2208
     26  CG2      128.9690  107.5920   22.1760 C.3    70  THR70       0.0378
     27  N        130.4530  104.5070   33.5010 N.3    89  MET89      -0.1231
     28  CA       129.9440  105.8000   33.9030 C.3    89  MET89       0.1687
     29  C        130.1580  105.9530   35.3940 C.2    89  MET89       0.2434
     30  O        130.1470  104.9700   36.1380 O.2    89  MET89      -0.2733
     31  CB       128.4550  105.9080   33.5710 C.3    89  MET89       0.0400
     32  CG       127.6680  104.6380   33.8780 C.3    89  MET89       0.0596
     33  SD       126.1600  104.5080   32.8880 S.3    89  MET89      -0.1393
     34  CE       126.8190  104.7890   31.2440 C.3    89  MET89       0.0692
     35  N        130.3770  107.1940   35.8370 N.am   90  PRO90      -0.2729
     36  CA       130.4740  107.4900   37.2680 C.3    90  PRO90       0.1401
     37  C        129.1580  107.2220   38.0090 C.2    90  PRO90       0.2269
     38  O        128.2460  106.5930   37.4660 O.2    90  PRO90      -0.2865
     39  CB       130.8070  108.9860   37.2880 C.3    90  PRO90       0.0296
     40  CG       131.4860  109.2330   35.9730 C.3    90  PRO90       0.0237
     41  CD       130.7700  108.3430   35.0020 C.3    90  PRO90       0.0939
     42  N        127.7400  109.9450   39.1200 N.3    92  THR92      -0.1203
     43  CA       127.3280  111.3370   39.2630 C.3    92  THR92       0.1994
     44  C        126.5830  111.9950   38.1040 C.2    92  THR92       0.2618
     45  O        125.6920  111.3940   37.4990 O.2    92  THR92      -0.2717
     46  CB       128.5390  112.2120   39.6290 C.3    92  THR92       0.1784
     47  OG1      129.6610  111.8210   38.8230 O.3    92  THR92      -0.2211
     48  CG2      128.8850  112.0390   41.1070 C.3    92  THR92       0.0376
     49  N        126.9670  113.2470   37.8350 N.am   93  MET93      -0.1965
     50  CA       126.2590  114.1540   36.9300 C.3    93  MET93       0.1736
     51  C        125.9880  113.5610   35.5560 C.2    93  MET93       0.2617
     52  O        126.6270  112.5870   35.1530 O.2    93  MET93      -0.2715
     53  CB       127.0160  115.4800   36.7910 C.3    93  MET93       0.0427
     54  CG       127.4870  116.0540   38.1310 C.3    93  MET93       0.0599
     55  SD       126.1530  116.7110   39.1220 S.3    93  MET93      -0.1393
     56  CE       125.4310  117.9490   38.1190 C.3    93  MET93       0.0692
     57  N        125.0440  114.1810   34.8520 N.am   94  SER94      -0.1950
     58  CA       124.4610  113.6430   33.6270 C.3    94  SER94       0.1924
     59  C        123.5890  112.4250   33.9380 C.2    94  SER94       0.2314
     60  O        123.4060  111.5570   33.0860 O.2    94  SER94      -0.2863
     61  CB       125.5370  113.3100   32.5780 C.3    94  SER94       0.2116
     62  OG       126.4840  114.3680   32.4480 O.3    94  SER94      -0.2180
     63  N        119.0570  108.5900   33.8400 N.3    97  ARG97      -0.1245
     64  CA       119.5640  108.0640   32.5780 C.3    97  ARG97       0.1563
     65  C        119.9940  106.6250   32.8210 C.2    97  ARG97       0.2260
     66  O        120.2920  105.8810   31.8890 O.2    97  ARG97      -0.2867
     67  CB       120.7920  108.8740   32.1560 C.3    97  ARG97       0.0307
     68  CG       120.8070  109.3650   30.7210 C.3    97  ARG97       0.0489
     69  CD       121.7700  110.5470   30.5970 C.3    97  ARG97       0.2205
     70  NE       122.0130  110.9310   29.2130 N.pl3  97  ARG97      -0.0865
     71  CZ       122.1980  112.1830   28.8000 C.cat  97  ARG97       0.5346
     72  NH1      122.1580  113.1930   29.6640 N.pl3  97  ARG97       0.1354
     73  NH2      122.4080  112.4260   27.5130 N.pl3  97  ARG97       0.1354
     74  N        134.2920  110.7110   37.7910 N.3   115  GLY115     -0.1210
     75  CA       134.5720  111.4270   36.5640 C.3   115  GLY115      0.1956
     76  C        134.9360  110.4580   35.4610 C.2   115  GLY115      0.2611
     77  O        134.8280  109.2460   35.6370 O.2   115  GLY115     -0.2717
     78  N        135.3830  110.9850   34.3280 N.am  116  MET116     -0.1979
     79  CA       135.5930  110.1560   33.1460 C.3   116  MET116      0.1605
     80  C        136.8020  109.2440   33.1910 C.2   116  MET116      0.2287
     81  O        136.7220  108.1070   32.7410 O.2   116  MET116     -0.2864
     82  CB       135.6360  111.0040   31.8840 C.3   116  MET116      0.0413
     83  CG       134.2900  111.0810   31.2150 C.3   116  MET116      0.0598
     84  SD       133.6650  109.4570   30.7540 S.3   116  MET116     -0.1393
     85  CE       134.4280  109.2580   29.1410 C.3   116  MET116      0.0692
     86  N        137.1440  105.6880   32.1870 N.3   120  ILE120     -0.1245
     87  CA       138.1090  105.3060   31.1560 C.3   120  ILE120      0.1561
     88  C        139.1700  104.3670   31.7250 C.2   120  ILE120      0.2260
     89  O        139.6510  103.4730   31.0290 O.2   120  ILE120     -0.2867
     90  CB       138.7600  106.5310   30.4600 C.3   120  ILE120      0.0252
     91  CG1      137.6850  107.4040   29.8100 C.3   120  ILE120      0.0019
     92  CG2      139.7350  106.0870   29.3900 C.3   120  ILE120      0.0019
     93  CD1      138.2370  108.5570   29.0050 C.3   120  ILE120      0.0001
     94  N        134.7820  107.3120   20.6240 N.3   139  GLN139     -0.1231
     95  CA       134.1000  108.3480   19.8630 C.3   139  GLN139      0.1698
     96  C        134.9500  109.6040   19.6320 C.2   139  GLN139      0.2592
     97  O        134.8730  110.2350   18.5800 O.2   139  GLN139     -0.2718
     98  CB       132.7960  108.7270   20.5660 C.3   139  GLN139      0.0381
     99  CG       132.9900  109.0900   22.0310 C.3   139  GLN139      0.0905
    100  CD       131.7930  109.7980   22.6070 C.2   139  GLN139      0.2608
    101  OE1      130.9570  110.3080   21.8660 O.2   139  GLN139     -0.2717
    102  NE2      131.6980  109.8360   23.9330 N.am  139  GLN139     -0.0878
    103  N        135.7730  109.9510   20.6120 N.am  140  PHE140     -0.1976
    104  CA       136.6000  111.1430   20.5050 C.3   140  PHE140      0.1639
    105  C        137.6280  111.0850   19.3830 C.2   140  PHE140      0.2290
    106  O        138.1020  112.1180   18.9430 O.2   140  PHE140     -0.2864
    107  CB       137.2570  111.4730   21.8450 C.3   140  PHE140      0.0560
    108  CG       136.2800  111.9570   22.8740 C.ar  140  PHE140     -0.0200
    109  CD1      135.8410  113.2730   22.8580 C.ar  140  PHE140     -0.0042
    110  CD2      135.7800  111.0910   23.8390 C.ar  140  PHE140     -0.0042
    111  CE1      134.9290  113.7230   23.7890 C.ar  140  PHE140     -0.0003
    112  CE2      134.8750  111.5320   24.7740 C.ar  140  PHE140     -0.0003
    113  CZ       134.4440  112.8500   24.7550 C.ar  140  PHE140     -0.0000
    114  N        131.6940  118.5010   20.9740 N.3   173  GLY173     -0.1210
    115  CA       131.9420  117.5210   22.0120 C.3   173  GLY173      0.1956
    116  C        133.0740  116.6400   21.5260 C.2   173  GLY173      0.2612
    117  O        134.1820  116.6990   22.0370 O.2   173  GLY173     -0.2717
    118  N        132.7900  115.8340   20.5140 N.am  174  THR174     -0.1952
    119  CA       133.8360  115.1070   19.8040 C.3   174  THR174      0.1897
    120  C        134.4200  115.9580   18.6680 C.2   174  THR174      0.2313
    121  O        135.5460  115.7420   18.2310 O.2   174  THR174     -0.2863
    122  CB       133.2800  113.8010   19.2030 C.3   174  THR174      0.1794
    123  OG1      132.2890  114.1070   18.2060 O.3   174  THR174     -0.2208
    124  CG2      132.6590  112.9390   20.3010 C.3   174  THR174      0.0378
    125  N        140.8030  124.4470   31.2100 N.3   217  PRO217     -0.2102
    126  CA       139.3920  124.0780   31.1360 C.3   217  PRO217      0.1504
    127  C        138.7430  124.2150   32.5050 C.2   217  PRO217      0.2576
    128  O        139.4650  124.3220   33.4990 O.2   217  PRO217     -0.2718
    129  CB       139.4470  122.6090   30.7220 C.3   217  PRO217      0.0282
    130  CG       140.7160  122.1150   31.3190 C.3   217  PRO217      0.0208
    131  CD       141.6860  123.2710   31.2900 C.3   217  PRO217      0.0893
    132  N        137.4100  124.2250   32.5490 N.am  218  GLY218     -0.1943
    133  CA       136.6810  124.2840   33.8030 C.3   218  GLY218      0.1998
    134  C        135.3140  123.6260   33.7100 C.2   218  GLY218      0.2481
    135  O        134.8470  123.3060   32.6160 O.2   218  GLY218     -0.2729
    136  N        134.6630  123.4240   34.8640 N.am  219  PRO219     -0.2715
    137  CA       133.3090  122.8560   34.9490 C.3   219  PRO219      0.1536
    138  C        132.2420  123.7840   34.3540 C.2   219  PRO219      0.2599
    139  O        132.3710  125.0000   34.4390 O.2   219  PRO219     -0.2715
    140  CB       133.0860  122.7130   36.4560 C.3   219  PRO219      0.0310
    141  CG       134.0570  123.7000   37.0760 C.3   219  PRO219      0.0237
    142  CD       135.2460  123.6740   36.1930 C.3   219  PRO219      0.0939
    143  N        131.1990  123.2030   33.7710 N.am  220  HIS220     -0.1960
    144  CA       130.1320  123.9750   33.1610 C.3   220  HIS220      0.1787
    145  C        128.8770  123.1240   33.0180 C.2   220  HIS220      0.2620
    146  O        128.9270  121.9090   33.1340 O.2   220  HIS220     -0.2715
    147  CB       130.5700  124.4910   31.7920 C.3   220  HIS220      0.0785
    148  CG       130.7910  123.4080   30.7840 C.ar  220  HIS220      0.0821
    149  ND1      129.7720  122.8850   30.0210 N.ar  220  HIS220     -0.2267
    150  CD2      131.9160  122.7550   30.4100 C.ar  220  HIS220      0.1154
    151  CE1      130.2570  121.9530   29.2210 C.ar  220  HIS220      0.1986
    152  NE2      131.5570  121.8610   29.4300 N.ar  220  HIS220     -0.2212
    153  N        127.7550  123.7700   32.7380 N.am  221  LYS221     -0.1977
    154  CA       126.4740  123.0840   32.7090 C.3   221  LYS221      0.1596
    155  C        125.9870  122.6570   31.3170 C.2   221  LYS221      0.2287
    156  O        124.9190  122.0480   31.2030 O.2   221  LYS221     -0.2864
    157  CB       125.4200  123.9630   33.3750 C.3   221  LYS221      0.0298
    158  CG       125.7070  124.2620   34.8300 C.3   221  LYS221      0.0038
    159  CD       124.6960  125.2500   35.3990 C.3   221  LYS221      0.0206
    160  CE       124.9350  125.5170   36.8910 C.3   221  LYS221      0.1093
    161  NZ       124.3070  124.4760   37.7710 N.3   221  LYS221     -0.1314
    162  N        125.7360  120.3470   28.8960 N.3   223  GLN223     -0.1231
    163  CA       125.9450  118.9280   28.6840 C.3   223  GLN223      0.1698
    164  C        126.1340  118.5960   27.2000 C.2   223  GLN223      0.2593
    165  O        125.3860  119.0750   26.3520 O.2   223  GLN223     -0.2718
    166  CB       124.7620  118.1630   29.2770 C.3   223  GLN223      0.0381
    167  CG       125.1110  116.8020   29.8410 C.3   223  GLN223      0.0905
    168  CD       123.9930  116.2210   30.7030 C.2   223  GLN223      0.2608
    169  OE1      123.0830  115.5650   30.1980 O.2   223  GLN223     -0.2717
    170  NE2      124.0590  116.4660   32.0100 N.am  223  GLN223     -0.0878
    171  N        127.1480  117.7910   26.8870 N.am  224  GLY224     -0.1942
    172  CA       127.3810  117.3680   25.5140 C.3   224  GLY224      0.2014
    173  C        128.5130  118.1000   24.8200 C.2   224  GLY224      0.2639
    174  O        129.0340  117.6300   23.8090 O.2   224  GLY224     -0.2714
    175  N        128.8970  119.2580   25.3490 N.am  225  ILE225     -0.1963
    176  CA       130.0340  119.9810   24.7930 C.3   225  ILE225      0.1727
    177  C        131.0070  120.3170   25.9080 C.2   225  ILE225      0.2617
    178  O        130.7560  120.0200   27.0780 O.2   225  ILE225     -0.2715
    179  CB       129.6240  121.2950   24.0470 C.3   225  ILE225      0.0290
    180  CG1      129.1990  122.4020   25.0300 C.3   225  ILE225      0.0022
    181  CG2      128.5490  121.0370   23.0020 C.3   225  ILE225      0.0023
    182  CD1      128.8780  123.7340   24.3420 C.3   225  ILE225      0.0001
    183  N        132.1240  120.9350   25.5400 N.am  226  GLY226     -0.1940
    184  CA       133.1000  121.3710   26.5190 C.3   226  GLY226      0.2014
    185  C        133.8050  120.2150   27.2010 C.2   226  GLY226      0.2639
    186  O        133.6930  120.0520   28.4150 O.2   226  GLY226     -0.2714
    187  N        134.5320  119.4220   26.4130 N.am  227  ALA227     -0.1963
    188  CA       135.2770  118.2770   26.9340 C.3   227  ALA227      0.1728
    189  C        136.5390  118.6840   27.6980 C.2   227  ALA227      0.2617
    190  O        137.1290  117.8800   28.4160 O.2   227  ALA227     -0.2715
    191  CB       135.6380  117.3200   25.8010 C.3   227  ALA227      0.0334
    192  N        136.9690  119.9250   27.5310 N.am  228  GLY228     -0.1940
    193  CA       138.1550  120.3840   28.2310 C.3   228  GLY228      0.2014
    194  C        139.4670  119.9120   27.6260 C.2   228  GLY228      0.2638
    195  O        140.5110  119.9990   28.2680 O.2   228  GLY228     -0.2714
    196  N        139.4100  119.4000   26.4000 N.am  229  PHE229     -0.1973
    197  CA       140.6060  119.1320   25.6170 C.3   229  PHE229      0.1639
    198  C        140.2400  119.2160   24.1440 C.2   229  PHE229      0.2290
    199  O        139.0650  119.2340   23.7970 O.2   229  PHE229     -0.2864
    200  CB       141.1780  117.7560   25.9460 C.3   229  PHE229      0.0560
    201  CG       140.1690  116.6540   25.8480 C.ar  229  PHE229     -0.0200
    202  CD1      139.9320  116.0230   24.6380 C.ar  229  PHE229     -0.0042
    203  CD2      139.4350  116.2690   26.9620 C.ar  229  PHE229     -0.0042
    204  CE1      138.9940  115.0200   24.5430 C.ar  229  PHE229     -0.0003
    205  CE2      138.5000  115.2720   26.8740 C.ar  229  PHE229     -0.0003
    206  CZ       138.2810  114.6400   25.6640 C.ar  229  PHE229     -0.0000
@<TRIPOS>BOND
     1   123   122    1
     2   121   120    2
     3    97    96    2
     4   120   119    1
     5   106   105    2
     6   122   119    1
     7   122   124    1
     8   105   104    1
     9    96    95    1
    10    96   103   am
    11   119   118    1
    12    95    98    1
    13    95    94    1
    14   104   103    1
    15   104   107    1
    16   118   116   am
    17    98    99    1
    18   114   115    1
    19   116   115    1
    20   116   117    2
    21   107   108    1
    22   101   100    2
    23    25    24    1
    24    99   100    1
    25    26    24    1
    26   100   102   am
    27    23    22    2
    28    24    21    1
    29    21    22    1
    30    21    20    1
    31   109   108   ar
    32   109   111   ar
    33   108   110   ar
    34    15    14    2
    35   181   179    1
    36    14    20   am
    37    14    13    1
    38    16    17    1
    39    16    13    1
    40    19    17   am
    41   111   113   ar
    42   199   198    2
    43   174   173    2
    44   110   112   ar
    45    17    18    2
    46   179   176    1
    47   179   180    1
    48   198   197    1
    49   182   180    1
    50    13    12    1
    51   204   202   ar
    52   204   206   ar
    53   202   201   ar
    54   113   112   ar
    55   176   175    1
    56   176   177    1
    57   173   175   am
    58   173   172    1
    59   172   171    1
    60   183   177   am
    61   183   184    1
    62    12    10   am
    63   197   200    1
    64   197   196    1
    65   206   205   ar
    66   191   188    1
    67   201   200    1
    68   201   203   ar
    69   177   178    2
    70    11    10    2
    71   165   164    2
    72   196   194   am
    73     6     5    1
    74   187   188    1
    75   187   185   am
    76    10     9    1
    77   184   185    1
    78     5     7    1
    79     5     2    1
    80   205   203   ar
    81   171   164   am
    82   188   189    1
    83   164   163    1
    84   185   186    2
    85    73    71    1
    86   192   189   am
    87   192   193    1
    88     8     9    1
    89   194   193    1
    90   194   195    2
    91   189   190    2
    92     2     1    1
    93     2     3    1
    94   163   162    1
    95   163   166    1
    96    71    70    2
    97    71    72    1
    98     3     4    2
    99    93    91    1
   100    85    84    1
   101    70    69    1
   102   151   152   ar
   103   151   149   ar
   104   166   167    1
   105    92    90    1
   106   152   150   ar
   107    91    90    1
   108   167   168    1
   109   149   148   ar
   110   169   168    2
   111   150   148   ar
   112    90    87    1
   113    69    68    1
   114   168   170   am
   115    68    67    1
   116   129   126    1
   117   129   130    1
   118    84    83    1
   119   148   147    1
   120    89    88    2
   121   126   125    1
   122   126   127    1
   123    87    88    1
   124    87    86    1
   125   156   155    2
   126   125   131    1
   127    83    82    1
   128    34    33    1
   129   131   130    1
   130   155   154    1
   131   147   144    1
   132    82    79    1
   133    66    65    2
   134    67    64    1
   135    62    61    1
   136   127   132   am
   137   127   128    2
   138   132   133    1
   139    64    65    1
   140    64    63    1
   141    61    58    1
   142   135   134    2
   143   154   153    1
   144   154   157    1
   145   153   145   am
   146    81    80    2
   147    33    32    1
   148   145   146    2
   149   145   144    1
   150    60    59    2
   151    79    80    1
   152    79    78    1
   153   144   143    1
   154   157   158    1
   155    27    28    1
   156    31    32    1
   157    31    28    1
   158    58    59    1
   159    58    57    1
   160   134   133    1
   161   134   136   am
   162   143   138   am
   163    28    29    1
   164    78    76   am
   165   138   139    2
   166   138   137    1
   167   158   159    1
   168    57    51   am
   169   136   137    1
   170   136   142    1
   171   137   140    1
   172    41    35    1
   173    41    40    1
   174    52    51    2
   175    29    35   am
   176    29    30    2
   177   159   160    1
   178    76    77    2
   179    76    75    1
   180    51    50    1
   181    35    36    1
   182    40    39    1
   183   142   141    1
   184   140   141    1
   185    75    74    1
   186    53    50    1
   187    53    54    1
   188   160   161    1
   189    50    49    1
   190    36    39    1
   191    36    37    1
   192    38    37    2
   193    45    44    2
   194    49    44   am
   195    44    43    1
   196    56    55    1
   197    54    55    1
   198    47    46    1
   199    42    43    1
   200    43    46    1
   201    46    48    1
