@<TRIPOS>MOLECULE
tmp/4ormA00.pdb
 171 159 0 0 0
SMALL
GASTEIGER

@<TRIPOS>ATOM
      1  N          6.6190   34.8180  -21.7840 N.3    12  LEU12      -0.1245
      2  CA         5.6060   34.0510  -21.1170 C.3    12  LEU12       0.1561
      3  C          4.2430   34.3290  -21.6730 C.2    12  LEU12       0.2260
      4  O          3.4690   33.4460  -21.8420 O.2    12  LEU12      -0.2867
      5  CB         5.6450   34.3150  -19.6270 C.3    12  LEU12       0.0270
      6  CG         4.6980   33.5270  -18.7450 C.3    12  LEU12       0.0019
      7  CD1        5.4490   32.8950  -17.6030 C.3    12  LEU12       0.0001
      8  CD2        3.6040   34.4200  -18.2260 C.3    12  LEU12       0.0001
      9  N          1.7030   31.8140  -23.4610 N.3    16  LEU16      -0.1245
     10  CA         0.3560   31.6910  -23.0080 C.3    16  LEU16       0.1561
     11  C         -0.5890   31.7440  -24.1960 C.2    16  LEU16       0.2260
     12  O         -1.5310   31.0090  -24.2660 O.2    16  LEU16      -0.2867
     13  CB         0.0700   32.7940  -22.0200 C.3    16  LEU16       0.0270
     14  CG        -1.3120   32.9630  -21.4360 C.3    16  LEU16       0.0019
     15  CD1       -1.8000   31.7040  -20.7840 C.3    16  LEU16       0.0001
     16  CD2       -1.2700   34.0910  -20.4500 C.3    16  LEU16       0.0001
     17  N         -0.7780   24.6040  -21.9830 N.3    21  GLY21      -0.1210
     18  CA        -0.4700   24.9960  -20.5800 C.3    21  GLY21       0.1956
     19  C          0.5300   24.0600  -19.9450 C.2    21  GLY21       0.2611
     20  O          1.6260   24.4830  -19.4650 O.2    21  GLY21      -0.2717
     21  N          0.2360   22.7560  -19.9840 N.am   22  GLU22      -0.1979
     22  CA         1.1830   21.8110  -19.3180 C.3    22  GLU22       0.1602
     23  C          2.5190   21.8890  -19.9320 C.2    22  GLU22       0.2287
     24  O          3.5760   21.9480  -19.2250 O.2    22  GLU22      -0.2864
     25  CB         0.6080   20.3720  -19.1780 C.3    22  GLU22       0.0415
     26  CG         1.5660   19.4780  -18.3270 C.3    22  GLU22       0.1163
     27  CD         0.8340   18.2710  -17.7960 C.2    22  GLU22       0.3649
     28  OE1       -0.3820   18.0390  -18.1280 O.co2  22  GLU22      -0.2457
     29  OE2        1.4360   17.6290  -16.9540 O.co2  22  GLU22      -0.2457
     30  N          3.8940   24.5840  -21.4690 N.3    24  CYS24      -0.1221
     31  CA         4.4850   25.8600  -21.0380 C.3    24  CYS24       0.1808
     32  C          4.9950   25.6630  -19.5690 C.2    24  CYS24       0.2601
     33  O          6.0300   26.1430  -19.2190 O.2    24  CYS24      -0.2717
     34  CB         3.3940   26.8890  -20.8370 C.3    24  CYS24       0.0970
     35  SG         2.8320   27.6240  -22.4130 S.3    24  CYS24      -0.0800
     36  N          4.1290   25.1050  -18.7550 N.am   25  HIS25      -0.1975
     37  CA         4.4730   24.8910  -17.3230 C.3    25  HIS25       0.1656
     38  C          5.7850   24.1950  -17.2380 C.2    25  HIS25       0.2291
     39  O          6.7320   24.6900  -16.6230 O.2    25  HIS25      -0.2864
     40  CB         3.3790   24.1430  -16.6210 C.3    25  HIS25       0.0771
     41  CG         3.5560   24.1680  -15.0900 C.ar   25  HIS25       0.0820
     42  ND1        3.4140   25.3010  -14.3700 N.ar   25  HIS25      -0.2267
     43  CD2        3.8880   23.1690  -14.1930 C.ar   25  HIS25       0.1154
     44  CE1        3.6170   25.0260  -13.0470 C.ar   25  HIS25       0.1986
     45  NE2        3.8930   23.7230  -12.9430 N.ar   25  HIS25      -0.2212
     46  N          8.9770   26.3280  -18.3700 N.3    28  PHE28      -0.1227
     47  CA         9.4620   27.2960  -17.3770 C.3    28  PHE28       0.1736
     48  C         10.1020   26.5320  -16.1610 C.2    28  PHE28       0.2595
     49  O         11.1400   26.9210  -15.6680 O.2    28  PHE28      -0.2718
     50  CB         8.3290   28.2230  -17.0190 C.3    28  PHE28       0.0547
     51  CG         8.1020   29.2450  -18.1260 C.ar   28  PHE28      -0.0202
     52  CD1        9.1170   30.1720  -18.4180 C.ar   28  PHE28      -0.0042
     53  CD2        6.9490   29.2070  -18.9390 C.ar   28  PHE28      -0.0042
     54  CE1        8.9580   31.0840  -19.4960 C.ar   28  PHE28      -0.0003
     55  CE2        6.7740   30.1490  -19.9930 C.ar   28  PHE28      -0.0003
     56  CZ         7.8140   31.0250  -20.2840 C.ar   28  PHE28      -0.0000
     57  N          9.5220   25.3960  -15.8050 N.am   29  LEU29      -0.1980
     58  CA        10.2070   24.5360  -14.7900 C.3    29  LEU29       0.1596
     59  C         11.5720   24.1610  -15.2300 C.2    29  LEU29       0.2287
     60  O         12.4960   24.2010  -14.4390 O.2    29  LEU29      -0.2864
     61  CB         9.3280   23.3320  -14.4350 C.3    29  LEU29       0.0297
     62  CG         8.0700   23.5360  -13.7020 C.3    29  LEU29       0.0022
     63  CD1        7.3500   22.1960  -13.5330 C.3    29  LEU29       0.0001
     64  CD2        8.2330   24.1870  -12.2870 C.3    29  LEU29       0.0001
     65  N         16.3570   31.7860  -14.8110 N.3    37  LEU37      -0.1245
     66  CA        15.3190   32.6820  -14.5030 C.3    37  LEU37       0.1561
     67  C         15.9220   33.8500  -13.6510 C.2    37  LEU37       0.2260
     68  O         17.0760   33.7580  -13.1160 O.2    37  LEU37      -0.2867
     69  CB        14.1570   31.9910  -13.7700 C.3    37  LEU37       0.0270
     70  CG        13.4750   30.8350  -14.5610 C.3    37  LEU37       0.0019
     71  CD1       12.2470   30.3830  -13.8170 C.3    37  LEU37       0.0001
     72  CD2       13.1250   31.2610  -15.9930 C.3    37  LEU37       0.0001
     73  N          2.4280   22.9270   -8.2980 N.3    67  PHE67      -0.1241
     74  CA         3.2440   23.7390   -9.2020 C.3    67  PHE67       0.1605
     75  C          4.4990   23.0290   -9.5300 C.2    67  PHE67       0.2264
     76  O          4.8890   22.8660  -10.7020 O.2    67  PHE67      -0.2867
     77  CB         3.5430   25.1350   -8.5520 C.3    67  PHE67       0.0534
     78  CG         3.8120   26.1990   -9.5710 C.ar   67  PHE67      -0.0203
     79  CD1        5.0860   26.3810  -10.0600 C.ar   67  PHE67      -0.0042
     80  CD2        2.7690   26.9910  -10.0280 C.ar   67  PHE67      -0.0042
     81  CE1        5.3870   27.3710  -11.0150 C.ar   67  PHE67      -0.0003
     82  CE2        3.0530   27.9530  -10.9830 C.ar   67  PHE67      -0.0003
     83  CZ         4.3100   28.1550  -11.4350 C.ar   67  PHE67      -0.0000
     84  N         12.6400   22.3190   -9.4230 N.3    73  CYS73      -0.1235
     85  CA        12.8390   23.7450   -9.7640 C.3    73  CYS73       0.1677
     86  C         12.7320   24.5800   -8.4820 C.2    73  CYS73       0.2270
     87  O         12.3090   25.7210   -8.5130 O.2    73  CYS73      -0.2867
     88  CB        11.6030   24.2090  -10.7320 C.3    73  CYS73       0.0956
     89  SG        12.1030   25.7340  -11.4510 S.3    73  CYS73      -0.0801
     90  N         12.3330   28.8380   -8.2610 N.3    77  ILE77      -0.1245
     91  CA        11.0640   29.3700   -7.8800 C.3    77  ILE77       0.1561
     92  C         11.1110   30.2480   -6.6040 C.2    77  ILE77       0.2260
     93  O         10.5640   31.3790   -6.5400 O.2    77  ILE77      -0.2867
     94  CB         9.9790   28.2460   -7.7710 C.3    77  ILE77       0.0252
     95  CG1        9.6160   27.6010   -9.1730 C.3    77  ILE77       0.0019
     96  CG2        8.6800   28.7280   -7.1760 C.3    77  ILE77       0.0019
     97  CD1        8.7320   26.3300   -9.0030 C.3    77  ILE77       0.0001
     98  N         12.4710   33.7010   -7.1550 N.3    80  LEU80      -0.1245
     99  CA        11.5560   34.7040   -7.7190 C.3    80  LEU80       0.1561
    100  C         11.0090   35.6550   -6.6600 C.2    80  LEU80       0.2260
    101  O         10.3700   36.6490   -7.0350 O.2    80  LEU80      -0.2867
    102  CB        10.3580   34.0350   -8.5210 C.3    80  LEU80       0.0270
    103  CG        10.8810   33.2560   -9.7480 C.3    80  LEU80       0.0019
    104  CD1        9.5820   32.5100  -10.2670 C.3    80  LEU80       0.0001
    105  CD2       11.4640   34.1180  -10.8790 C.3    80  LEU80       0.0001
    106  N         -4.7540   20.0410  -18.6290 N.3   103  ILE103     -0.1245
    107  CA        -4.9070   21.3950  -18.0470 C.3   103  ILE103      0.1561
    108  C         -5.2590   22.4540  -19.1330 C.2   103  ILE103      0.2260
    109  O         -4.5210   22.5500  -20.1700 O.2   103  ILE103     -0.2867
    110  CB        -3.6060   21.9060  -17.3700 C.3   103  ILE103      0.0252
    111  CG1       -2.8310   20.7450  -16.6520 C.3   103  ILE103      0.0019
    112  CG2       -3.9350   23.0080  -16.3430 C.3   103  ILE103      0.0019
    113  CD1       -1.4350   21.1270  -16.2020 C.3   103  ILE103      0.0001
    114  N         -6.4750   26.8320  -19.6320 N.3   105  ARG105     -0.1245
    115  CA        -6.7090   28.1140  -19.0090 C.3   105  ARG105      0.1563
    116  C         -7.6800   29.0020  -19.7630 C.2   105  ARG105      0.2260
    117  O         -7.8390   28.8800  -20.9530 O.2   105  ARG105     -0.2867
    118  CB        -5.4200   28.8410  -18.6900 C.3   105  ARG105      0.0307
    119  CG        -4.4360   28.9550  -19.7890 C.3   105  ARG105      0.0489
    120  CD        -3.4590   27.8370  -19.7260 C.3   105  ARG105      0.2205
    121  NE        -2.1560   28.2240  -20.1820 N.pl3 105  ARG105     -0.0865
    122  CZ        -1.6800   28.0250  -21.3890 C.cat 105  ARG105      0.5346
    123  NH1       -2.4120   27.4620  -22.3150 N.pl3 105  ARG105      0.1354
    124  NH2       -0.4610   28.3880  -21.6580 N.pl3 105  ARG105      0.1354
    125  N         -8.3420   28.4660  -14.4340 N.3   112  ILE112     -0.1245
    126  CA        -7.6550   27.2770  -14.9150 C.3   112  ILE112      0.1561
    127  C         -8.5340   26.1110  -14.5450 C.2   112  ILE112      0.2260
    128  O         -9.2220   26.1870  -13.5210 O.2   112  ILE112     -0.2867
    129  CB        -6.2500   27.1750  -14.3210 C.3   112  ILE112      0.0252
    130  CG1       -5.4520   28.3900  -14.7510 C.3   112  ILE112      0.0019
    131  CG2       -5.5750   25.8650  -14.7700 C.3   112  ILE112      0.0019
    132  CD1       -4.0090   28.4340  -14.2780 C.3   112  ILE112      0.0001
    133  N         -0.7390   30.3400   -7.4040 N.3   338  TYR338     -0.1241
    134  CA        -0.5860   29.4190   -8.5130 C.3   338  TYR338      0.1605
    135  C         -0.9820   30.0760   -9.8440 C.2   338  TYR338      0.2264
    136  O         -0.1540   30.3990  -10.6560 O.2   338  TYR338     -0.2867
    137  CB        -1.3360   28.1220   -8.2720 C.3   338  TYR338      0.0534
    138  CG        -0.8940   26.9890   -9.1610 C.ar  338  TYR338     -0.0201
    139  CD1       -0.8110   27.1440  -10.5230 C.ar  338  TYR338     -0.0009
    140  CD2       -0.5830   25.7640   -8.6400 C.ar  338  TYR338     -0.0009
    141  CE1       -0.4130   26.1260  -11.3320 C.ar  338  TYR338      0.0417
    142  CE2       -0.1820   24.7360   -9.4380 C.ar  338  TYR338      0.0417
    143  CZ        -0.1120   24.9210  -10.7830 C.ar  338  TYR338      0.1957
    144  OH         0.2930   23.9200  -11.5760 O.3   338  TYR338     -0.2866
    145  N          0.8430   33.1470  -11.2610 N.3   341  LEU341     -0.1231
    146  CA         2.0540   32.9390  -12.0230 C.3   341  LEU341      0.1693
    147  C          1.7470   32.6330  -13.4790 C.2   341  LEU341      0.2591
    148  O          2.4810   33.0050  -14.3420 O.2   341  LEU341     -0.2718
    149  CB         2.9350   31.8650  -11.4140 C.3   341  LEU341      0.0284
    150  CG         3.7020   32.2430  -10.1580 C.3   341  LEU341      0.0019
    151  CD1        4.0020   31.0060   -9.3810 C.3   341  LEU341      0.0001
    152  CD2        4.9890   32.9450  -10.4640 C.3   341  LEU341      0.0001
    153  N          0.6950   31.8840  -13.7270 N.am  342  VAL342     -0.1980
    154  CA         0.3180   31.5670  -15.0820 C.3   342  VAL342      0.1595
    155  C         -0.0760   32.7870  -15.8930 C.2   342  VAL342      0.2287
    156  O          0.3690   32.9450  -16.9790 O.2   342  VAL342     -0.2864
    157  CB        -0.8400   30.5640  -15.0830 C.3   342  VAL342      0.0276
    158  CG1       -1.3690   30.3190  -16.4760 C.3   342  VAL342      0.0022
    159  CG2       -0.4110   29.2660  -14.4450 C.3   342  VAL342      0.0022
    160  N          2.8440   35.9870  -14.6800 N.3   345  GLY345     -0.1210
    161  CA         4.2340   35.6750  -14.8610 C.3   345  GLY345      0.1956
    162  C          5.1780   35.8130  -13.6930 C.2   345  GLY345      0.2611
    163  O          4.8040   35.8580  -12.5630 O.2   345  GLY345     -0.2717
    164  N          6.4350   35.8850  -14.0420 N.am  346  MET346     -0.1979
    165  CA         7.5630   35.8180  -13.1660 C.3   346  MET346      0.1605
    166  C          7.7180   36.9050  -12.1290 C.2   346  MET346      0.2287
    167  O          8.3740   36.7100  -11.1440 O.2   346  MET346     -0.2864
    168  CB         8.8080   35.7930  -14.0010 C.3   346  MET346      0.0413
    169  CG         9.2840   34.4060  -14.1870 C.3   346  MET346      0.0598
    170  SD        10.6020   34.3610  -15.3240 S.3   346  MET346     -0.1393
    171  CE         9.8830   33.2010  -16.4220 C.3   346  MET346      0.0692
@<TRIPOS>BOND
     1    12    11    2
     2    11    10    1
     3     9    10    1
     4    10    13    1
     5    35    34    1
     6   123   122    1
     7    13    14    1
     8    17    18    1
     9     4     3    2
    10     1     2    1
    11     3     2    1
    12   124   122    1
    13    30    31    1
    14    14    15    1
    15    14    16    1
    16   122   121    2
    17     2     5    1
    18    31    34    1
    19    31    32    1
    20   117   116    2
    21    18    19    1
    22    56    55   ar
    23    56    54   ar
    24   121   120    1
    25   109   108    2
    26    55    53   ar
    27    21    19   am
    28    21    22    1
    29    19    20    2
    30    23    22    1
    31    23    24    2
    32   119   120    1
    33   119   118    1
    34   116   115    1
    35   114   115    1
    36     5     6    1
    37    32    33    2
    38    32    36   am
    39    54    52   ar
    40    22    25    1
    41    25    26    1
    42   108   107    1
    43   115   118    1
    44    53    51   ar
    45    36    37    1
    46     6     8    1
    47     6     7    1
    48   106   107    1
    49    52    51   ar
    50    46    47    1
    51    26    27    1
    52    28    27   ar
    53    51    50    1
    54   107   110    1
    55    27    29   ar
    56    47    50    1
    57    47    48    1
    58   110   111    1
    59   110   112    1
    60    37    38    1
    61    37    40    1
    62    38    39    2
    63   156   155    2
    64   111   113    1
    65    40    41    1
    66   158   157    1
    67   171   170    1
    68    48    57   am
    69    48    49    2
    70    72    70    1
    71   155   154    1
    72    57    58    1
    73   170   169    1
    74    59    58    1
    75    59    60    2
    76    41    42   ar
    77    41    43   ar
    78   157   154    1
    79   157   159    1
    80   154   153    1
    81   126   127    1
    82   126   125    1
    83   126   129    1
    84   161   160    1
    85   161   162    1
    86    65    66    1
    87    58    61    1
    88   131   129    1
    89   130   129    1
    90   130   132    1
    91    70    71    1
    92    70    69    1
    93   127   128    2
    94    66    69    1
    95    66    67    1
    96    61    62    1
    97    42    44   ar
    98   148   147    2
    99    43    45   ar
   100   169   168    1
   101   164   162   am
   102   164   165    1
   103   168   165    1
   104   153   147   am
   105    62    63    1
   106    62    64    1
   107   162   163    2
   108    67    68    2
   109   147   146    1
   110   165   166    1
   111    44    45   ar
   112   166   167    2
   113   146   149    1
   114   146   145    1
   115   144   143    1
   116    89    88    1
   117    83    81   ar
   118    83    82   ar
   119   149   150    1
   120   141   143   ar
   121   141   139   ar
   122    81    79   ar
   123    82    80   ar
   124   105   103    1
   125   143   142   ar
   126    88    85    1
   127    76    75    2
   128   136   135    2
   129   139   138   ar
   130   152   150    1
   131   104   103    1
   132   150   151    1
   133    79    78   ar
   134    80    78   ar
   135   135   134    1
   136    85    84    1
   137    85    86    1
   138   103   102    1
   139    78    77    1
   140    75    74    1
   141   142   140   ar
   142    74    77    1
   143    74    73    1
   144    95    97    1
   145    95    94    1
   146   138   140   ar
   147   138   137    1
   148   102    99    1
   149    87    86    2
   150   134   137    1
   151   134   133    1
   152    90    91    1
   153    91    94    1
   154    91    92    1
   155    94    96    1
   156    99    98    1
   157    99   100    1
   158   101   100    2
   159    92    93    2
