@<TRIPOS>MOLECULE
tmp/4orvD02.pdb
 101 99 0 0 0
SMALL
GASTEIGER

@<TRIPOS>ATOM
      1  N        -20.4610  -12.1530  -25.1020 N.3    24  GLU24      -0.1245
      2  CA       -21.1460  -12.9450  -26.1020 C.3    24  GLU24       0.1567
      3  C        -22.4860  -12.2870  -26.4140 C.2    24  GLU24       0.2260
      4  O        -23.2310  -11.8750  -25.5250 O.2    24  GLU24      -0.2867
      5  CB       -21.3610  -14.3740  -25.6030 C.3    24  GLU24       0.0388
      6  CG       -20.3670  -15.3810  -26.1570 C.3    24  GLU24       0.1160
      7  CD       -19.8790  -16.3570  -25.1050 C.2    24  GLU24       0.3649
      8  OE1      -18.6630  -16.6420  -25.0740 O.co2  24  GLU24      -0.2457
      9  OE2      -20.7110  -16.8400  -24.3080 O.co2  24  GLU24      -0.2457
     10  N        -20.4740  -15.7420  -12.2770 N.3    66  TRP66      -0.1227
     11  CA       -20.8880  -15.3840  -13.6370 C.3    66  TRP66       0.1737
     12  C        -20.5820  -13.9470  -14.0380 C.2    66  TRP66       0.2595
     13  O        -20.4270  -13.0850  -13.1820 O.2    66  TRP66      -0.2718
     14  CB       -22.3770  -15.6050  -13.7960 C.3    66  TRP66       0.0564
     15  CG       -22.7600  -17.0170  -13.8460 C.ar   66  TRP66       0.0003
     16  CD1      -21.9320  -18.0970  -13.8260 C.ar   66  TRP66       0.0946
     17  CD2      -24.0810  -17.5220  -13.9990 C.ar   66  TRP66       0.0152
     18  NE1      -22.6600  -19.2510  -13.9660 N.ar   66  TRP66      -0.2442
     19  CE2      -23.9840  -18.9240  -14.0740 C.ar   66  TRP66       0.0810
     20  CE3      -25.3430  -16.9230  -14.0820 C.ar   66  TRP66       0.0012
     21  CZ2      -25.0980  -19.7370  -14.2310 C.ar   66  TRP66       0.0191
     22  CZ3      -26.4530  -17.7330  -14.2400 C.ar   66  TRP66       0.0001
     23  CH2      -26.3240  -19.1260  -14.3130 C.ar   66  TRP66       0.0015
     24  N        -20.5340  -13.6990  -15.3490 N.am   67  CYS67      -0.1970
     25  CA       -20.2310  -12.3730  -15.8940 C.3    67  CYS67       0.1712
     26  C        -21.3090  -11.3000  -15.6440 C.2    67  CYS67       0.2296
     27  O        -21.0350  -10.1030  -15.7540 O.2    67  CYS67      -0.2864
     28  CB       -19.9500  -12.4850  -17.4000 C.3    67  CYS67       0.0983
     29  SG       -21.3690  -13.1010  -18.3620 S.3    67  CYS67      -0.0798
     30  N        -29.6810   -8.8030  -18.9720 N.3    85  ARG85      -0.1245
     31  CA       -28.6550   -8.8130  -20.0010 C.3    85  ARG85       0.1563
     32  C        -29.2150   -8.1680  -21.2580 C.2    85  ARG85       0.2260
     33  O        -28.4910   -7.9280  -22.2240 O.2    85  ARG85      -0.2867
     34  CB       -28.2010  -10.2430  -20.2960 C.3    85  ARG85       0.0307
     35  CG       -27.4520  -10.9060  -19.1510 C.3    85  ARG85       0.0489
     36  CD       -26.7050  -12.1420  -19.6230 C.3    85  ARG85       0.2205
     37  NE       -26.1370  -12.8960  -18.5090 N.pl3  85  ARG85      -0.0865
     38  CZ       -25.1710  -13.8010  -18.6340 C.cat  85  ARG85       0.5346
     39  NH1      -24.6610  -14.0680  -19.8290 N.pl3  85  ARG85       0.1354
     40  NH2      -24.7150  -14.4390  -17.5650 N.pl3  85  ARG85       0.1354
     41  N        -26.0240  -12.6990  -24.8620 N.3    90  LYS90      -0.1231
     42  CA       -26.4620  -14.0660  -24.5820 C.3    90  LYS90       0.1693
     43  C        -26.6630  -14.2880  -23.0890 C.2    90  LYS90       0.2593
     44  O        -25.7850  -13.9920  -22.2720 O.2    90  LYS90      -0.2718
     45  CB       -25.4510  -15.0860  -25.1100 C.3    90  LYS90       0.0285
     46  CG       -25.9450  -16.5250  -25.0130 C.3    90  LYS90       0.0035
     47  CD       -24.9200  -17.5030  -25.5350 C.3    90  LYS90       0.0206
     48  CE       -23.7900  -17.6980  -24.5480 C.3    90  LYS90       0.1093
     49  NZ       -22.5510  -18.1440  -25.2440 N.3    90  LYS90      -0.1314
     50  N        -27.8270  -14.8160  -22.7320 N.am   91  GLY91      -0.1942
     51  CA       -28.1120  -15.0580  -21.3340 C.3    91  GLY91       0.2014
     52  C        -27.5580  -16.3750  -20.8310 C.2    91  GLY91       0.2639
     53  O        -26.9200  -17.1250  -21.5670 O.2    91  GLY91      -0.2714
     54  N        -27.7730  -16.6020  -19.5530 N.am   92  ALA92      -0.1963
     55  CA       -27.4190  -17.8020  -18.8570 C.3    92  ALA92       0.1728
     56  C        -28.6010  -18.2530  -18.0290 C.2    92  ALA92       0.2616
     57  O        -28.6130  -18.1400  -16.8510 O.2    92  ALA92      -0.2715
     58  CB       -26.2360  -17.5390  -17.9850 C.3    92  ALA92       0.0334
     59  N        -29.6430  -18.6530  -18.7050 N.am   93  HIS93      -0.1959
     60  CA       -30.8420  -19.0360  -18.0470 C.3    93  HIS93       0.1787
     61  C        -31.4960  -20.3220  -18.5050 C.2    93  HIS93       0.2620
     62  O        -32.4050  -20.7550  -17.8670 O.2    93  HIS93      -0.2715
     63  CB       -31.8170  -17.9370  -18.2880 C.3    93  HIS93       0.0785
     64  CG       -32.0540  -17.7020  -19.7300 C.ar   93  HIS93       0.0821
     65  ND1      -33.1860  -18.1270  -20.3650 N.ar   93  HIS93      -0.2267
     66  CD2      -31.2600  -17.1820  -20.6780 C.ar   93  HIS93       0.1154
     67  CE1      -33.0980  -17.8330  -21.6370 C.ar   93  HIS93       0.1986
     68  NE2      -31.9370  -17.2650  -21.8530 N.ar   93  HIS93      -0.2212
     69  N        -31.0910  -20.8940  -19.6300 N.am   94  ALA94      -0.1963
     70  CA       -31.7520  -22.0650  -20.1790 C.3    94  ALA94       0.1728
     71  C        -30.8860  -23.2350  -20.6380 C.2    94  ALA94       0.2617
     72  O        -31.3850  -24.1470  -21.2840 O.2    94  ALA94      -0.2715
     73  CB       -32.7040  -21.6110  -21.2820 C.3    94  ALA94       0.0334
     74  N        -29.6080  -23.2390  -20.3030 N.am   95  GLY95      -0.1941
     75  CA       -28.7550  -24.3010  -20.7900 C.3    95  GLY95       0.1998
     76  C        -28.0920  -23.8560  -22.0840 C.2    95  GLY95       0.2480
     77  O        -28.6330  -22.9930  -22.7900 O.2    95  GLY95      -0.2729
     78  N        -26.9380  -24.4480  -22.4440 N.am   96  PRO96      -0.2726
     79  CA       -26.1780  -24.1220  -23.6580 C.3    96  PRO96       0.1402
     80  C        -26.8640  -24.3310  -25.0060 C.2    96  PRO96       0.2269
     81  O        -26.3640  -23.8740  -26.0330 O.2    96  PRO96      -0.2865
     82  CB       -24.9280  -24.9730  -23.5090 C.3    96  PRO96       0.0296
     83  CG       -25.4780  -26.2030  -22.8690 C.3    96  PRO96       0.0237
     84  CD       -26.3860  -25.6480  -21.7940 C.3    96  PRO96       0.0939
     85  N        -29.7010  -21.0440  -24.6350 N.3    99  ASN99      -0.1240
     86  CA       -29.1950  -19.7360  -24.2890 C.3    99  ASN99       0.1653
     87  C        -28.7750  -18.8980  -25.4880 C.2    99  ASN99       0.2266
     88  O        -29.1150  -17.7150  -25.5720 O.2    99  ASN99      -0.2867
     89  CB       -28.0220  -19.8690  -23.3250 C.3    99  ASN99       0.1155
     90  CG       -28.4590  -19.9750  -21.8750 C.2    99  ASN99       0.2627
     91  OD1      -29.6120  -20.2640  -21.5690 O.2    99  ASN99      -0.2716
     92  ND2      -27.5290  -19.7440  -20.9780 N.am   99  ASN99      -0.0877
     93  N        -35.3820  -27.3490  -19.7300 N.3   150  GLN150     -0.1245
     94  CA       -34.4170  -27.6890  -18.6910 C.3   150  GLN150      0.1566
     95  C        -35.2490  -28.4700  -17.6940 C.2   150  GLN150      0.2260
     96  O        -36.4680  -28.3380  -17.6600 O.2   150  GLN150     -0.2867
     97  CB       -33.8570  -26.4570  -17.9600 C.3   150  GLN150      0.0367
     98  CG       -32.8520  -25.5780  -18.6940 C.3   150  GLN150      0.0905
     99  CD       -31.6440  -26.3280  -19.2250 C.2   150  GLN150      0.2608
    100  OE1      -31.7710  -27.1750  -20.1140 O.2   150  GLN150     -0.2717
    101  NE2      -30.4600  -26.0120  -18.6980 N.am  150  GLN150     -0.0878
@<TRIPOS>BOND
     1     3     2    1
     2     3     4    2
     3     6     5    1
     4     6     7    1
     5     2     5    1
     6     2     1    1
     7    81    80    2
     8    88    87    2
     9    47    46    1
    10    47    48    1
    11    87    86    1
    12    49    48    1
    13    45    46    1
    14    45    42    1
    15     7     8   ar
    16     7     9   ar
    17    80    79    1
    18    41    42    1
    19    85    86    1
    20    42    43    1
    21    86    89    1
    22    79    82    1
    23    79    78    1
    24    82    83    1
    25    89    90    1
    26    43    50   am
    27    43    44    2
    28    83    84    1
    29    77    76    2
    30    50    51    1
    31    78    76   am
    32    78    84    1
    33    33    32    2
    34    76    75    1
    35    90    91    2
    36    90    92   am
    37    68    67   ar
    38    68    66   ar
    39    67    65   ar
    40    53    52    2
    41    51    52    1
    42    72    71    2
    43    73    70    1
    44    32    31    1
    45    52    54   am
    46    75    74    1
    47    66    64   ar
    48    71    74   am
    49    71    70    1
    50    65    64   ar
    51    34    31    1
    52    34    35    1
    53    70    69    1
    54   100    99    2
    55    31    30    1
    56    39    38    1
    57    64    63    1
    58    93    94    1
    59    69    61   am
    60    36    35    1
    61    36    37    1
    62    54    55    1
    63    99   101   am
    64    99    98    1
    65    55    56    1
    66    55    58    1
    67    59    60    1
    68    59    56   am
    69    98    97    1
    70    94    97    1
    71    94    95    1
    72    38    37    2
    73    38    40    1
    74    61    60    1
    75    61    62    2
    76    29    28    1
    77    63    60    1
    78    56    57    2
    79    95    96    2
    80    28    25    1
    81    25    26    1
    82    25    24    1
    83    27    26    2
    84    24    12   am
    85    23    22   ar
    86    23    21   ar
    87    22    20   ar
    88    21    19   ar
    89    20    17   ar
    90    19    17   ar
    91    19    18   ar
    92    12    11    1
    93    12    13    2
    94    17    15   ar
    95    18    16   ar
    96    15    16   ar
    97    15    14    1
    98    14    11    1
    99    11    10    1
