@<TRIPOS>MOLECULE
tmp/4osfA00.pdb
 94 91 0 0 0
SMALL
GASTEIGER

@<TRIPOS>ATOM
      1  N         55.2060  -10.2760   -7.5360 N.3     1  PRO1       -0.2102
      2  CA        54.3250   -9.8920   -6.4270 C.3     1  PRO1        0.1504
      3  C         52.8360   -9.8540   -6.6320 C.2     1  PRO1        0.2575
      4  O         52.3060   -9.9330   -7.7380 O.2     1  PRO1       -0.2718
      5  CB        54.8300   -8.4820   -6.0760 C.3     1  PRO1        0.0282
      6  CG        55.4800   -7.9870   -7.3270 C.3     1  PRO1        0.0208
      7  CD        56.1450   -9.2010   -7.8980 C.3     1  PRO1        0.0893
      8  N         52.1530   -9.7330   -5.5030 N.am    2  MET2       -0.1980
      9  CA        50.7290   -9.4660   -5.5260 C.3     2  MET2        0.1605
     10  C         50.4260   -8.3060   -4.6000 C.2     2  MET2        0.2287
     11  O         50.9860   -8.1880   -3.5140 O.2     2  MET2       -0.2864
     12  CB        49.9140  -10.7110   -5.1500 C.3     2  MET2        0.0413
     13  CG        50.2360  -11.3260   -3.8180 C.3     2  MET2        0.0598
     14  SD        49.1030  -12.7260   -3.5040 S.3     2  MET2       -0.1393
     15  CE        47.7300  -11.8820   -2.7680 C.3     2  MET2        0.0692
     16  N         60.2570   -7.7610  -12.2080 N.3    32  LYS32      -0.1245
     17  CA        59.5670   -8.9990  -12.5600 C.3    32  LYS32       0.1561
     18  C         58.6780   -8.7860  -13.7850 C.2    32  LYS32       0.2260
     19  O         58.1490   -7.6940  -13.9700 O.2    32  LYS32      -0.2867
     20  CB        58.7310   -9.4910  -11.3740 C.3    32  LYS32       0.0271
     21  CG        59.5310   -9.7650  -10.1160 C.3    32  LYS32       0.0035
     22  CD        60.3340  -11.0730  -10.2370 C.3    32  LYS32       0.0206
     23  CE        61.0660  -11.3910   -8.9350 C.3    32  LYS32       0.1093
     24  NZ        61.9140  -12.6160   -9.0250 N.3    32  LYS32      -0.1314
     25  N         53.4880  -12.1170  -14.2140 N.3    36  TYR36      -0.1227
     26  CA        53.4670  -12.7610  -12.8860 C.3    36  TYR36       0.1736
     27  C         52.6170  -12.0250  -11.8420 C.2    36  TYR36       0.2595
     28  O         52.2440  -12.5850  -10.8030 O.2    36  TYR36      -0.2718
     29  CB        54.8740  -12.8750  -12.2990 C.3    36  TYR36       0.0548
     30  CG        55.8780  -13.6930  -13.0820 C.ar   36  TYR36      -0.0200
     31  CD1       55.4830  -14.5460  -14.1110 C.ar   36  TYR36      -0.0009
     32  CD2       57.2230  -13.6210  -12.7690 C.ar   36  TYR36      -0.0009
     33  CE1       56.4220  -15.2970  -14.8150 C.ar   36  TYR36       0.0417
     34  CE2       58.1570  -14.3550  -13.4600 C.ar   36  TYR36       0.0417
     35  CZ        57.7590  -15.1920  -14.4730 C.ar   36  TYR36       0.1957
     36  OH        58.7230  -15.9070  -15.1450 O.3    36  TYR36      -0.2866
     37  N         52.3540  -10.7520  -12.0980 N.am   37  ILE37      -0.1980
     38  CA        51.8840   -9.8620  -11.0450 C.3    37  ILE37       0.1595
     39  C         50.3680   -9.8560  -10.9270 C.2    37  ILE37       0.2287
     40  O         49.6510   -9.8340  -11.9290 O.2    37  ILE37      -0.2864
     41  CB        52.4250   -8.4470  -11.2960 C.3    37  ILE37       0.0276
     42  CG1       53.9420   -8.4840  -11.0840 C.3    37  ILE37       0.0022
     43  CG2       51.7770   -7.4130  -10.3700 C.3    37  ILE37       0.0022
     44  CD1       54.6010   -7.1550  -11.1850 C.3    37  ILE37       0.0001
     45  N         52.6870   -8.8260   -1.1830 N.3    62  HIS62      -0.1226
     46  CA        53.3810  -10.1120   -0.9760 C.3    62  HIS62       0.1752
     47  C         54.3490  -10.3740   -2.1280 C.2    62  HIS62       0.2597
     48  O         54.0310  -10.1270   -3.2860 O.2    62  HIS62      -0.2718
     49  CB        52.3990  -11.2950   -0.8730 C.3    62  HIS62       0.0759
     50  CG        51.4370  -11.2110    0.2710 C.ar   62  HIS62       0.0818
     51  ND1       50.3630  -10.3470    0.2830 N.ar   62  HIS62      -0.2268
     52  CD2       51.3530  -11.9290    1.4160 C.ar   62  HIS62       0.1154
     53  CE1       49.6720  -10.5200    1.3970 C.ar   62  HIS62       0.1986
     54  NE2       50.2590  -11.4720    2.1050 N.ar   62  HIS62      -0.2212
     55  N         55.5350  -10.8780   -1.8110 N.am   63  SER63      -0.1938
     56  CA        56.5300  -11.1590   -2.8380 C.3    63  SER63       0.2055
     57  C         57.4340  -12.2820   -2.3600 C.2    63  SER63       0.2642
     58  O         57.6610  -12.4150   -1.1600 O.2    63  SER63      -0.2714
     59  CB        57.3620   -9.9100   -3.1460 C.3    63  SER63       0.2130
     60  OG        58.2730  -10.1470   -4.2120 O.3    63  SER63      -0.2179
     61  N         57.9180  -13.0970   -3.2870 N.am   64  ILE64      -0.1977
     62  CA        58.9520  -14.0790   -2.9740 C.3    64  ILE64       0.1596
     63  C         60.2860  -13.3860   -3.2120 C.2    64  ILE64       0.2287
     64  O         60.7420  -13.2830   -4.3480 O.2    64  ILE64      -0.2864
     65  CB        58.8340  -15.3550   -3.8430 C.3    64  ILE64       0.0276
     66  CG1       57.4490  -16.0110   -3.6700 C.3    64  ILE64       0.0022
     67  CG2       59.9920  -16.3300   -3.5420 C.3    64  ILE64       0.0022
     68  CD1       57.1160  -17.0670   -4.7560 C.3    64  ILE64       0.0001
     69  N         57.4580  -13.8770    1.2310 N.3   101  MET101     -0.1245
     70  CA        56.9350  -15.2440    1.2400 C.3   101  MET101      0.1570
     71  C         58.0000  -16.2740    0.8550 C.2   101  MET101      0.2261
     72  O         58.7960  -16.0490   -0.0630 O.2   101  MET101     -0.2867
     73  CB        55.7510  -15.3720    0.2750 C.3   101  MET101      0.0387
     74  CG        54.5820  -14.4290    0.5760 C.3   101  MET101      0.0595
     75  SD        53.7870  -14.8560    2.1290 S.3   101  MET101     -0.1393
     76  CE        52.9580  -16.3860    1.6910 C.3   101  MET101      0.0692
     77  N         53.7440  -20.5480   -1.3840 N.3   106  VAL106     -0.1245
     78  CA        52.9450  -19.8990   -2.4040 C.3   106  VAL106      0.1561
     79  C         52.5110  -20.9300   -3.4310 C.2   106  VAL106      0.2260
     80  O         53.3340  -21.4890   -4.1540 O.2   106  VAL106     -0.2867
     81  CB        53.7120  -18.7490   -3.1000 C.3   106  VAL106      0.0252
     82  CG1       52.8400  -18.1120   -4.1900 C.3   106  VAL106      0.0019
     83  CG2       54.1170  -17.7080   -2.0800 C.3   106  VAL106      0.0019
     84  N         55.6940  -22.8670   -5.7770 N.3   113  PHE113     -0.1241
     85  CA        56.8570  -22.3890   -6.5080 C.3   113  PHE113      0.1605
     86  C         58.1650  -23.0570   -6.0650 C.2   113  PHE113      0.2264
     87  O         59.1920  -22.9060   -6.7260 O.2   113  PHE113     -0.2867
     88  CB        56.9530  -20.8620   -6.3870 C.3   113  PHE113      0.0534
     89  CG        56.0510  -20.1360   -7.3450 C.ar  113  PHE113     -0.0203
     90  CD1       56.2860  -20.1940   -8.7090 C.ar  113  PHE113     -0.0042
     91  CD2       54.9500  -19.4190   -6.8870 C.ar  113  PHE113     -0.0042
     92  CE1       55.4520  -19.5360   -9.6020 C.ar  113  PHE113     -0.0003
     93  CE2       54.1160  -18.7630   -7.7700 C.ar  113  PHE113     -0.0003
     94  CZ        54.3590  -18.8210   -9.1290 C.ar  113  PHE113     -0.0000
@<TRIPOS>BOND
     1    36    35    1
     2    33    35   ar
     3    33    31   ar
     4    35    34   ar
     5    25    26    1
     6    31    30   ar
     7    19    18    2
     8    18    17    1
     9    34    32   ar
    10    30    32   ar
    11    30    29    1
    12    26    29    1
    13    26    27    1
    14    17    16    1
    15    17    20    1
    16    37    27   am
    17    37    38    1
    18    40    39    2
    19    27    28    2
    20    20    21    1
    21    41    42    1
    22    41    38    1
    23    41    43    1
    24    44    42    1
    25    38    39    1
    26    22    21    1
    27    22    23    1
    28    92    94   ar
    29    92    90   ar
    30    94    93   ar
    31    24    23    1
    32    90    89   ar
    33     7     1    1
    34     7     6    1
    35    93    91   ar
    36     4     3    2
    37     1     2    1
    38    89    91   ar
    39    89    88    1
    40     6     5    1
    41    87    86    2
    42     3     2    1
    43     3     8   am
    44    85    88    1
    45    85    86    1
    46    85    84    1
    47     2     5    1
    48     9     8    1
    49     9    12    1
    50     9    10    1
    51    12    13    1
    52    68    66    1
    53    10    11    2
    54    64    63    2
    55    60    59    1
    56    82    81    1
    57    80    79    2
    58    65    66    1
    59    65    67    1
    60    65    62    1
    61    13    14    1
    62    14    15    1
    63    79    78    1
    64    61    62    1
    65    61    57   am
    66    48    47    2
    67    63    62    1
    68    59    56    1
    69    81    78    1
    70    81    83    1
    71    56    57    1
    72    56    55    1
    73    78    77    1
    74    57    58    2
    75    47    55   am
    76    47    46    1
    77    45    46    1
    78    46    49    1
    79    49    50    1
    80    72    71    2
    81    50    51   ar
    82    50    52   ar
    83    73    74    1
    84    73    70    1
    85    51    53   ar
    86    74    75    1
    87    71    70    1
    88    69    70    1
    89    53    54   ar
    90    52    54   ar
    91    76    75    1
