@<TRIPOS>MOLECULE
tmp/4osgA01.pdb
 207 203 0 0 0
SMALL
GASTEIGER

@<TRIPOS>ATOM
      1  N         22.5430  -52.3870   -2.0500 N.3     5  ILE5       -0.1231
      2  CA        22.3360  -53.7270   -2.5810 C.3     5  ILE5        0.1692
      3  C         21.1270  -54.3540   -1.8990 C.2     5  ILE5        0.2592
      4  O         21.0080  -54.3300   -0.6750 O.2     5  ILE5       -0.2718
      5  CB        23.6020  -54.6250   -2.4320 C.3     5  ILE5        0.0266
      6  CG1       23.3720  -55.9860   -3.0990 C.3     5  ILE5        0.0019
      7  CG2       23.9970  -54.8030   -0.9730 C.3     5  ILE5        0.0020
      8  CD1       24.6380  -56.7120   -3.4710 C.3     5  ILE5        0.0001
      9  N         20.2080  -54.8810   -2.7030 N.am    6  ALA6       -0.1966
     10  CA        18.9580  -55.3950   -2.1660 C.3     6  ALA6        0.1728
     11  C         18.3070  -56.4470   -3.0500 C.2     6  ALA6        0.2616
     12  O         18.5140  -56.4800   -4.2630 O.2     6  ALA6       -0.2715
     13  CB        17.9850  -54.2480   -1.9340 C.3     6  ALA6        0.0334
     14  N         17.5120  -57.3020   -2.4190 N.am    7  ALA7       -0.1977
     15  CA        16.7080  -58.2820   -3.1280 C.3     7  ALA7        0.1597
     16  C         15.2610  -57.8260   -3.0970 C.2     7  ALA7        0.2287
     17  O         14.6930  -57.5800   -2.0300 O.2     7  ALA7       -0.2864
     18  CB        16.8540  -59.6590   -2.5170 C.3     7  ALA7        0.0319
     19  N         13.2820  -62.0740    5.9290 N.3    20  MET20      -0.1245
     20  CA        13.0870  -62.0150    4.4870 C.3    20  MET20       0.1570
     21  C         12.2440  -63.2070    4.0520 C.2    20  MET20       0.2261
     22  O         12.6300  -64.3570    4.2670 O.2    20  MET20      -0.2867
     23  CB        14.4280  -61.9940    3.7590 C.3    20  MET20       0.0387
     24  CG        15.2850  -60.7850    4.0960 C.3    20  MET20       0.0595
     25  SD        16.7560  -60.6560    3.0630 S.3    20  MET20      -0.1393
     26  CE        17.6240  -62.1440    3.5720 C.3    20  MET20       0.0692
     27  N         11.7530  -65.3120    1.9110 N.3    22  TRP22      -0.1241
     28  CA        12.2610  -66.2520    0.9180 C.3    22  TRP22       0.1605
     29  C         13.6200  -66.7710    1.3720 C.2    22  TRP22       0.2264
     30  O         14.1840  -66.2930    2.3570 O.2    22  TRP22      -0.2867
     31  CB        12.4030  -65.5920   -0.4570 C.3    22  TRP22       0.0550
     32  CG        13.3430  -64.4200   -0.4610 C.ar   22  TRP22       0.0003
     33  CD1       14.7070  -64.4650   -0.5150 C.ar   22  TRP22       0.0946
     34  CD2       12.9890  -63.0360   -0.3850 C.ar   22  TRP22       0.0152
     35  NE1       15.2230  -63.1930   -0.4890 N.ar   22  TRP22      -0.2442
     36  CE2       14.1900  -62.2960   -0.4080 C.ar   22  TRP22       0.0810
     37  CE3       11.7790  -62.3450   -0.3050 C.ar   22  TRP22       0.0012
     38  CZ2       14.2100  -60.9070   -0.3530 C.ar   22  TRP22       0.0191
     39  CZ3       11.8030  -60.9670   -0.2500 C.ar   22  TRP22       0.0001
     40  CH2       13.0080  -60.2630   -0.2730 C.ar   22  TRP22       0.0015
     41  N         17.0680  -67.5580   -0.9440 N.3    24  LEU24      -0.1245
     42  CA        17.7840  -67.7810   -2.1870 C.3    24  LEU24       0.1561
     43  C         19.2850  -67.7790   -1.9450 C.2    24  LEU24       0.2260
     44  O         19.8630  -66.7590   -1.5660 O.2    24  LEU24      -0.2867
     45  CB        17.4030  -66.7240   -3.2310 C.3    24  LEU24       0.0270
     46  CG        16.0450  -66.9080   -3.9140 C.3    24  LEU24       0.0019
     47  CD1       15.9480  -66.0700   -5.1770 C.3    24  LEU24       0.0001
     48  CD2       15.8040  -68.3680   -4.2350 C.3    24  LEU24       0.0001
     49  N         21.3310  -65.5240   -4.7780 N.3    27  ASP27      -0.1225
     50  CA        21.3900  -64.1190   -4.4130 C.3    27  ASP27       0.1805
     51  C         22.2930  -63.9010   -3.2070 C.2    27  ASP27       0.2597
     52  O         22.8860  -62.8380   -3.0530 O.2    27  ASP27      -0.2718
     53  CB        19.9970  -63.5680   -4.1410 C.3    27  ASP27       0.1424
     54  CG        20.0370  -62.1690   -3.5760 C.2    27  ASP27       0.3668
     55  OD1       20.5020  -61.2450   -4.2740 O.co2  27  ASP27      -0.2456
     56  OD2       19.5890  -61.9910   -2.4300 O.co2  27  ASP27      -0.2456
     57  N         22.3790  -64.9040   -2.3430 N.am   28  LEU28      -0.1979
     58  CA        23.3020  -64.8510   -1.2190 C.3    28  LEU28       0.1596
     59  C         24.7300  -64.7780   -1.7440 C.2    28  LEU28       0.2287
     60  O         25.5440  -63.9860   -1.2610 O.2    28  LEU28      -0.2864
     61  CB        23.1200  -66.0680   -0.3130 C.3    28  LEU28       0.0297
     62  CG        24.1690  -66.2930    0.7780 C.3    28  LEU28       0.0022
     63  CD1       24.2800  -65.0850    1.6990 C.3    28  LEU28       0.0001
     64  CD2       23.8580  -67.5550    1.5750 C.3    28  LEU28       0.0001
     65  N         25.6410  -63.7140   -4.7080 N.3    30  TRP30      -0.1227
     66  CA        25.8100  -62.4320   -5.3980 C.3    30  TRP30       0.1737
     67  C         26.0810  -61.3090   -4.3930 C.2    30  TRP30       0.2595
     68  O         26.9770  -60.4650   -4.5900 O.2    30  TRP30      -0.2718
     69  CB        24.5700  -62.1480   -6.2560 C.3    30  TRP30       0.0564
     70  CG        24.2970  -60.7090   -6.6120 C.ar   30  TRP30       0.0003
     71  CD1       23.5860  -59.7920   -5.8820 C.ar   30  TRP30       0.0946
     72  CD2       24.7330  -60.0280   -7.7950 C.ar   30  TRP30       0.0152
     73  NE1       23.5500  -58.5870   -6.5460 N.ar   30  TRP30      -0.2442
     74  CE2       24.2490  -58.7040   -7.7170 C.ar   30  TRP30       0.0810
     75  CE3       25.4880  -60.4070   -8.9070 C.ar   30  TRP30       0.0012
     76  CZ2       24.5010  -57.7630   -8.7160 C.ar   30  TRP30       0.0191
     77  CZ3       25.7350  -59.4730   -9.8930 C.ar   30  TRP30       0.0001
     78  CH2       25.2430  -58.1660   -9.7920 C.ar   30  TRP30       0.0015
     79  N         25.3210  -61.3310   -3.3040 N.am   31  PHE31      -0.1962
     80  CA        25.5180  -60.4180   -2.1880 C.3    31  PHE31       0.1771
     81  C         26.9380  -60.5090   -1.6620 C.2    31  PHE31       0.2619
     82  O         27.6230  -59.4940   -1.5580 O.2    31  PHE31      -0.2715
     83  CB        24.5230  -60.7220   -1.0690 C.3    31  PHE31       0.0574
     84  CG        24.7540  -59.9320    0.1880 C.ar   31  PHE31      -0.0200
     85  CD1       24.3660  -58.6050    0.2730 C.ar   31  PHE31      -0.0042
     86  CD2       25.3330  -60.5280    1.2970 C.ar   31  PHE31      -0.0042
     87  CE1       24.5690  -57.8820    1.4350 C.ar   31  PHE31      -0.0003
     88  CE2       25.5370  -59.8120    2.4610 C.ar   31  PHE31      -0.0003
     89  CZ        25.1550  -58.4870    2.5300 C.ar   31  PHE31      -0.0000
     90  N         27.3810  -61.7270   -1.3530 N.am   32  LYS32      -0.1977
     91  CA        28.7210  -61.9410   -0.8070 C.3    32  LYS32       0.1596
     92  C         29.8190  -61.5050   -1.7670 C.2    32  LYS32       0.2287
     93  O         30.8470  -60.9870   -1.3380 O.2    32  LYS32      -0.2864
     94  CB        28.9280  -63.4160   -0.4440 C.3    32  LYS32       0.0298
     95  CG        28.4640  -63.8060    0.9530 C.3    32  LYS32       0.0038
     96  CD        29.0590  -65.1480    1.3750 C.3    32  LYS32       0.0206
     97  CE        28.7320  -65.4690    2.8240 C.3    32  LYS32       0.1093
     98  NZ        27.3140  -65.8860    2.9890 N.3    32  LYS32      -0.1314
     99  N         24.0180  -50.6700    7.9700 N.3    42  MET42      -0.1245
    100  CA        22.6730  -51.2070    8.1280 C.3    42  MET42       0.1570
    101  C         21.9570  -50.4790    9.2880 C.2    42  MET42       0.2261
    102  O         22.5840  -49.6880    9.9950 O.2    42  MET42      -0.2867
    103  CB        22.7670  -52.7260    8.3270 C.3    42  MET42       0.0387
    104  CG        23.2470  -53.0950    9.7200 C.3    42  MET42       0.0595
    105  SD        23.9620  -54.7200   10.0010 S.3    42  MET42      -0.1393
    106  CE        25.5210  -54.5200    9.1220 C.3    42  MET42       0.0692
    107  N         17.7920  -54.6300   11.3790 N.3    46  THR46      -0.1203
    108  CA        18.4910  -55.5070   10.4470 C.3    46  THR46       0.1994
    109  C         19.6960  -56.1620   11.1310 C.2    46  THR46       0.2617
    110  O         19.8960  -57.3870   11.0560 O.2    46  THR46      -0.2717
    111  CB        18.9550  -54.7390    9.2020 C.3    46  THR46       0.1784
    112  OG1       17.8150  -54.2220    8.5020 O.3    46  THR46      -0.2211
    113  CG2       19.7270  -55.6530    8.2900 C.3    46  THR46       0.0376
    114  N         20.4890  -55.3350   11.8090 N.am   47  TRP47      -0.1975
    115  CA        21.6210  -55.8150   12.5930 C.3    47  TRP47       0.1640
    116  C         21.1780  -56.8560   13.6020 C.2    47  TRP47       0.2290
    117  O         21.8400  -57.8720   13.8070 O.2    47  TRP47      -0.2864
    118  CB        22.3010  -54.6570   13.3240 C.3    47  TRP47       0.0576
    119  CG        23.2660  -55.1210   14.3740 C.ar   47  TRP47       0.0006
    120  CD1       23.2080  -54.8540   15.7130 C.ar   47  TRP47       0.0946
    121  CD2       24.4090  -55.9670   14.1830 C.ar   47  TRP47       0.0152
    122  NE1       24.2530  -55.4660   16.3630 N.ar   47  TRP47      -0.2442
    123  CE2       25.0040  -56.1560   15.4480 C.ar   47  TRP47       0.0810
    124  CE3       24.9920  -56.5750   13.0660 C.ar   47  TRP47       0.0012
    125  CZ2       26.1520  -56.9280   15.6240 C.ar   47  TRP47       0.0191
    126  CZ3       26.1290  -57.3410   13.2440 C.ar   47  TRP47       0.0001
    127  CH2       26.6970  -57.5100   14.5120 C.ar   47  TRP47       0.0015
    128  N         20.3820  -60.1020   12.2210 N.3    50  ILE50      -0.1245
    129  CA        21.5620  -60.9240   11.9810 C.3    50  ILE50       0.1561
    130  C         22.2680  -61.2690   13.2930 C.2    50  ILE50       0.2260
    131  O         22.4160  -62.4430   13.6350 O.2    50  ILE50      -0.2867
    132  CB        22.5240  -60.2090   11.0400 C.3    50  ILE50       0.0252
    133  CG1       21.7420  -59.7240    9.8210 C.3    50  ILE50       0.0019
    134  CG2       23.7040  -61.1070   10.6900 C.3    50  ILE50       0.0019
    135  CD1       21.1470  -60.8340    8.9820 C.3    50  ILE50       0.0001
    136  N         25.3210  -60.9860   14.1100 N.3    52  ARG52      -0.1231
    137  CA        26.7350  -61.2980   13.9570 C.3    52  ARG52       0.1679
    138  C         27.3080  -60.5520   12.7570 C.2    52  ARG52       0.2434
    139  O         26.7170  -60.5490   11.6790 O.2    52  ARG52      -0.2733
    140  CB        26.9480  -62.8090   13.8300 C.3    52  ARG52       0.0321
    141  CG        26.2790  -63.4560   12.6320 C.3    52  ARG52       0.0489
    142  CD        26.5070  -64.9560   12.6460 C.3    52  ARG52       0.2205
    143  NE        26.0470  -65.5910   11.4170 N.pl3  52  ARG52      -0.0865
    144  CZ        26.2200  -66.8770   11.1320 C.cat  52  ARG52       0.5346
    145  NH1       26.8470  -67.6700   11.9920 N.pl3  52  ARG52       0.1354
    146  NH2       25.7680  -67.3680    9.9870 N.pl3  52  ARG52       0.1354
    147  N         28.4620  -59.9050   12.9480 N.am   53  PRO53      -0.2718
    148  CA        29.0870  -59.0600   11.9280 C.3    53  PRO53       0.1535
    149  C         29.4760  -59.8420   10.6800 C.2    53  PRO53       0.2598
    150  O         29.5280  -61.0710   10.7240 O.2    53  PRO53      -0.2715
    151  CB        30.3350  -58.5240   12.6370 C.3    53  PRO53       0.0310
    152  CG        30.0410  -58.6600   14.0950 C.3    53  PRO53       0.0237
    153  CD        29.2340  -59.9090   14.2000 C.3    53  PRO53       0.0939
    154  N         29.7180  -59.1220    9.5440 N.am   54  LEU54      -0.1964
    155  CA        30.2530  -59.7770    8.3570 C.3    54  LEU54       0.1713
    156  C         31.7650  -59.8650    8.4580 C.2    54  LEU54       0.2458
    157  O         32.4330  -58.8690    8.7350 O.2    54  LEU54      -0.2730
    158  CB        29.8570  -59.0520    7.0690 C.3    54  LEU54       0.0310
    159  CG        28.6170  -59.6260    6.3870 C.3    54  LEU54       0.0022
    160  CD1       27.4170  -59.3350    7.2220 C.3    54  LEU54       0.0001
    161  CD2       28.4360  -59.0880    4.9770 C.3    54  LEU54       0.0001
    162  N         32.2880  -61.0820    8.2500 N.am   55  PRO55      -0.2727
    163  CA        33.7180  -61.3780    8.3820 C.3    55  PRO55       0.1402
    164  C         34.6030  -60.4420    7.5590 C.2    55  PRO55       0.2269
    165  O         34.3290  -60.2050    6.3810 O.2    55  PRO55      -0.2865
    166  CB        33.8280  -62.8240    7.8740 C.3    55  PRO55       0.0296
    167  CG        32.5460  -63.0910    7.1380 C.3    55  PRO55       0.0237
    168  CD        31.5180  -62.2620    7.8240 C.3    55  PRO55       0.0939
    169  N         31.9350  -53.0440    9.7810 N.3    59  ASN59      -0.1240
    170  CA        30.4930  -53.0310    9.9260 C.3    59  ASN59       0.1653
    171  C         30.0530  -51.7460   10.6050 C.2    59  ASN59       0.2266
    172  O         30.5810  -51.3720   11.6500 O.2    59  ASN59      -0.2867
    173  CB        30.0320  -54.2450   10.7310 C.3    59  ASN59       0.1155
    174  CG        30.1350  -55.5530    9.9490 C.2    59  ASN59       0.2627
    175  OD1       29.1930  -55.9580    9.2700 O.2    59  ASN59      -0.2716
    176  ND2       31.2860  -56.2140   10.0430 N.am   59  ASN59      -0.0877
    177  N         23.2300  -52.1820    2.9460 N.3    94  ILE94      -0.1231
    178  CA        22.5750  -53.4680    2.7840 C.3    94  ILE94       0.1692
    179  C         21.1380  -53.4680    3.3120 C.2    94  ILE94       0.2592
    180  O         20.4020  -54.4380    3.1320 O.2    94  ILE94      -0.2718
    181  CB        23.3950  -54.5750    3.4630 C.3    94  ILE94       0.0266
    182  CG1       23.6590  -54.2200    4.9260 C.3    94  ILE94       0.0019
    183  CG2       24.7260  -54.7260    2.7750 C.3    94  ILE94       0.0020
    184  CD1       24.5670  -55.2090    5.6360 C.3    94  ILE94       0.0001
    185  N         20.7340  -52.3680    3.9390 N.am   95  GLY95      -0.1957
    186  CA        19.3600  -52.2170    4.3840 C.3    95  GLY95       0.1869
    187  C         19.2130  -51.4220    5.6640 C.2    95  GLY95       0.2309
    188  O         20.2030  -51.0410    6.2790 O.2    95  GLY95      -0.2863
    189  N         17.7800  -47.1640    3.0670 N.3   100  TYR100     -0.1241
    190  CA        17.7060  -47.1610    1.6110 C.3   100  TYR100      0.1605
    191  C         17.1870  -45.8230    1.0990 C.2   100  TYR100      0.2264
    192  O         17.7150  -45.2790    0.1340 O.2   100  TYR100     -0.2867
    193  CB        16.7850  -48.2710    1.1050 C.3   100  TYR100      0.0534
    194  CG        17.3700  -49.6620    1.1070 C.ar  100  TYR100     -0.0201
    195  CD1       18.7370  -49.8680    1.0030 C.ar  100  TYR100     -0.0009
    196  CD2       16.5450  -50.7750    1.1790 C.ar  100  TYR100     -0.0009
    197  CE1       19.2680  -51.1430    0.9990 C.ar  100  TYR100      0.0417
    198  CE2       17.0650  -52.0510    1.1710 C.ar  100  TYR100      0.0417
    199  CZ        18.4280  -52.2310    1.0810 C.ar  100  TYR100      0.1957
    200  OH        18.9510  -53.5040    1.0750 O.3   100  TYR100     -0.2866
    201  N         18.6460  -57.2760   -6.8940 N.3   113  THR113     -0.1218
    202  CA        18.2500  -58.6250   -7.2300 C.3   113  THR113      0.1862
    203  C         16.7460  -58.6330   -7.3920 C.2   113  THR113      0.2287
    204  O         16.0070  -58.3960   -6.4360 O.2   113  THR113     -0.2866
    205  CB        18.6640  -59.6350   -6.1590 C.3   113  THR113      0.1770
    206  OG1       20.0450  -59.4480   -5.8230 O.3   113  THR113     -0.2211
    207  CG2       18.4580  -61.0480   -6.6680 C.3   113  THR113      0.0375
@<TRIPOS>BOND
     1    77    78   ar
     2    77    75   ar
     3    78    76   ar
     4    75    72   ar
     5    76    74   ar
     6    72    74   ar
     7    72    70   ar
     8    74    73   ar
     9   203   202    1
    10   203   204    2
    11   202   201    1
    12   202   205    1
    13   207   205    1
    14    70    69    1
    15    70    71   ar
    16    73    71   ar
    17    69    66    1
    18   205   206    1
    19    66    65    1
    20    66    67    1
    21    47    46    1
    22    49    50    1
    23    68    67    2
    24    50    53    1
    25    50    51    1
    26    67    79   am
    27    55    54   ar
    28    12    11    2
    29    48    46    1
    30    53    54    1
    31    46    45    1
    32    54    56   ar
    33     8     6    1
    34    79    80    1
    35    45    42    1
    36    51    52    2
    37    51    57   am
    38    15    16    1
    39    15    18    1
    40    15    14    1
    41     6     5    1
    42    16    17    2
    43    11    14   am
    44    11    10    1
    45     9    10    1
    46     9     3   am
    47     2     5    1
    48     2     1    1
    49     2     3    1
    50     5     7    1
    51    57    58    1
    52    80    81    1
    53    80    83    1
    54    42    43    1
    55    42    41    1
    56    10    13    1
    57    43    44    2
    58     3     4    2
    59    92    93    2
    60    92    91    1
    61    59    60    2
    62    59    58    1
    63    81    82    2
    64    81    90   am
    65    90    91    1
    66    58    61    1
    67    83    84    1
    68    91    94    1
    69    33    35   ar
    70    33    32   ar
    71    35    36   ar
    72    32    31    1
    73    32    34   ar
    74    31    28    1
    75    94    95    1
    76    36    34   ar
    77    36    38   ar
    78    34    37   ar
    79    38    40   ar
    80    61    62    1
    81    37    39   ar
    82    40    39   ar
    83   192   191    2
    84    84    85   ar
    85    84    86   ar
    86    85    87   ar
    87    62    64    1
    88    62    63    1
    89    28    29    1
    90    28    27    1
    91    95    96    1
    92   197   195   ar
    93   197   199   ar
    94   195   194   ar
    95   200   199    1
    96   199   198   ar
    97   191   190    1
    98   193   194    1
    99   193   190    1
   100   194   196   ar
   101   198   196   ar
   102    86    88   ar
   103    29    30    2
   104    96    97    1
   105    87    89   ar
   106   190   189    1
   107    88    89   ar
   108   183   181    1
   109   178   177    1
   110   178   179    1
   111   178   181    1
   112    97    98    1
   113    25    26    1
   114    25    24    1
   115   180   179    2
   116   179   185   am
   117   181   182    1
   118    23    24    1
   119    23    20    1
   120   185   186    1
   121    21    22    2
   122    21    20    1
   123   186   187    1
   124    20    19    1
   125   182   184    1
   126   161   159    1
   127   187   188    2
   128   165   164    2
   129   159   158    1
   130   159   160    1
   131   158   155    1
   132   167   168    1
   133   167   166    1
   134   164   163    1
   135   168   162    1
   136   166   163    1
   137    99   100    1
   138   100   103    1
   139   100   101    1
   140   162   163    1
   141   162   156   am
   142   113   111    1
   143   103   104    1
   144   155   156    1
   145   155   154    1
   146   156   157    2
   147   112   111    1
   148   135   133    1
   149   106   105    1
   150   111   108    1
   151   175   174    2
   152   101   102    2
   153   154   149   am
   154   104   105    1
   155   169   170    1
   156   133   132    1
   157   170   171    1
   158   170   173    1
   159   174   176   am
   160   174   173    1
   161   146   144    1
   162   108   109    1
   163   108   107    1
   164   171   172    2
   165   149   150    2
   166   149   148    1
   167   134   132    1
   168   132   129    1
   169   110   109    2
   170   109   114   am
   171   144   143    2
   172   144   145    1
   173   143   142    1
   174   139   138    2
   175   114   115    1
   176   148   151    1
   177   148   147    1
   178   129   128    1
   179   129   130    1
   180   115   118    1
   181   115   116    1
   182   141   142    1
   183   141   140    1
   184   151   152    1
   185   138   147   am
   186   138   137    1
   187   147   153    1
   188   124   126   ar
   189   124   121   ar
   190   126   127   ar
   191   130   131    2
   192   118   119    1
   193   116   117    2
   194   140   137    1
   195   137   136    1
   196   152   153    1
   197   121   119   ar
   198   121   123   ar
   199   119   120   ar
   200   127   125   ar
   201   123   125   ar
   202   123   122   ar
   203   120   122   ar
