@<TRIPOS>MOLECULE
tmp/4osoB01.pdb
 131 122 0 0 0
SMALL
GASTEIGER

@<TRIPOS>ATOM
      1  N          8.6670  -19.1210  -14.2590 N.3   103  MET103     -0.1245
      2  CA         8.6800  -17.8530  -13.5400 C.3   103  MET103      0.1570
      3  C          9.8820  -17.8420  -12.6150 C.2   103  MET103      0.2261
      4  O         10.3110  -18.8970  -12.1370 O.2   103  MET103     -0.2867
      5  CB         7.3710  -17.6620  -12.7610 C.3   103  MET103      0.0387
      6  CG         6.1430  -17.5520  -13.6690 C.3   103  MET103      0.0595
      7  SD         4.5430  -18.1190  -13.0390 S.3   103  MET103     -0.1393
      8  CE         4.8500  -19.8500  -12.6780 C.3   103  MET103      0.0692
      9  N         11.9140  -14.8230   -9.8420 N.3   105  MET105     -0.1245
     10  CA        12.2580  -13.5140   -9.3000 C.3   105  MET105      0.1570
     11  C         13.7500  -13.4430   -8.9720 C.2   105  MET105      0.2261
     12  O         14.4380  -14.4640   -8.8980 O.2   105  MET105     -0.2867
     13  CB        11.4240  -13.1970   -8.0550 C.3   105  MET105      0.0387
     14  CG         9.9290  -13.0930   -8.3010 C.3   105  MET105      0.0595
     15  SD         9.1290  -12.2820   -6.9100 S.3   105  MET105     -0.1393
     16  CE         7.4110  -12.7280   -7.1640 C.3   105  MET105      0.0692
     17  N          0.1590  -14.9810  -22.0890 N.3   148  SER148     -0.1202
     18  CA         1.2080  -14.0200  -21.7960 C.3   148  SER148      0.2020
     19  C          1.1530  -13.6290  -20.3200 C.2   148  SER148      0.2619
     20  O          0.9400  -14.4800  -19.4600 O.2   148  SER148     -0.2717
     21  CB         1.0550  -12.8020  -22.7030 C.3   148  SER148      0.2103
     22  OG         2.0480  -11.8370  -22.4230 O.3   148  SER148     -0.2182
     23  N          1.3520  -12.3420  -20.0360 N.am  149  SER149     -0.1937
     24  CA         1.3290  -11.7950  -18.6810 C.3   149  SER149      0.2055
     25  C          1.1910  -10.2830  -18.7170 C.2   149  SER149      0.2644
     26  O          1.7520   -9.6230  -19.5810 O.2   149  SER149     -0.2714
     27  CB         2.6130  -12.1360  -17.9390 C.3   149  SER149      0.2130
     28  OG         2.8650  -11.1750  -16.9260 O.3   149  SER149     -0.2179
     29  N          0.4750   -9.7400  -17.7420 N.am  150  GLY150     -0.1939
     30  CA         0.2610   -8.3050  -17.6390 C.3   150  GLY150      0.2014
     31  C          1.5490   -7.6170  -17.2860 C.2   150  GLY150      0.2638
     32  O          1.6400   -6.3900  -17.3560 O.2   150  GLY150     -0.2714
     33  N          2.5530   -8.4130  -16.9120 N.am  151  LEU151     -0.1977
     34  CA         3.8760   -7.8900  -16.5870 C.3   151  LEU151      0.1596
     35  C          4.5680   -7.2940  -17.7980 C.2   151  LEU151      0.2287
     36  O          5.5520   -6.5810  -17.6480 O.2   151  LEU151     -0.2864
     37  CB         4.7790   -8.9520  -15.9330 C.3   151  LEU151      0.0297
     38  CG         4.6070   -9.2250  -14.4310 C.3   151  LEU151      0.0022
     39  CD1        5.7940   -9.9880  -13.8650 C.3   151  LEU151      0.0001
     40  CD2        4.3930   -7.9400  -13.6400 C.3   151  LEU151      0.0001
     41  N          3.3460   -3.7600  -16.8590 N.3   154  VAL154     -0.1245
     42  CA         3.6740   -3.2040  -15.5400 C.3   154  VAL154      0.1561
     43  C          5.1550   -3.4390  -15.2490 C.2   154  VAL154      0.2260
     44  O          5.6160   -4.5790  -15.2740 O.2   154  VAL154     -0.2867
     45  CB         2.8280   -3.8750  -14.4180 C.3   154  VAL154      0.0252
     46  CG1        3.1540   -3.2970  -13.0430 C.3   154  VAL154      0.0019
     47  CG2        1.3410   -3.7490  -14.7020 C.3   154  VAL154      0.0019
     48  N         11.7000   -9.0330  -12.3010 N.3   159  GLN159     -0.1245
     49  CA        11.1390   -9.9600  -13.2810 C.3   159  GLN159      0.1566
     50  C         11.3830   -9.5180  -14.7200 C.2   159  GLN159      0.2260
     51  O         10.5830   -9.7980  -15.6240 O.2   159  GLN159     -0.2867
     52  CB         9.6510  -10.1940  -13.0060 C.3   159  GLN159      0.0367
     53  CG         9.4190  -11.3230  -12.0080 C.3   159  GLN159      0.0905
     54  CD         8.0460  -11.3020  -11.3640 C.2   159  GLN159      0.2608
     55  OE1        7.6480  -10.3070  -10.7520 O.2   159  GLN159     -0.2717
     56  NE2        7.3200  -12.4160  -11.4800 N.am  159  GLN159     -0.0878
     57  N         11.7220  -12.5040  -17.3380 N.3   162  TYR162     -0.1241
     58  CA        10.3770  -13.0630  -17.5380 C.3   162  TYR162      0.1605
     59  C          9.5320  -12.1620  -18.4400 C.2   162  TYR162      0.2264
     60  O          8.8380  -12.6450  -19.3330 O.2   162  TYR162     -0.2867
     61  CB         9.6800  -13.2740  -16.1860 C.3   162  TYR162      0.0534
     62  CG         8.2200  -13.7070  -16.2580 C.ar  162  TYR162     -0.0201
     63  CD1        7.8770  -15.0400  -16.4890 C.ar  162  TYR162     -0.0009
     64  CD2        7.1870  -12.7910  -16.0590 C.ar  162  TYR162     -0.0009
     65  CE1        6.5480  -15.4450  -16.5400 C.ar  162  TYR162      0.0417
     66  CE2        5.8570  -13.1860  -16.1020 C.ar  162  TYR162      0.0417
     67  CZ         5.5420  -14.5130  -16.3440 C.ar  162  TYR162      0.1957
     68  OH         4.2190  -14.9180  -16.3930 O.3   162  TYR162     -0.2866
     69  N         -2.9960  -12.6970  -18.1680 N.3   192  PRO192     -0.2102
     70  CA        -3.4680  -12.7680  -16.7810 C.3   192  PRO192      0.1504
     71  C         -2.7400  -11.7630  -15.9010 C.2   192  PRO192      0.2576
     72  O         -1.6310  -11.3340  -16.2410 O.2   192  PRO192     -0.2718
     73  CB        -3.0980  -14.1910  -16.3500 C.3   192  PRO192      0.0282
     74  CG        -2.8310  -14.9350  -17.6140 C.3   192  PRO192      0.0208
     75  CD        -2.2890  -13.9230  -18.5720 C.3   192  PRO192      0.0893
     76  N         -3.3780  -11.3610  -14.8050 N.am  193  GLY193     -0.1943
     77  CA        -2.6900  -10.6650  -13.7220 C.3   193  GLY193      0.2014
     78  C         -2.3380  -11.7180  -12.6930 C.2   193  GLY193      0.2640
     79  O         -2.3480  -12.9110  -13.0000 O.2   193  GLY193     -0.2714
     80  N         -2.0440  -11.2980  -11.4680 N.am  194  SER194     -0.1935
     81  CA        -1.6910  -12.2440  -10.4040 C.3   194  SER194      0.2055
     82  C         -2.7660  -13.3240  -10.1830 C.2   194  SER194      0.2643
     83  O         -3.9180  -13.0060   -9.8810 O.2   194  SER194     -0.2714
     84  CB        -1.4110  -11.4850   -9.1140 C.3   194  SER194      0.2130
     85  OG        -0.4150  -12.1480   -8.3640 O.3   194  SER194     -0.2179
     86  N         -2.3810  -14.5920  -10.3510 N.am  195  THR195     -0.1950
     87  CA        -3.3120  -15.7310  -10.2660 C.3   195  THR195      0.1897
     88  C         -2.8380  -16.7940   -9.2630 C.2   195  THR195      0.2313
     89  O         -1.6850  -17.2360   -9.3080 O.2   195  THR195     -0.2863
     90  CB        -3.5100  -16.3930  -11.6530 C.3   195  THR195      0.1794
     91  OG1       -4.0860  -15.4500  -12.5550 O.3   195  THR195     -0.2208
     92  CG2       -4.4110  -17.6280  -11.5790 C.3   195  THR195      0.0378
     93  N         -2.1340  -19.9860   -8.4290 N.3   197  ASN197     -0.1240
     94  CA        -1.8400  -21.3040   -8.9890 C.3   197  ASN197      0.1653
     95  C         -1.7440  -22.3960   -7.9100 C.2   197  ASN197      0.2266
     96  O         -1.8830  -23.5860   -8.2160 O.2   197  ASN197     -0.2867
     97  CB        -0.5850  -21.2730   -9.8790 C.3   197  ASN197      0.1155
     98  CG         0.6560  -20.7600   -9.1530 C.2   197  ASN197      0.2627
     99  OD1        0.8320  -20.9720   -7.9480 O.2   197  ASN197     -0.2716
    100  ND2        1.5330  -20.0890   -9.8960 N.am  197  ASN197     -0.0877
    101  N          0.1710   -9.1400   -3.4420 N.3   201  LEU201     -0.1245
    102  CA        -0.1010   -9.3100   -4.8600 C.3   201  LEU201      0.1561
    103  C         -1.5760   -9.0520   -5.1760 C.2   201  LEU201      0.2260
    104  O         -1.9190   -8.6390   -6.2870 O.2   201  LEU201     -0.2867
    105  CB         0.2890  -10.7200   -5.2940 C.3   201  LEU201      0.0270
    106  CG         1.7770  -11.0680   -5.2180 C.3   201  LEU201      0.0019
    107  CD1        1.9710  -12.5750   -5.2890 C.3   201  LEU201      0.0001
    108  CD2        2.5690  -10.3620   -6.3130 C.3   201  LEU201      0.0001
    109  N         -2.9090   -5.4840   -6.4500 N.3   204  LEU204     -0.1245
    110  CA        -2.6260   -5.0760   -7.8070 C.3   204  LEU204      0.1561
    111  C         -3.8990   -5.0000   -8.6410 C.2   204  LEU204      0.2260
    112  O         -4.0830   -4.0350   -9.4020 O.2   204  LEU204     -0.2867
    113  CB        -1.5970   -6.0180   -8.4300 C.3   204  LEU204      0.0270
    114  CG        -0.2350   -6.0390   -7.7240 C.3   204  LEU204      0.0019
    115  CD1        0.4720   -7.3590   -7.9840 C.3   204  LEU204      0.0001
    116  CD2        0.6460   -4.8500   -8.1040 C.3   204  LEU204      0.0001
    117  N         -5.5880   -4.6070  -13.5440 N.3   242  THR242     -0.1203
    118  CA        -4.2770   -4.4620  -12.9440 C.3   242  THR242      0.1994
    119  C         -3.4290   -3.5480  -13.8150 C.2   242  THR242      0.2617
    120  O         -2.3730   -3.0670  -13.3990 O.2   242  THR242     -0.2717
    121  CB        -3.5880   -5.8320  -12.7970 C.3   242  THR242      0.1784
    122  OG1       -4.4480   -6.7290  -12.0800 O.3   242  THR242     -0.2211
    123  CG2       -2.2570   -5.6970  -12.0560 C.3   242  THR242      0.0376
    124  N         -3.8950   -3.3140  -15.0330 N.am  243  LEU243     -0.1979
    125  CA        -3.1410   -2.5150  -15.9910 C.3   243  LEU243      0.1596
    126  C         -3.6870   -1.1030  -16.0390 C.2   243  LEU243      0.2287
    127  O         -3.6610   -0.4680  -17.0870 O.2   243  LEU243     -0.2864
    128  CB        -3.2050   -3.1510  -17.3820 C.3   243  LEU243      0.0297
    129  CG        -2.2340   -4.2710  -17.7610 C.3   243  LEU243      0.0022
    130  CD1       -1.9870   -5.2670  -16.6360 C.3   243  LEU243      0.0001
    131  CD2       -2.7260   -4.9930  -19.0100 C.3   243  LEU243      0.0001
@<TRIPOS>BOND
     1    21    22    1
     2    21    18    1
     3    17    18    1
     4    18    19    1
     5    19    23   am
     6    19    20    2
     7    23    24    1
     8    26    25    2
     9    60    59    2
    10   131   129    1
    11    25    24    1
    12    25    29   am
    13    24    27    1
    14    75    69    1
    15    75    74    1
    16    59    58    1
    17    69    70    1
    18    27    28    1
    19    35    36    2
    20    35    34    1
    21   129   128    1
    22   129   130    1
    23    29    30    1
    24    30    31    1
    25    74    73    1
    26    58    57    1
    27    58    61    1
    28   128   125    1
    29    32    31    2
    30    31    33   am
    31   127   126    2
    32    33    34    1
    33    41    42    1
    34    70    73    1
    35    70    71    1
    36    34    37    1
    37    65    63   ar
    38    65    67   ar
    39    63    62   ar
    40    68    67    1
    41    67    66   ar
    42    62    61    1
    43    62    64   ar
    44    72    71    2
    45    66    64   ar
    46   126   125    1
    47   125   124    1
    48    37    38    1
    49    71    76   am
    50    51    50    2
    51    42    43    1
    52    42    45    1
    53    44    43    2
    54   124   119   am
    55    76    77    1
    56    50    49    1
    57    47    45    1
    58    38    39    1
    59    38    40    1
    60    45    46    1
    61     1     2    1
    62   119   120    2
    63   119   118    1
    64    77    78    1
    65     6     7    1
    66     6     5    1
    67   117   118    1
    68     2     5    1
    69     2     3    1
    70    49    52    1
    71    49    48    1
    72     7     8    1
    73    52    53    1
    74    79    78    2
    75   118   121    1
    76   121   122    1
    77   121   123    1
    78    78    80   am
    79     3     4    2
    80    91    90    1
    81    53    54    1
    82    90    92    1
    83    90    87    1
    84    56    54   am
    85    80    81    1
    86    54    55    2
    87    81    82    1
    88    81    84    1
    89    86    87    1
    90    86    82   am
    91    87    88    1
    92    82    83    2
    93   100    98   am
    94    97    98    1
    95    97    94    1
    96     9    10    1
    97   112   111    2
    98    89    88    2
    99    10    11    1
   100    10    13    1
   101    98    99    2
   102    84    85    1
   103    94    93    1
   104    94    95    1
   105    11    12    2
   106   111   110    1
   107   113   110    1
   108   113   114    1
   109    14    13    1
   110    14    15    1
   111    96    95    2
   112   116   114    1
   113   115   114    1
   114   110   109    1
   115    16    15    1
   116   108   106    1
   117   104   103    2
   118   105   106    1
   119   105   102    1
   120   107   106    1
   121   103   102    1
   122   102   101    1
