@<TRIPOS>MOLECULE
tmp/4ospA01.pdb
 160 152 0 0 0
SMALL
GASTEIGER

@<TRIPOS>ATOM
      1  N        -13.3270   13.2310    3.4500 N.3   100  MET100     -0.1245
      2  CA       -13.9630   14.2760    2.6560 C.3   100  MET100      0.1570
      3  C        -13.1330   15.5570    2.5870 C.2   100  MET100      0.2261
      4  O        -12.2560   15.7920    3.4280 O.2   100  MET100     -0.2867
      5  CB       -15.3380   14.5710    3.2280 C.3   100  MET100      0.0387
      6  CG       -15.9710   13.3210    3.8010 C.3   100  MET100      0.0595
      7  SD       -17.5420   12.9260    3.0490 S.3   100  MET100     -0.1393
      8  CE       -17.4290   13.7750    1.4790 C.3   100  MET100      0.0692
      9  N        -19.4510    6.2890   -3.7020 N.3   146  SER146     -0.1202
     10  CA       -20.3120    7.3960   -3.2650 C.3   146  SER146      0.2020
     11  C        -21.3320    7.7850   -4.3280 C.2   146  SER146      0.2619
     12  O        -21.0070    7.8510   -5.5280 O.2   146  SER146     -0.2717
     13  CB       -19.4650    8.6140   -2.8980 C.3   146  SER146      0.2103
     14  OG       -20.2920    9.7280   -2.5980 O.3   146  SER146     -0.2182
     15  N        -22.5620    8.0630   -3.8850 N.am  147  GLY147     -0.1942
     16  CA       -23.5990    8.6160   -4.7620 C.3   147  GLY147      0.2014
     17  C        -23.1890    9.9190   -5.4490 C.2   147  GLY147      0.2638
     18  O        -23.7310   10.2820   -6.5070 O.2   147  GLY147     -0.2714
     19  N        -22.2030   10.6060   -4.8820 N.am  148  LEU148     -0.1977
     20  CA       -21.7110   11.8370   -5.4930 C.3   148  LEU148      0.1596
     21  C        -21.0240   11.5990   -6.8260 C.2   148  LEU148      0.2287
     22  O        -20.7930   12.5440   -7.5560 O.2   148  LEU148     -0.2864
     23  CB       -20.8010   12.6210   -4.5440 C.3   148  LEU148      0.0297
     24  CG       -21.3960   13.0680   -3.1960 C.3   148  LEU148      0.0022
     25  CD1      -20.3270   13.6650   -2.3050 C.3   148  LEU148      0.0001
     26  CD2      -22.5490   14.0550   -3.3770 C.3   148  LEU148      0.0001
     27  N        -24.3850   12.1680   -8.4980 N.3   151  PHE151     -0.1241
     28  CA       -25.1740   13.3010   -8.0120 C.3   151  PHE151      0.1605
     29  C        -24.2600   14.5230   -7.8280 C.2   151  PHE151      0.2264
     30  O        -23.3760   14.5180   -6.9640 O.2   151  PHE151     -0.2867
     31  CB       -25.8280   12.9210   -6.6770 C.3   151  PHE151      0.0534
     32  CG       -26.8790   13.8880   -6.1960 C.ar  151  PHE151     -0.0203
     33  CD1      -26.5230   15.1310   -5.6660 C.ar  151  PHE151     -0.0042
     34  CD2      -28.2320   13.5290   -6.2140 C.ar  151  PHE151     -0.0042
     35  CE1      -27.4950   16.0150   -5.2110 C.ar  151  PHE151     -0.0003
     36  CE2      -29.2050   14.3990   -5.7460 C.ar  151  PHE151     -0.0003
     37  CZ       -28.8370   15.6470   -5.2510 C.ar  151  PHE151     -0.0000
     38  N        -22.3500   17.7380   -6.8110 N.3   153  ASN153     -0.1240
     39  CA       -22.1280   18.4570   -5.5560 C.3   153  ASN153      0.1653
     40  C        -20.7260   19.0830   -5.5480 C.2   153  ASN153      0.2266
     41  O        -19.7550   18.4510   -5.1000 O.2   153  ASN153     -0.2867
     42  CB       -22.3080   17.5150   -4.3620 C.3   153  ASN153      0.1155
     43  CG       -22.1740   18.2230   -3.0190 C.2   153  ASN153      0.2627
     44  OD1      -21.7660   19.3830   -2.9390 O.2   153  ASN153     -0.2716
     45  ND2      -22.5150   17.5180   -1.9550 N.am  153  ASN153     -0.0877
     46  N        -17.7830   18.8230   -2.9740 N.3   156  GLU156     -0.1245
     47  CA       -17.0110   17.6080   -2.8160 C.3   156  GLU156      0.1567
     48  C        -16.4780   17.0680   -4.1560 C.2   156  GLU156      0.2260
     49  O        -16.1940   15.8840   -4.2720 O.2   156  GLU156     -0.2867
     50  CB       -17.8400   16.5440   -2.0770 C.3   156  GLU156      0.0388
     51  CG       -18.1600   16.8820   -0.6200 C.3   156  GLU156      0.1160
     52  CD       -16.9260   16.9210    0.2830 C.2   156  GLU156      0.3649
     53  OE1      -15.8070   16.6340   -0.1850 O.co2 156  GLU156     -0.2457
     54  OE2      -17.0730   17.2440    1.4780 O.co2 156  GLU156     -0.2457
     55  N        -13.2180   15.0190   -3.7810 N.3   159  TYR159     -0.1241
     56  CA       -13.6880   13.7700   -3.1870 C.3   159  TYR159      0.1605
     57  C        -14.3580   12.8580   -4.2370 C.2   159  TYR159      0.2264
     58  O        -14.0540   11.6640   -4.3160 O.2   159  TYR159     -0.2867
     59  CB       -14.6510   14.0820   -2.0390 C.3   159  TYR159      0.0534
     60  CG       -15.4470   12.9110   -1.5060 C.ar  159  TYR159     -0.0201
     61  CD1      -14.9280   12.0730   -0.5230 C.ar  159  TYR159     -0.0009
     62  CD2      -16.7420   12.6650   -1.9540 C.ar  159  TYR159     -0.0009
     63  CE1      -15.6720   11.0140   -0.0180 C.ar  159  TYR159      0.0417
     64  CE2      -17.4910   11.6040   -1.4630 C.ar  159  TYR159      0.0417
     65  CZ       -16.9560   10.7900   -0.4990 C.ar  159  TYR159      0.1957
     66  OH       -17.7060    9.7450   -0.0200 O.3   159  TYR159     -0.2866
     67  N        -23.1260    4.5600   -1.1840 N.3   189  PRO189     -0.2102
     68  CA       -24.1420    5.1360   -0.2940 C.3   189  PRO189      0.1504
     69  C        -24.6180    6.5210   -0.7590 C.2   189  PRO189      0.2576
     70  O        -23.9420    7.1780   -1.5610 O.2   189  PRO189     -0.2718
     71  CB       -23.4110    5.2750    1.0540 C.3   189  PRO189      0.0282
     72  CG       -22.0830    4.6120    0.8850 C.3   189  PRO189      0.0208
     73  CD       -21.7860    4.5550   -0.5800 C.3   189  PRO189      0.0893
     74  N        -25.7870    6.9340   -0.2720 N.am  190  GLY190     -0.1943
     75  CA       -26.1520    8.3450   -0.2420 C.3   190  GLY190      0.2014
     76  C        -25.7920    8.9110    1.1220 C.2   190  GLY190      0.2639
     77  O        -24.9260    8.3720    1.8160 O.2   190  GLY190     -0.2714
     78  N        -26.4790    9.9770    1.5190 N.am  191  ILE191     -0.1963
     79  CA       -26.3020   10.5680    2.8390 C.3   191  ILE191      0.1727
     80  C        -26.6030    9.5540    3.9240 C.2   191  ILE191      0.2616
     81  O        -27.6890    8.9770    3.9730 O.2   191  ILE191     -0.2715
     82  CB       -27.2160   11.8010    3.0480 C.3   191  ILE191      0.0290
     83  CG1      -27.0180   12.8220    1.9190 C.3   191  ILE191      0.0022
     84  CG2      -26.9400   12.4410    4.4010 C.3   191  ILE191      0.0023
     85  CD1      -28.1160   13.8660    1.8330 C.3   191  ILE191      0.0001
     86  N        -25.6410    9.3530    4.8070 N.am  192  THR192     -0.1951
     87  CA       -25.7510    8.3320    5.8280 C.3   192  THR192      0.1897
     88  C        -25.3280    8.9140    7.1720 C.2   192  THR192      0.2313
     89  O        -24.2500    9.5040    7.2840 O.2   192  THR192     -0.2863
     90  CB       -24.8790    7.1180    5.4510 C.3   192  THR192      0.1794
     91  OG1      -25.1150    6.7790    4.0730 O.3   192  THR192     -0.2208
     92  CG2      -25.2020    5.9140    6.3280 C.3   192  THR192      0.0378
     93  N        -23.5520    9.3450   10.2370 N.3   194  ASN194     -0.1240
     94  CA       -22.3110    8.7930   10.7820 C.3   194  ASN194      0.1653
     95  C        -21.8340    9.4890   12.0570 C.2   194  ASN194      0.2266
     96  O        -20.6420    9.4670   12.3680 O.2   194  ASN194     -0.2867
     97  CB       -21.2030    8.8230    9.7300 C.3   194  ASN194      0.1155
     98  CG       -20.7790   10.2360    9.3670 C.2   194  ASN194      0.2627
     99  OD1      -21.4140   11.2170    9.7650 O.2   194  ASN194     -0.2716
    100  ND2      -19.6990   10.3460    8.6010 N.am  194  ASN194     -0.0877
    101  N        -21.4630   12.5900   12.8980 N.3   196  THR196     -0.1218
    102  CA       -20.9420   13.9550   12.7640 C.3   196  THR196      0.1862
    103  C        -21.9830   15.0090   13.1930 C.2   196  THR196      0.2287
    104  O        -23.1840   14.7050   13.2740 O.2   196  THR196     -0.2866
    105  CB       -20.4190   14.2470   11.3370 C.3   196  THR196      0.1770
    106  OG1      -21.4400   13.9570   10.3750 O.3   196  THR196     -0.2211
    107  CG2      -19.1780   13.4110   11.0350 C.3   196  THR196      0.0375
    108  N        -23.4250   17.5540   11.9080 N.3   198  VAL198     -0.1231
    109  CA       -24.4780   17.9580   10.9710 C.3   198  VAL198      0.1692
    110  C        -25.8120   17.2170   11.1980 C.2   198  VAL198      0.2592
    111  O        -26.8870   17.7830   10.9780 O.2   198  VAL198     -0.2718
    112  CB       -24.0000   17.8730    9.4900 C.3   198  VAL198      0.0266
    113  CG1      -23.8370   16.4250    9.0390 C.3   198  VAL198      0.0020
    114  CG2      -24.9380   18.6410    8.5650 C.3   198  VAL198      0.0020
    115  N        -25.7390   15.9780   11.6850 N.am  199  PHE199     -0.1976
    116  CA       -26.9420   15.1720   11.9120 C.3   199  PHE199      0.1639
    117  C        -27.6490   15.4770   13.2220 C.2   199  PHE199      0.2290
    118  O        -28.6310   14.8220   13.5700 O.2   199  PHE199     -0.2864
    119  CB       -26.6250   13.6850   11.8120 C.3   199  PHE199      0.0560
    120  CG       -26.1880   13.2650   10.4500 C.ar  199  PHE199     -0.0200
    121  CD1      -27.1120   13.1200    9.4290 C.ar  199  PHE199     -0.0042
    122  CD2      -24.8440   13.0420   10.1750 C.ar  199  PHE199     -0.0042
    123  CE1      -26.7080   12.7460    8.1610 C.ar  199  PHE199     -0.0003
    124  CE2      -24.4330   12.6720    8.9090 C.ar  199  PHE199     -0.0003
    125  CZ       -25.3660   12.5180    7.9000 C.ar  199  PHE199     -0.0000
    126  N        -31.8450   16.7750    4.3670 N.3   208  MET208     -0.1245
    127  CA       -31.0920   15.6330    3.8630 C.3   208  MET208      0.1570
    128  C        -32.0320   14.4570    3.6080 C.2   208  MET208      0.2261
    129  O        -31.8900   13.7290    2.6150 O.2   208  MET208     -0.2867
    130  CB       -29.9990   15.2270    4.8500 C.3   208  MET208      0.0387
    131  CG       -29.0210   16.3380    5.2030 C.3   208  MET208      0.0595
    132  SD       -27.7300   15.8250    6.3520 S.3   208  MET208     -0.1393
    133  CE       -26.3350   15.7550    5.2330 C.3   208  MET208      0.0692
    134  N        -33.6910   14.0070    0.1560 N.3   211  TYR211     -0.1241
    135  CA       -32.9320   13.4720   -0.9790 C.3   211  TYR211      0.1605
    136  C        -33.3610   12.0460   -1.3610 C.2   211  TYR211      0.2264
    137  O        -33.2820   11.6600   -2.5240 O.2   211  TYR211     -0.2867
    138  CB       -31.4330   13.5120   -0.6890 C.3   211  TYR211      0.0534
    139  CG       -30.8240   14.8910   -0.8000 C.ar  211  TYR211     -0.0201
    140  CD1      -30.8270   15.7700    0.2880 C.ar  211  TYR211     -0.0009
    141  CD2      -30.2390   15.3180   -1.9910 C.ar  211  TYR211     -0.0009
    142  CE1      -30.2670   17.0350    0.1900 C.ar  211  TYR211      0.0417
    143  CE2      -29.6780   16.5810   -2.1000 C.ar  211  TYR211      0.0417
    144  CZ       -29.6940   17.4350   -1.0110 C.ar  211  TYR211      0.1957
    145  OH       -29.1340   18.6830   -1.1230 O.3   211  TYR211     -0.2866
    146  N        -31.9020    8.0540   -3.9360 N.3   249  THR249     -0.1203
    147  CA       -31.4200    9.4200   -4.0390 C.3   249  THR249      0.1994
    148  C        -31.0770    9.8260   -5.4860 C.2   249  THR249      0.2617
    149  O        -31.0650   11.0110   -5.8090 O.2   249  THR249     -0.2717
    150  CB       -30.2140    9.6660   -3.0950 C.3   249  THR249      0.1784
    151  OG1      -30.5820    9.3470   -1.7450 O.3   249  THR249     -0.2211
    152  CG2      -29.7500   11.1200   -3.1480 C.3   249  THR249      0.0376
    153  N        -30.8200    8.8510   -6.3560 N.am  250  LEU250     -0.1979
    154  CA       -30.3880    9.1560   -7.7390 C.3   250  LEU250      0.1596
    155  C        -31.5250    9.2240   -8.7580 C.2   250  LEU250      0.2287
    156  O        -31.2880    9.2060   -9.9500 O.2   250  LEU250     -0.2864
    157  CB       -29.3260    8.1580   -8.2170 C.3   250  LEU250      0.0297
    158  CG       -28.1860    7.8570   -7.2450 C.3   250  LEU250      0.0022
    159  CD1      -27.3280    6.7180   -7.7680 C.3   250  LEU250      0.0001
    160  CD2      -27.3460    9.0950   -6.9620 C.3   250  LEU250      0.0001
@<TRIPOS>BOND
     1   156   155    2
     2   155   154    1
     3    27    28    1
     4   157   154    1
     5   157   158    1
     6    28    29    1
     7    28    31    1
     8    29    30    2
     9   159   158    1
    10   154   153    1
    11    22    21    2
    12   158   160    1
    13    21    20    1
    14    38    39    1
    15    31    32    1
    16    18    17    2
    17   153   148   am
    18    34    32   ar
    19    34    36   ar
    20    32    33   ar
    21   149   148    2
    22    36    37   ar
    23    33    35   ar
    24    39    40    1
    25    39    42    1
    26    40    41    2
    27    12    11    2
    28    20    19    1
    29    20    23    1
    30   148   147    1
    31    17    19   am
    32    17    16    1
    33    37    35   ar
    34    16    15    1
    35    23    24    1
    36    42    43    1
    37    11    15   am
    38    11    10    1
    39    58    57    2
    40    49    48    2
    41    57    56    1
    42    48    47    1
    43   147   146    1
    44   147   150    1
    45    55    56    1
    46     9    10    1
    47    26    24    1
    48    10    13    1
    49    24    25    1
    50    56    59    1
    51   152   150    1
    52   150   151    1
    53    43    44    2
    54    43    45   am
    55    46    47    1
    56    13    14    1
    57    47    50    1
    58   137   136    2
    59   143   141   ar
    60   143   144   ar
    61    50    51    1
    62    59    60    1
    63   141   139   ar
    64    62    60   ar
    65    62    64   ar
    66    70    69    2
    67    60    61   ar
    68    64    65   ar
    69   136   135    1
    70    67    73    1
    71    67    68    1
    72   145   144    1
    73   144   142   ar
    74   135   138    1
    75   135   134    1
    76   139   138    1
    77   139   140   ar
    78    69    68    1
    79    69    74   am
    80    51    52    1
    81    73    72    1
    82    61    63   ar
    83    65    66    1
    84    65    63   ar
    85    68    71    1
    86    74    75    1
    87    75    76    1
    88    53    52   ar
    89   142   140   ar
    90    52    54   ar
    91    72    71    1
    92    76    78   am
    93    76    77    2
    94     8     7    1
    95    78    79    1
    96    85    83    1
    97    83    82    1
    98     3     2    1
    99     3     4    2
   100   129   128    2
   101     2     5    1
   102     2     1    1
   103    79    82    1
   104    79    80    1
   105    82    84    1
   106     7     6    1
   107     5     6    1
   108   128   127    1
   109   127   126    1
   110   127   130    1
   111    80    81    2
   112    80    86   am
   113    91    90    1
   114    86    87    1
   115   130   131    1
   116   131   132    1
   117   133   132    1
   118    90    87    1
   119    90    92    1
   120    87    88    1
   121    88    89    2
   122   125   123   ar
   123   125   124   ar
   124   123   121   ar
   125   114   112    1
   126   100    98   am
   127   124   122   ar
   128   113   112    1
   129    98    97    1
   130    98    99    2
   131   121   120   ar
   132   112   109    1
   133    97    94    1
   134   122   120   ar
   135    93    94    1
   136   106   105    1
   137   120   119    1
   138    94    95    1
   139   109   110    1
   140   109   108    1
   141   111   110    2
   142   107   105    1
   143   110   115   am
   144   105   102    1
   145   115   116    1
   146   119   116    1
   147   116   117    1
   148    95    96    2
   149   102   101    1
   150   102   103    1
   151   103   104    2
   152   117   118    2
