@<TRIPOS>MOLECULE
tmp/4ot2A04.pdb
 89 81 0 0 0
SMALL
GASTEIGER

@<TRIPOS>ATOM
      1  N         56.3320   38.9070   72.5080 N.3    14  LYS14      -0.1245
      2  CA        56.2160   37.8220   71.5600 C.3    14  LYS14       0.1561
      3  C         54.9880   36.9330   71.7820 C.2    14  LYS14       0.2260
      4  O         54.0800   36.8630   70.9200 O.2    14  LYS14      -0.2867
      5  CB        57.4940   37.0060   71.4950 C.3    14  LYS14       0.0271
      6  CG        57.5270   36.1100   70.2670 C.3    14  LYS14       0.0035
      7  CD        58.4970   34.9510   70.4670 C.3    14  LYS14       0.0206
      8  CE        58.4080   33.9050   69.3660 C.3    14  LYS14       0.1093
      9  NZ        59.7290   33.2240   69.1650 N.3    14  LYS14      -0.1314
     10  N         51.5520   38.7410   71.5580 N.3    17  LYS17      -0.1231
     11  CA        51.1990   38.9030   70.1450 C.3    17  LYS17       0.1693
     12  C         50.8100   37.5730   69.5060 C.2    17  LYS17       0.2592
     13  O         49.8140   37.5040   68.7740 O.2    17  LYS17      -0.2718
     14  CB        52.3250   39.5860   69.3750 C.3    17  LYS17       0.0285
     15  CG        52.6050   40.9700   69.9160 C.3    17  LYS17       0.0035
     16  CD        53.4370   41.8220   68.9950 C.3    17  LYS17       0.0206
     17  CE        52.5600   42.3520   67.8750 C.3    17  LYS17       0.1093
     18  NZ        53.2640   43.3880   67.0720 N.3    17  LYS17      -0.1314
     19  N         51.5660   36.5200   69.8050 N.am   18  GLY18      -0.1957
     20  CA        51.1880   35.2060   69.3170 C.3    18  GLY18       0.1869
     21  C         49.7280   34.8740   69.6240 C.2    18  GLY18       0.2309
     22  O         48.8770   34.7080   68.7290 O.2    18  GLY18      -0.2863
     23  N         47.1580   36.9540   68.0050 N.3    21  LEU21      -0.1245
     24  CA        46.9510   36.6190   66.5880 C.3    21  LEU21       0.1561
     25  C         46.0250   35.3860   66.4400 C.2    21  LEU21       0.2260
     26  O         45.1220   35.3480   65.5570 O.2    21  LEU21      -0.2867
     27  CB        48.2830   36.3920   65.8940 C.3    21  LEU21       0.0270
     28  CG        48.2360   36.1160   64.3950 C.3    21  LEU21       0.0019
     29  CD1       47.3240   37.1060   63.7010 C.3    21  LEU21       0.0001
     30  CD2       49.6350   36.1400   63.7960 C.3    21  LEU21       0.0001
     31  N         47.1160   40.9700   61.3540 N.3    37  VAL37      -0.1245
     32  CA        48.4370   41.4770   61.7800 C.3    37  VAL37       0.1561
     33  C         48.3480   42.9510   62.2270 C.2    37  VAL37       0.2260
     34  O         48.8710   43.3270   63.2800 O.2    37  VAL37      -0.2867
     35  CB        49.5210   41.2760   60.6850 C.3    37  VAL37       0.0252
     36  CG1       50.5950   42.3490   60.7550 C.3    37  VAL37       0.0019
     37  CG2       50.1640   39.9090   60.8170 C.3    37  VAL37       0.0019
     38  N         46.4730   43.3840   65.4510 N.3    40  VAL40      -0.1231
     39  CA        47.3010   42.7970   66.4930 C.3    40  VAL40       0.1692
     40  C         48.2920   43.8540   67.0010 C.2    40  VAL40       0.2592
     41  O         48.4630   44.0890   68.2190 O.2    40  VAL40      -0.2718
     42  CB        47.9780   41.5200   65.9240 C.3    40  VAL40       0.0266
     43  CG1       49.3570   41.2560   66.5050 C.3    40  VAL40       0.0020
     44  CG2       47.0440   40.3190   66.1000 C.3    40  VAL40       0.0020
     45  N         48.9290   44.5150   66.0580 N.am   41  ASN41      -0.1974
     46  CA        49.8610   45.5590   66.3920 C.3    41  ASN41       0.1688
     47  C         49.1780   46.6510   67.1700 C.2    41  ASN41       0.2292
     48  O         49.7260   47.1550   68.1460 O.2    41  ASN41      -0.2864
     49  CB        50.4690   46.1000   65.1180 C.3    41  ASN41       0.1181
     50  CG        51.3340   45.0900   64.4380 C.2    41  ASN41       0.2629
     51  OD1       51.6810   44.0620   65.0150 O.2    41  ASN41      -0.2716
     52  ND2       51.6980   45.3730   63.2080 N.am   41  ASN41      -0.0877
     53  N         59.3880   36.4090   60.7830 N.3   128  ASP128     -0.1225
     54  CA        58.2830   36.7870   61.6930 C.3   128  ASP128      0.1805
     55  C         56.9350   36.7420   60.9900 C.2   128  ASP128      0.2597
     56  O         55.9170   36.3310   61.5520 O.2   128  ASP128     -0.2718
     57  CB        58.4980   38.2240   62.2270 C.3   128  ASP128      0.1424
     58  CG        59.7640   38.3660   63.0790 C.2   128  ASP128      0.3668
     59  OD1       60.2700   37.3310   63.5530 O.co2 128  ASP128     -0.2456
     60  OD2       60.2480   39.5150   63.2830 O.co2 128  ASP128     -0.2456
     61  N         56.9350   37.2240   59.7610 N.am  129  LYS129     -0.1979
     62  CA        55.7330   37.2360   58.9610 C.3   129  LYS129      0.1596
     63  C         55.3990   35.7970   58.5490 C.2   129  LYS129      0.2287
     64  O         54.2330   35.4290   58.5100 O.2   129  LYS129     -0.2864
     65  CB        55.9090   38.1600   57.7370 C.3   129  LYS129      0.0298
     66  CG        54.6340   38.4670   56.9450 C.3   129  LYS129      0.0038
     67  CD        54.9660   39.3430   55.7450 C.3   129  LYS129      0.0206
     68  CE        54.1440   38.9640   54.5170 C.3   129  LYS129      0.1093
     69  NZ        54.8130   39.3940   53.2390 N.3   129  LYS129     -0.1314
     70  N         56.0150   32.9510   60.0840 N.3   131  LEU131     -0.1231
     71  CA        55.5070   32.1840   61.2060 C.3   131  LEU131      0.1693
     72  C         54.1440   32.7220   61.6130 C.2   131  LEU131      0.2592
     73  O         53.2150   31.9530   61.8250 O.2   131  LEU131     -0.2718
     74  CB        56.5150   32.1770   62.3630 C.3   131  LEU131      0.0284
     75  CG        57.8770   31.6740   61.8780 C.3   131  LEU131      0.0019
     76  CD1       59.0240   32.1250   62.7650 C.3   131  LEU131      0.0001
     77  CD2       57.8730   30.1630   61.7140 C.3   131  LEU131      0.0001
     78  N         54.0130   34.0450   61.6690 N.am  132  GLY132     -0.1957
     79  CA        52.7300   34.6640   61.9760 C.3   132  GLY132      0.1869
     80  C         51.6270   34.1480   61.0750 C.2   132  GLY132      0.2309
     81  O         50.5360   33.8540   61.5600 O.2   132  GLY132     -0.2863
     82  N         50.4650   30.4830   62.1750 N.3   135  LEU135     -0.1245
     83  CA        49.4870   30.6320   63.2500 C.3   135  LEU135      0.1561
     84  C         48.0960   31.0260   62.7760 C.2   135  LEU135      0.2260
     85  O         47.1080   30.4680   63.2380 O.2   135  LEU135     -0.2867
     86  CB        49.9130   31.7210   64.2410 C.3   135  LEU135      0.0270
     87  CG        51.2290   31.6600   64.9780 C.3   135  LEU135      0.0019
     88  CD1       51.3000   32.9600   65.7510 C.3   135  LEU135      0.0001
     89  CD2       51.3200   30.4370   65.8950 C.3   135  LEU135      0.0001
@<TRIPOS>BOND
     1    69    68    1
     2    68    67    1
     3    67    66    1
     4    66    65    1
     5    65    62    1
     6    64    63    2
     7    63    62    1
     8    62    61    1
     9    61    55   am
    10    70    71    1
    11    35    36    1
    12    35    37    1
    13    35    32    1
    14    53    54    1
    15    55    56    2
    16    55    54    1
    17    80    81    2
    18    80    79    1
    19    71    72    1
    20    71    74    1
    21    31    32    1
    22    72    78   am
    23    72    73    2
    24    78    79    1
    25    54    57    1
    26    77    75    1
    27    32    33    1
    28    75    74    1
    29    75    76    1
    30    82    83    1
    31    57    58    1
    32    33    34    2
    33    84    85    2
    34    84    83    1
    35    58    60   ar
    36    58    59   ar
    37    52    50   am
    38    83    86    1
    39    29    28    1
    40    30    28    1
    41    86    87    1
    42    28    27    1
    43    50    51    2
    44    50    49    1
    45    87    88    1
    46    87    89    1
    47    49    46    1
    48    38    39    1
    49    26    25    2
    50    27    24    1
    51    42    44    1
    52    42    39    1
    53    42    43    1
    54    45    46    1
    55    45    40   am
    56    46    47    1
    57    25    24    1
    58    39    40    1
    59    24    23    1
    60    40    41    2
    61    18    17    1
    62    47    48    2
    63    17    16    1
    64    22    21    2
    65    13    12    2
    66    16    15    1
    67     9     8    1
    68    20    21    1
    69    20    19    1
    70     8     7    1
    71    14    15    1
    72    14    11    1
    73    12    19   am
    74    12    11    1
    75    11    10    1
    76     6     7    1
    77     6     5    1
    78     4     3    2
    79     5     2    1
    80     2     3    1
    81     2     1    1
