@<TRIPOS>MOLECULE
tmp/4ot6A00.pdb
 161 152 0 0 0
SMALL
GASTEIGER

@<TRIPOS>ATOM
      1  N         26.8630   -4.3300   -1.4480 N.3    13  LYS13      -0.1231
      2  CA        27.9640   -3.4120   -1.7490 C.3    13  LYS13       0.1693
      3  C         28.0940   -2.2690   -0.7400 C.2    13  LYS13       0.2592
      4  O         27.1500   -1.9420   -0.0130 O.2    13  LYS13      -0.2718
      5  CB        27.9420   -2.9200   -3.2200 C.3    13  LYS13       0.0285
      6  CG        26.7380   -2.1060   -3.6830 C.3    13  LYS13       0.0035
      7  CD        26.5910   -2.1240   -5.2100 C.3    13  LYS13       0.0206
      8  CE        25.5340   -1.1280   -5.7000 C.3    13  LYS13       0.1093
      9  NZ        25.7640    0.2700   -5.2230 N.3    13  LYS13      -0.1314
     10  N         29.2800   -1.6750   -0.6860 N.am   14  GLU14      -0.1966
     11  CA        29.5270   -0.5630    0.2200 C.3    14  GLU14       0.1733
     12  C         29.1430    0.7990   -0.3640 C.2    14  GLU14       0.2616
     13  O         29.5530    1.1550   -1.4710 O.2    14  GLU14      -0.2715
     14  CB        30.9720   -0.5620    0.6630 C.3    14  GLU14       0.0429
     15  CG        31.2520    0.4840    1.7270 C.3    14  GLU14       0.1163
     16  CD        32.4600    0.1250    2.5310 C.2    14  GLU14       0.3649
     17  OE1       32.5660   -1.0640    2.9280 O.co2  14  GLU14      -0.2457
     18  OE2       33.2920    1.0280    2.7520 O.co2  14  GLU14      -0.2457
     19  N         28.3680    1.5580    0.4020 N.am   15  LEU15      -0.1963
     20  CA        27.8230    2.8240   -0.0720 C.3    15  LEU15       0.1728
     21  C         28.6530    4.0160    0.3600 C.2    15  LEU15       0.2617
     22  O         28.7500    5.0130   -0.3670 O.2    15  LEU15      -0.2715
     23  CB        26.3720    2.9920    0.3760 C.3    15  LEU15       0.0311
     24  CG        25.4100    1.9390   -0.1850 C.3    15  LEU15       0.0022
     25  CD1       24.0110    2.1570    0.3650 C.3    15  LEU15       0.0001
     26  CD2       25.4120    1.9610   -1.7090 C.3    15  LEU15       0.0001
     27  N         29.2470    3.9100    1.5430 N.am   16  GLY16      -0.1940
     28  CA        30.1670    4.9250    2.0340 C.3    16  GLY16       0.2014
     29  C         30.3730    4.8480    3.5290 C.2    16  GLY16       0.2640
     30  O         29.8500    3.9420    4.2020 O.2    16  GLY16      -0.2714
     31  N         31.1530    5.8040    4.0310 N.am   17  THR17      -0.1936
     32  CA        31.3570    6.0150    5.4530 C.3    17  THR17       0.2028
     33  C         30.7910    7.3640    5.8450 C.2    17  THR17       0.2642
     34  O         30.7050    8.2710    5.0380 O.2    17  THR17      -0.2714
     35  CB        32.8420    6.0090    5.8270 C.3    17  THR17       0.1808
     36  OG1       33.4230    4.7670    5.4250 O.3    17  THR17      -0.2208
     37  CG2       33.0060    6.1660    7.3400 C.3    17  THR17       0.0379
     38  N         30.3760    7.4740    7.0940 N.am   18  GLY18      -0.1954
     39  CA        29.9890    8.7410    7.6640 C.3    18  GLY18       0.1869
     40  C         30.2390    8.6020    9.1420 C.2    18  GLY18       0.2309
     41  O         31.0260    7.7500    9.5660 O.2    18  GLY18      -0.2863
     42  N         28.4200    2.2990    5.7290 N.3    23  VAL23      -0.1245
     43  CA        27.0490    2.0800    5.3060 C.3    23  VAL23       0.1561
     44  C         27.0750    1.1730    4.0750 C.2    23  VAL23       0.2260
     45  O         27.8000    1.4300    3.0990 O.2    23  VAL23      -0.2867
     46  CB        26.2920    3.3920    5.0300 C.3    23  VAL23       0.0252
     47  CG1       24.8870    3.0920    4.5460 C.3    23  VAL23       0.0019
     48  CG2       26.2310    4.2450    6.2930 C.3    23  VAL23       0.0019
     49  N         19.5310    0.3340    2.8580 N.3    35  ALA35      -0.1245
     50  CA        20.8270    0.7750    3.3220 C.3    35  ALA35       0.1562
     51  C         21.0130    0.2600    4.7530 C.2    35  ALA35       0.2260
     52  O         20.0730    0.2460    5.5290 O.2    35  ALA35      -0.2867
     53  CB        20.9430    2.3000    3.2640 C.3    35  ALA35       0.0290
     54  N         23.3900    0.9040    7.9680 N.3    37  LYS37      -0.1245
     55  CA        24.4350    1.5630    8.7270 C.3    37  LYS37       0.1561
     56  C         24.9110    0.5470    9.7460 C.2    37  LYS37       0.2260
     57  O         24.1300    0.0980   10.5720 O.2    37  LYS37      -0.2867
     58  CB        23.8890    2.8140    9.4270 C.3    37  LYS37       0.0271
     59  CG        22.9850    3.6470    8.5470 C.3    37  LYS37       0.0035
     60  CD        21.9850    4.4550    9.3750 C.3    37  LYS37       0.0206
     61  CE        22.4930    5.8610    9.6430 C.3    37  LYS37       0.1093
     62  NZ        22.8050    6.5610    8.3660 N.3    37  LYS37      -0.1314
     63  N         13.5460    9.6380    4.8580 N.3    65  VAL65      -0.1245
     64  CA        14.1130    8.3130    4.6800 C.3    65  VAL65       0.1561
     65  C         13.4740    7.4260    5.7400 C.2    65  VAL65       0.2260
     66  O         13.5910    7.6940    6.9220 O.2    65  VAL65      -0.2867
     67  CB        15.6520    8.2880    4.7120 C.3    65  VAL65       0.0252
     68  CG1       16.1580    6.8520    4.6930 C.3    65  VAL65       0.0019
     69  CG2       16.1760    9.0020    3.4840 C.3    65  VAL65       0.0019
     70  N         17.4380    1.1610    6.8030 N.3    81  THR81      -0.1203
     71  CA        16.5450    2.1430    6.2190 C.3    81  THR81       0.1994
     72  C         16.2320    1.8680    4.7830 C.2    81  THR81       0.2618
     73  O         16.8540    1.0270    4.1270 O.2    81  THR81      -0.2717
     74  CB        17.1220    3.5670    6.2820 C.3    81  THR81       0.1784
     75  OG1       18.1890    3.6880    5.3360 O.3    81  THR81      -0.2211
     76  CG2       17.5640    3.9270    7.6690 C.3    81  THR81       0.0376
     77  N         15.2500    2.6090    4.3070 N.am   82  GLU82      -0.1965
     78  CA        14.9200    2.7190    2.9000 C.3    82  GLU82       0.1733
     79  C         16.1880    2.9840    2.0920 C.2    82  GLU82       0.2616
     80  O         17.0450    3.7550    2.5360 O.2    82  GLU82      -0.2715
     81  CB        13.9890    3.9130    2.7910 C.3    82  GLU82       0.0429
     82  CG        13.5090    4.2660    1.4090 C.3    82  GLU82       0.1163
     83  CD        12.5970    5.4510    1.4370 C.2    82  GLU82       0.3649
     84  OE1       12.0970    5.8220    0.3890 O.co2  82  GLU82      -0.2457
     85  OE2       12.3640    6.0100    2.5160 O.co2  82  GLU82      -0.2457
     86  N         16.3340    2.3200    0.9460 N.am   83  TYR83      -0.1960
     87  CA        17.4940    2.5210    0.1000 C.3    83  TYR83       0.1771
     88  C         17.2480    3.6840   -0.8770 C.2    83  TYR83       0.2619
     89  O         16.1660    3.8090   -1.4370 O.2    83  TYR83      -0.2715
     90  CB        17.8400    1.2370   -0.6520 C.3    83  TYR83       0.0574
     91  CG        18.9860    1.3990   -1.6560 C.ar   83  TYR83      -0.0198
     92  CD1       20.2850    1.7030   -1.2130 C.ar   83  TYR83      -0.0009
     93  CD2       18.7630    1.2690   -3.0440 C.ar   83  TYR83      -0.0009
     94  CE1       21.3180    1.8680   -2.1150 C.ar   83  TYR83       0.0417
     95  CE2       19.7990    1.4070   -3.9460 C.ar   83  TYR83       0.0417
     96  CZ        21.0700    1.7140   -3.4790 C.ar   83  TYR83       0.1957
     97  OH        22.1320    1.8760   -4.3580 O.3    83  TYR83      -0.2866
     98  N         18.2430    4.5380   -1.0700 N.am   84  MET84      -0.1963
     99  CA        18.0560    5.7130   -1.9420 C.3    84  MET84       0.1736
    100  C         19.0660    5.6380   -3.0830 C.2    84  MET84       0.2616
    101  O         20.2420    5.9390   -2.9030 O.2    84  MET84      -0.2715
    102  CB        18.1960    7.0020   -1.1470 C.3    84  MET84       0.0427
    103  CG        17.1880    7.1450   -0.0110 C.3    84  MET84       0.0599
    104  SD        15.5320    7.6010   -0.5460 S.3    84  MET84      -0.1393
    105  CE        15.8430    9.3460   -0.9200 C.3    84  MET84       0.0692
    106  N         18.5980    5.2280   -4.2540 N.am   85  ALA85      -0.1963
    107  CA        19.4800    4.7760   -5.2880 C.3    85  ALA85       0.1728
    108  C         20.4010    5.8720   -5.8150 C.2    85  ALA85       0.2616
    109  O         21.5100    5.5850   -6.3000 O.2    85  ALA85      -0.2715
    110  CB        18.6780    4.1590   -6.4360 C.3    85  ALA85       0.0334
    111  N         19.9510    7.1130   -5.7550 N.am   86  ASN86      -0.1958
    112  CA        20.7740    8.1760   -6.3190 C.3    86  ASN86       0.1819
    113  C         21.7140    8.8550   -5.3200 C.2    86  ASN86       0.2622
    114  O         22.4240    9.7950   -5.6720 O.2    86  ASN86      -0.2715
    115  CB        19.9510    9.1220   -7.2070 C.3    86  ASN86       0.1195
    116  CG        19.6190    8.4800   -8.5550 C.2    86  ASN86       0.2630
    117  OD1       20.5040    7.9160   -9.1850 O.2    86  ASN86      -0.2716
    118  ND2       18.3530    8.5270   -8.9820 N.am   86  ASN86      -0.0877
    119  N         21.7640    8.2950   -4.1040 N.am   87  GLY87      -0.1940
    120  CA        22.7380    8.6810   -3.0910 C.3    87  GLY87       0.2014
    121  C         22.5530   10.0910   -2.5390 C.2    87  GLY87       0.2639
    122  O         21.4550   10.6690   -2.5420 O.2    87  GLY87      -0.2714
    123  N         23.6680   10.6350   -2.0890 N.am   88  CYS88      -0.1967
    124  CA        23.7090   11.9140   -1.4200 C.3    88  CYS88       0.1712
    125  C         23.3470   13.0750   -2.3620 C.2    88  CYS88       0.2296
    126  O         23.9150   13.2120   -3.4270 O.2    88  CYS88      -0.2864
    127  CB        25.1220   12.0630   -0.8380 C.3    88  CYS88       0.0983
    128  SG        25.3350   13.5600    0.1250 S.3    88  CYS88      -0.0798
    129  N         26.3730   15.3670   -3.6390 N.3    91  ASN91      -0.1240
    130  CA        26.9950   14.7920   -4.8320 C.3    91  ASN91       0.1653
    131  C         26.1070   14.9300   -6.0680 C.2    91  ASN91       0.2266
    132  O         26.5570   15.3360   -7.1490 O.2    91  ASN91      -0.2867
    133  CB        27.2650   13.2960   -4.5980 C.3    91  ASN91       0.1155
    134  CG        28.4460   13.0480   -3.6910 C.2    91  ASN91       0.2627
    135  OD1       28.3910   13.2690   -2.4830 O.2    91  ASN91      -0.2716
    136  ND2       29.5280   12.5620   -4.2740 N.am   91  ASN91      -0.0877
    137  N         26.0970   18.1830   -7.5470 N.3    94  ARG94      -0.1245
    138  CA        27.3850   18.5200   -8.0770 C.3    94  ARG94       0.1563
    139  C         27.7020   17.9840   -9.4790 C.2    94  ARG94       0.2260
    140  O         28.5850   18.5420  -10.1470 O.2    94  ARG94      -0.2867
    141  CB        28.5040   18.2260   -7.0510 C.3    94  ARG94       0.0307
    142  CG        28.6210   19.2790   -5.9400 C.3    94  ARG94       0.0489
    143  CD        29.6120   18.8280   -4.8820 C.3    94  ARG94       0.2205
    144  NE        29.6840   19.8260   -3.8290 N.pl3  94  ARG94      -0.0865
    145  CZ        30.4330   19.7450   -2.7300 C.cat  94  ARG94       0.5346
    146  NH1       31.1990   18.6800   -2.5010 N.pl3  94  ARG94       0.1354
    147  NH2       30.3950   20.7230   -1.8320 N.pl3  94  ARG94       0.1354
    148  N         19.1150   12.5100    0.7860 N.3   135  LEU135     -0.1245
    149  CA        19.3740   11.5030   -0.2040 C.3   135  LEU135      0.1561
    150  C         18.3970   11.6220   -1.3620 C.2   135  LEU135      0.2260
    151  O         17.3570   12.2870   -1.2460 O.2   135  LEU135     -0.2867
    152  CB        19.3460   10.0970    0.4330 C.3   135  LEU135      0.0270
    153  CG        20.4090    9.7990    1.5060 C.3   135  LEU135      0.0019
    154  CD1       19.8770    8.6640    2.3300 C.3   135  LEU135      0.0001
    155  CD2       21.7700    9.4050    0.9350 C.3   135  LEU135      0.0001
    156  N         17.3420   12.6230    5.6900 N.3   145  SER145     -0.1217
    157  CA        17.9360   11.4630    6.2940 C.3   145  SER145      0.1889
    158  C         18.5750   11.8070    7.6490 C.2   145  SER145      0.2288
    159  O         18.9640   12.9540    7.9040 O.2   145  SER145     -0.2866
    160  CB        18.9910   10.8890    5.3300 C.3   145  SER145      0.2089
    161  OG        19.6560    9.7840    5.9070 O.3   145  SER145     -0.2183
@<TRIPOS>BOND
     1   140   139    2
     2   139   138    1
     3   117   116    2
     4   118   116   am
     5   116   115    1
     6   138   137    1
     7   138   141    1
     8   115   112    1
     9   132   131    2
    10   141   142    1
    11   110   107    1
    12   112   111    1
    13   112   113    1
    14   109   108    2
    15   131   130    1
    16   142   143    1
    17   108   111   am
    18   108   107    1
    19     8     9    1
    20     8     7    1
    21   114   113    2
    22   113   119   am
    23   107   106    1
    24     7     6    1
    25   143   144    1
    26   130   133    1
    27   130   129    1
    28   133   134    1
    29    97    96    1
    30   136   134   am
    31   106   100   am
    32   119   120    1
    33    95    96   ar
    34    95    93   ar
    35   144   145    2
    36   134   135    2
    37     6     5    1
    38    96    94   ar
    39   126   125    2
    40     5     2    1
    41   120   121    1
    42   100   101    2
    43   100    99    1
    44    93    91   ar
    45   145   146    1
    46   145   147    1
    47   122   121    2
    48   121   123   am
    49   125   124    1
    50    94    92   ar
    51   123   124    1
    52    99   102    1
    53    99    98    1
    54     2     1    1
    55     2     3    1
    56    26    24    1
    57    91    92   ar
    58    91    90    1
    59    13    12    2
    60    89    88    2
    61   124   127    1
    62   150   151    2
    63   150   149    1
    64   102   103    1
    65    98    88   am
    66   105   104    1
    67    88    87    1
    68   127   128    1
    69     3    10   am
    70     3     4    2
    71    10    11    1
    72    90    87    1
    73   104   103    1
    74    22    21    2
    75    12    11    1
    76    12    19   am
    77   149   152    1
    78   149   148    1
    79    24    25    1
    80    24    23    1
    81    20    21    1
    82    20    23    1
    83    20    19    1
    84    87    86    1
    85    11    14    1
    86    21    27   am
    87    84    83   ar
    88   152   153    1
    89    14    15    1
    90   155   153    1
    91    86    79   am
    92    82    83    1
    93    82    81    1
    94    83    85   ar
    95   153   154    1
    96    27    28    1
    97    15    16    1
    98    28    29    1
    99    79    80    2
   100    79    78    1
   101    16    18   ar
   102    16    17   ar
   103    81    78    1
   104    49    50    1
   105    78    77    1
   106    45    44    2
   107    53    50    1
   108    50    51    1
   109    69    67    1
   110    29    31   am
   111    29    30    2
   112    31    32    1
   113    44    43    1
   114    73    72    2
   115    77    72   am
   116    47    46    1
   117    64    67    1
   118    64    63    1
   119    64    65    1
   120    68    67    1
   121    51    52    2
   122    72    71    1
   123    46    43    1
   124    46    48    1
   125    34    33    2
   126    43    42    1
   127   160   161    1
   128   160   157    1
   129    75    74    1
   130    36    35    1
   131    32    35    1
   132    32    33    1
   133   156   157    1
   134    65    66    2
   135    35    37    1
   136    33    38   am
   137    71    74    1
   138    71    70    1
   139    74    76    1
   140   157   158    1
   141    38    39    1
   142   158   159    2
   143    39    40    1
   144    54    55    1
   145    62    61    1
   146    59    60    1
   147    59    58    1
   148    55    58    1
   149    55    56    1
   150    40    41    2
   151    60    61    1
   152    56    57    2
