@<TRIPOS>MOLECULE
tmp/4ot7A00.pdb
 229 228 0 0 0
SMALL
GASTEIGER

@<TRIPOS>ATOM
      1  N         77.5640   40.9310    2.9940 N.3    22  ALA22      -0.1231
      2  CA        76.5760   41.8460    2.4980 C.3    22  ALA22       0.1679
      3  C         75.6580   42.4380    3.5460 C.2    22  ALA22       0.2434
      4  O         75.5050   41.8550    4.6920 O.2    22  ALA22      -0.2733
      5  CB        75.7480   41.1490    1.3580 C.3    22  ALA22       0.0304
      6  N         75.1000   43.6170    3.2640 N.am   23  PRO23      -0.2718
      7  CA        74.2120   44.1890    4.2050 C.3    23  PRO23       0.1535
      8  C         72.9120   43.3700    4.4730 C.2    23  PRO23       0.2598
      9  O         72.2430   42.9920    3.5590 O.2    23  PRO23      -0.2715
     10  CB        73.8470   45.5140    3.6380 C.3    23  PRO23       0.0310
     11  CG        74.0270   45.3800    2.1020 C.3    23  PRO23       0.0237
     12  CD        75.1660   44.4290    2.0280 C.3    23  PRO23       0.0939
     13  N         72.5760   43.1920    5.7420 N.am   24  LEU24      -0.1964
     14  CA        71.3900   42.3360    6.1090 C.3    24  LEU24       0.1728
     15  C         70.6110   42.9350    7.2620 C.2    24  LEU24       0.2617
     16  O         71.0430   42.8930    8.4260 O.2    24  LEU24      -0.2715
     17  CB        71.8160   40.9360    6.4950 C.3    24  LEU24       0.0311
     18  CG        72.5950   40.1050    5.4610 C.3    24  LEU24       0.0022
     19  CD1       73.2960   38.9390    6.1180 C.3    24  LEU24       0.0001
     20  CD2       71.6830   39.5840    4.3460 C.3    24  LEU24       0.0001
     21  N         69.4700   43.4830    6.9210 N.am   25  THR25      -0.1937
     22  CA        68.4470   43.8770    7.9010 C.3    25  THR25       0.2028
     23  C         67.9910   42.6430    8.7000 C.2    25  THR25       0.2642
     24  O         67.6910   41.6030    8.0950 O.2    25  THR25      -0.2714
     25  CB        67.2520   44.5410    7.1590 C.3    25  THR25       0.1808
     26  OG1       67.6470   45.8330    6.6660 O.3    25  THR25      -0.2208
     27  CG2       66.0300   44.6850    8.1000 C.3    25  THR25       0.0379
     28  N         68.0800   42.7180   10.0350 N.am   26  ARG26      -0.1977
     29  CA        67.7460   41.6250   10.9470 C.3    26  ARG26       0.1597
     30  C         66.7410   41.9700   12.0460 C.2    26  ARG26       0.2287
     31  O         66.2370   41.0520   12.6700 O.2    26  ARG26      -0.2864
     32  CB        68.9720   41.0130   11.6260 C.3    26  ARG26       0.0334
     33  CG        70.0270   40.5840   10.5720 C.3    26  ARG26       0.0492
     34  CD        69.4980   39.5220    9.5340 C.3    26  ARG26       0.2205
     35  NE        68.9530   38.3420   10.2380 N.pl3  26  ARG26      -0.0865
     36  CZ        69.6580   37.3610   10.8240 C.cat  26  ARG26       0.5346
     37  NH1       70.9970   37.3050   10.8000 N.pl3  26  ARG26       0.1354
     38  NH2       69.0150   36.3570   11.4430 N.pl3  26  ARG26       0.1354
     39  N         71.0360   47.8950    6.8620 N.3    56  ALA56      -0.1245
     40  CA        70.4890   49.2170    6.5960 C.3    56  ALA56       0.1562
     41  C         70.2080   49.9730    7.8480 C.2    56  ALA56       0.2260
     42  O         69.5500   49.4610    8.7460 O.2    56  ALA56      -0.2867
     43  CB        69.2290   49.1080    5.6930 C.3    56  ALA56       0.0290
     44  N         61.0090   51.2680    9.9270 N.3    66  TRP66      -0.1241
     45  CA        60.9740   49.7940   10.1820 C.3    66  TRP66       0.1605
     46  C         61.2450   49.5920   11.6790 C.2    66  TRP66       0.2264
     47  O         62.3990   49.8380   12.0880 O.2    66  TRP66      -0.2867
     48  CB        62.1010   49.0660    9.4130 C.3    66  TRP66       0.0550
     49  CG        62.0860   49.1450    7.9150 C.ar   66  TRP66       0.0003
     50  CD1       60.9890   49.3220    7.1230 C.ar   66  TRP66       0.0946
     51  CD2       63.2110   48.9690    6.9990 C.ar   66  TRP66       0.0152
     52  NE1       61.3490   49.2890    5.7900 N.ar   66  TRP66      -0.2442
     53  CE2       62.7030   49.0750    5.6860 C.ar   66  TRP66       0.0810
     54  CE3       64.5890   48.7520    7.1620 C.ar   66  TRP66       0.0012
     55  CZ2       63.5270   48.9600    4.5430 C.ar   66  TRP66       0.0191
     56  CZ3       65.3980   48.6470    6.0260 C.ar   66  TRP66       0.0001
     57  CH2       64.8660   48.7570    4.7390 C.ar   66  TRP66       0.0015
     58  N         75.8590   50.7410    6.3780 N.3    98  GLN98      -0.1245
     59  CA        75.0010   51.0670    5.2250 C.3    98  GLN98       0.1566
     60  C         73.9560   52.0800    5.6450 C.2    98  GLN98       0.2260
     61  O         73.1520   51.8500    6.5670 O.2    98  GLN98      -0.2867
     62  CB        74.3240   49.8250    4.6410 C.3    98  GLN98       0.0367
     63  CG        73.6300   50.1940    3.3120 C.3    98  GLN98       0.0905
     64  CD        72.7650   49.0870    2.7240 C.2    98  GLN98       0.2608
     65  OE1       71.7540   48.7470    3.2820 O.2    98  GLN98      -0.2717
     66  NE2       73.1060   48.6390    1.5160 N.am   98  GLN98      -0.0878
     67  N         70.7070   54.2830    4.9510 N.3   100  TRP100     -0.1241
     68  CA        69.4380   54.0650    4.2380 C.3   100  TRP100      0.1605
     69  C         68.5530   55.2690    4.3470 C.2   100  TRP100      0.2264
     70  O         68.2860   55.7870    5.4110 O.2   100  TRP100     -0.2867
     71  CB        68.7000   52.8930    4.8520 C.3   100  TRP100      0.0550
     72  CG        67.6440   52.3270    3.9250 C.ar  100  TRP100      0.0003
     73  CD1       66.2830   52.6410    3.8690 C.ar  100  TRP100      0.0946
     74  CD2       67.8670   51.3270    2.9480 C.ar  100  TRP100      0.0152
     75  NE1       65.6790   51.8940    2.8640 N.ar  100  TRP100     -0.2442
     76  CE2       66.6220   51.0720    2.3020 C.ar  100  TRP100      0.0810
     77  CE3       69.0040   50.6140    2.5480 C.ar  100  TRP100      0.0012
     78  CZ2       66.4970   50.1210    1.2890 C.ar  100  TRP100      0.0191
     79  CZ3       68.8770   49.6780    1.5390 C.ar  100  TRP100      0.0001
     80  CH2       67.6310   49.4300    0.9280 C.ar  100  TRP100      0.0015
     81  N         73.3400   53.4610   -0.3600 N.3   138  HIS138     -0.1241
     82  CA        72.5660   52.5530   -1.1900 C.3   138  HIS138      0.1621
     83  C         71.7600   53.3430   -2.2370 C.2   138  HIS138      0.2264
     84  O         71.0340   54.2500   -1.8840 O.2   138  HIS138     -0.2867
     85  CB        71.6210   51.7720   -0.2860 C.3   138  HIS138      0.0745
     86  CG        70.6260   50.9800   -1.0570 C.ar  138  HIS138      0.0817
     87  ND1       70.9630   49.8090   -1.7100 N.ar  138  HIS138     -0.2268
     88  CD2       69.3400   51.2510   -1.3830 C.ar  138  HIS138      0.1154
     89  CE1       69.9240   49.3690   -2.3870 C.ar  138  HIS138      0.1986
     90  NE2       68.9240   50.2270   -2.2070 N.ar  138  HIS138     -0.2212
     91  N         76.5460   50.9560   -2.8890 N.3   181  ARG181     -0.1245
     92  CA        75.9090   49.7650   -3.4770 C.3   181  ARG181      0.1563
     93  C         74.8620   50.2340   -4.4960 C.2   181  ARG181      0.2260
     94  O         74.0080   51.0710   -4.2060 O.2   181  ARG181     -0.2867
     95  CB        75.1800   48.8830   -2.4950 C.3   181  ARG181      0.0307
     96  CG        74.2500   47.8730   -3.2040 C.3   181  ARG181      0.0489
     97  CD        73.6190   46.9390   -2.2040 C.3   181  ARG181      0.2205
     98  NE        74.4220   45.7670   -1.9170 N.pl3 181  ARG181     -0.0865
     99  CZ        73.8730   44.6180   -1.4830 C.cat 181  ARG181      0.5346
    100  NH1       74.6150   43.5900   -1.2150 N.pl3 181  ARG181      0.1354
    101  NH2       72.5780   44.5010   -1.3410 N.pl3 181  ARG181      0.1354
    102  N         65.4870   46.4220   -5.0750 N.3   187  VAL187     -0.1245
    103  CA        65.9980   46.5600   -3.7110 C.3   187  VAL187      0.1561
    104  C         65.6140   45.4180   -2.7810 C.2   187  VAL187      0.2260
    105  O         66.4680   44.9050   -2.0420 O.2   187  VAL187     -0.2867
    106  CB        65.5790   47.9280   -3.1300 C.3   187  VAL187      0.0252
    107  CG1       65.8220   48.0160   -1.6230 C.3   187  VAL187      0.0019
    108  CG2       66.3360   49.0120   -3.8700 C.3   187  VAL187      0.0019
    109  N         74.7800   44.5250   -7.0370 N.3   213  ARG213     -0.1245
    110  CA        73.9290   43.3640   -6.8910 C.3   213  ARG213      0.1563
    111  C         73.4200   42.9300   -8.2730 C.2   213  ARG213      0.2260
    112  O         72.6050   43.6260   -8.8600 O.2   213  ARG213     -0.2867
    113  CB        72.7740   43.7190   -6.0180 C.3   213  ARG213      0.0307
    114  CG        71.8960   42.5490   -5.7080 C.3   213  ARG213      0.0489
    115  CD        70.8690   42.9130   -4.6740 C.3   213  ARG213      0.2205
    116  NE        70.0620   41.7150   -4.4540 N.pl3 213  ARG213     -0.0865
    117  CZ        69.0010   41.6440   -3.6640 C.cat 213  ARG213      0.5346
    118  NH1       68.6100   42.7070   -2.9820 N.pl3 213  ARG213      0.1354
    119  NH2       68.3640   40.4920   -3.5270 N.pl3 213  ARG213      0.1354
    120  N         77.6780   40.8240   -5.9390 N.3   244  ASN244     -0.1225
    121  CA        76.7660   40.1720   -5.0060 C.3   244  ASN244      0.1785
    122  C         75.5800   39.5590   -5.7540 C.2   244  ASN244      0.2597
    123  O         75.1390   40.1640   -6.7800 O.2   244  ASN244     -0.2718
    124  CB        76.2050   41.1820   -4.0370 C.3   244  ASN244      0.1169
    125  CG        75.0340   40.6330   -3.2260 C.2   244  ASN244      0.2627
    126  OD1       73.8590   40.9520   -3.4590 O.2   244  ASN244     -0.2716
    127  ND2       75.3670   39.8640   -2.2140 N.am  244  ASN244     -0.0877
    128  N         75.0600   38.4600   -5.1730 N.am  245  GLN245     -0.1965
    129  CA        73.7400   37.8100   -5.4650 C.3   245  GLN245      0.1733
    130  C         73.9870   36.3600   -5.8840 C.2   245  GLN245      0.2616
    131  O         74.5170   36.1230   -6.9710 O.2   245  GLN245     -0.2715
    132  CB        72.9230   38.5080   -6.5500 C.3   245  GLN245      0.0408
    133  CG        71.6060   37.8000   -6.8620 C.3   245  GLN245      0.0908
    134  CD        70.5930   38.0520   -5.8250 C.2   245  GLN245      0.2608
    135  OE1       70.2940   39.2090   -5.5330 O.2   245  GLN245     -0.2717
    136  NE2       69.9700   36.9660   -5.2880 N.am  245  GLN245     -0.0878
    137  N         73.5830   35.4120   -5.0530 N.am  246  ASP246     -0.1957
    138  CA        73.6440   33.9850   -5.3920 C.3   246  ASP246      0.1840
    139  C         75.0220   33.4110   -5.6210 C.2   246  ASP246      0.2622
    140  O         75.1320   32.3300   -6.1890 O.2   246  ASP246     -0.2715
    141  CB        72.7450   33.6990   -6.6250 C.3   246  ASP246      0.1450
    142  CG        71.2590   33.7880   -6.2700 C.2   246  ASP246      0.3671
    143  OD1       70.8970   33.3370   -5.1680 O.co2 246  ASP246     -0.2456
    144  OD2       70.5250   34.3360   -7.0820 O.co2 246  ASP246     -0.2456
    145  N         76.0920   34.0730   -5.1610 N.am  247  TYR247     -0.1974
    146  CA        77.4060   33.5050   -5.3770 C.3   247  TYR247      0.1639
    147  C         77.6850   32.3350   -4.5030 C.2   247  TYR247      0.2290
    148  O         77.4430   32.3740   -3.3000 O.2   247  TYR247     -0.2864
    149  CB        78.5370   34.5610   -5.2160 C.3   247  TYR247      0.0560
    150  CG        78.6350   35.4510   -6.4300 C.ar  247  TYR247     -0.0198
    151  CD1       79.3860   35.0690   -7.5520 C.ar  247  TYR247     -0.0009
    152  CD2       77.9260   36.6390   -6.4890 C.ar  247  TYR247     -0.0009
    153  CE1       79.4510   35.8610   -8.6610 C.ar  247  TYR247      0.0417
    154  CE2       78.0410   37.4700   -7.5800 C.ar  247  TYR247      0.0417
    155  CZ        78.7820   37.0550   -8.6760 C.ar  247  TYR247      0.1957
    156  OH        78.8460   37.8530   -9.8020 O.3   247  TYR247     -0.2866
    157  N         80.5320   39.7470   -2.1120 N.3   265  SER265     -0.1202
    158  CA        79.8040   39.7880   -0.8300 C.3   265  SER265      0.2020
    159  C         78.7190   38.7250   -0.8530 C.2   265  SER265      0.2619
    160  O         78.1340   38.4320   -1.8870 O.2   265  SER265     -0.2717
    161  CB        79.2380   41.1640   -0.5080 C.3   265  SER265      0.2103
    162  OG        78.1760   41.5090   -1.3590 O.3   265  SER265     -0.2182
    163  N         78.5290   38.1430    0.3160 N.am  266  PHE266     -0.1961
    164  CA        77.5770   37.0510    0.5460 C.3   266  PHE266      0.1771
    165  C         76.6240   37.5040    1.5920 C.2   266  PHE266      0.2620
    166  O         77.0480   38.0200    2.6520 O.2   266  PHE266     -0.2715
    167  CB        78.3290   35.8300    1.0400 C.3   266  PHE266      0.0574
    168  CG        79.3750   35.3430    0.0880 C.ar  266  PHE266     -0.0200
    169  CD1       80.6640   35.9430    0.0020 C.ar  266  PHE266     -0.0042
    170  CD2       79.0290   34.3270   -0.8410 C.ar  266  PHE266     -0.0042
    171  CE1       81.5860   35.4730   -0.8780 C.ar  266  PHE266     -0.0003
    172  CE2       79.9640   33.8610   -1.7130 C.ar  266  PHE266     -0.0003
    173  CZ        81.2400   34.4290   -1.7730 C.ar  266  PHE266     -0.0000
    174  N         75.3320   37.3830    1.3090 N.am  267  GLY267     -0.1940
    175  CA        74.3380   37.7670    2.3160 C.3   267  GLY267      0.2014
    176  C         73.8310   36.5870    3.0960 C.2   267  GLY267      0.2639
    177  O         74.2560   36.3090    4.2740 O.2   267  GLY267     -0.2714
    178  N         72.8210   35.9220    2.5220 N.am  268  ARG268     -0.1963
    179  CA        72.2250   34.7430    3.2510 C.3   268  ARG268      0.1714
    180  C         73.1900   33.7380    3.8560 C.2   268  ARG268      0.2455
    181  O         72.9680   33.3070    5.0180 O.2   268  ARG268     -0.2730
    182  CB        71.1670   34.0780    2.3060 C.3   268  ARG268      0.0347
    183  CG        69.9810   34.9990    2.0650 C.3   268  ARG268      0.0492
    184  CD        69.0930   34.5840    0.8970 C.3   268  ARG268      0.2205
    185  NE        69.7070   34.7910   -0.3750 N.pl3 268  ARG268     -0.0865
    186  CZ        69.2150   34.3720   -1.5510 C.cat 268  ARG268      0.5346
    187  NH1       68.0820   33.6710   -1.5910 N.pl3 268  ARG268      0.1354
    188  NH2       69.8630   34.6100   -2.6630 N.pl3 268  ARG268      0.1354
    189  N         74.2960   33.3600    3.1520 N.am  269  PRO269     -0.2772
    190  CA        75.2390   32.4150    3.7230 C.3   269  PRO269      0.1083
    191  C         75.8110   32.8670    5.0970 C.3   269  PRO269      0.2017
    192  O         76.0780   32.0410    6.0470 O.3   269  PRO269     -0.2186
    193  CB        76.2850   32.2620    2.6330 C.3   269  PRO269      0.0243
    194  CG        75.5420   32.5320    1.3820 C.3   269  PRO269      0.0233
    195  CD        74.6530   33.6840    1.7800 C.3   269  PRO269      0.0935
    196  N         74.2340   34.5500    7.3730 N.3   271  ILE271     -0.1245
    197  CA        73.1930   34.3770    8.4110 C.3   271  ILE271      0.1561
    198  C         73.4780   33.0900    9.1870 C.2   271  ILE271      0.2260
    199  O         73.6260   33.1320   10.3870 O.2   271  ILE271     -0.2867
    200  CB        71.7640   34.3850    7.8730 C.3   271  ILE271      0.0252
    201  CG1       71.4810   35.7430    7.2530 C.3   271  ILE271      0.0019
    202  CG2       70.7840   34.1290    9.0150 C.3   271  ILE271      0.0019
    203  CD1       70.2390   35.8580    6.4440 C.3   271  ILE271      0.0001
    204  N         64.7980   35.4390   10.2270 N.3   294  TRP294     -0.1227
    205  CA        65.5450   36.5310    9.6010 C.3   294  TRP294      0.1737
    206  C         65.2590   37.8740   10.2470 C.2   294  TRP294      0.2595
    207  O         66.1800   38.6570   10.5150 O.2   294  TRP294     -0.2718
    208  CB        65.1590   36.6390    8.1260 C.3   294  TRP294      0.0564
    209  CG        65.8440   35.7230    7.1960 C.ar  294  TRP294      0.0003
    210  CD1       66.7350   34.7280    7.4840 C.ar  294  TRP294      0.0946
    211  CD2       65.6170   35.6680    5.8010 C.ar  294  TRP294      0.0152
    212  NE1       67.1320   34.1140    6.3390 N.ar  294  TRP294     -0.2442
    213  CE2       66.4380   34.6550    5.2840 C.ar  294  TRP294      0.0810
    214  CE3       64.7650   36.3500    4.9460 C.ar  294  TRP294      0.0012
    215  CZ2       66.4670   34.3540    3.9620 C.ar  294  TRP294      0.0191
    216  CZ3       64.7910   36.0550    3.6390 C.ar  294  TRP294      0.0001
    217  CH2       65.6410   35.0650    3.1490 C.ar  294  TRP294      0.0015
    218  N         63.9680   38.1300   10.5260 N.am  295  TYR295     -0.1976
    219  CA        63.5260   39.4090   11.0880 C.3   295  TYR295      0.1639
    220  C         62.8110   39.4100   12.4150 C.2   295  TYR295      0.2290
    221  O         62.1990   40.4040   12.7700 O.2   295  TYR295     -0.2864
    222  CB        62.5670   39.9820   10.1300 C.3   295  TYR295      0.0560
    223  CG        63.0770   40.0710    8.7540 C.ar  295  TYR295     -0.0198
    224  CD1       64.2530   40.7290    8.5000 C.ar  295  TYR295     -0.0009
    225  CD2       62.4090   39.4920    7.6770 C.ar  295  TYR295     -0.0009
    226  CE1       64.7060   40.8610    7.2120 C.ar  295  TYR295      0.0417
    227  CE2       62.8620   39.6040    6.3940 C.ar  295  TYR295      0.0417
    228  CZ        64.0000   40.2990    6.1720 C.ar  295  TYR295      0.1957
    229  OH        64.4910   40.4120    4.9390 O.3   295  TYR295     -0.2866
@<TRIPOS>BOND
     1   156   155    1
     2   112   111    2
     3   155   153   ar
     4   155   154   ar
     5   153   151   ar
     6   111   110    1
     7   154   152   ar
     8   151   150   ar
     9   144   142   ar
    10   109   110    1
    11   131   130    2
    12   110   113    1
    13   133   132    1
    14   133   134    1
    15   123   122    2
    16   141   142    1
    17   141   138    1
    18   132   129    1
    19   152   150   ar
    20   150   149    1
    21   142   143   ar
    22   140   139    2
    23   113   114    1
    24   120   121    1
    25   130   129    1
    26   130   137   am
    27   134   135    2
    28   134   136   am
    29   122   128   am
    30   122   121    1
    31   114   115    1
    32   139   138    1
    33   139   145   am
    34   129   128    1
    35   138   137    1
    36   146   149    1
    37   146   145    1
    38   146   147    1
    39   102   103    1
    40   121   124    1
    41   115   116    1
    42   147   148    2
    43    93    94    2
    44    93    92    1
    45   116   117    2
    46   124   125    1
    47   108   106    1
    48   103   106    1
    49   103   104    1
    50   117   119    1
    51   117   118    1
    52    92    91    1
    53    92    95    1
    54   126   125    2
    55   125   127   am
    56    96    95    1
    57    96    97    1
    58   106   107    1
    59   104   105    2
    60   188   186    1
    61    89    90   ar
    62    89    87   ar
    63    83    84    2
    64    83    82    1
    65    90    88   ar
    66    97    98    1
    67   157   158    1
    68    98    99    2
    69   160   159    2
    70   173   172   ar
    71   173   171   ar
    72   172   170   ar
    73    87    86   ar
    74   187   186    1
    75   186   185    2
    76    99   101    1
    77    99   100    1
    78    88    86   ar
    79   162   161    1
    80    82    81    1
    81    82    85    1
    82    86    85    1
    83   171   169   ar
    84   159   158    1
    85   159   163   am
    86   170   168   ar
    87   158   161    1
    88   185   184    1
    89   169   168   ar
    90   168   167    1
    91   163   164    1
    92   164   167    1
    93   164   165    1
    94   184   183    1
    95    80    78   ar
    96    80    79   ar
    97    78    76   ar
    98   174   165   am
    99   174   175    1
   100     5     2    1
   101   194   195    1
   102   194   193    1
   103    66    64   am
   104    79    77   ar
   105   165   166    2
   106   195   189    1
   107    12    11    1
   108    12     6    1
   109   183   182    1
   110    11    10    1
   111    76    75   ar
   112    76    74   ar
   113   182   179    1
   114   175   176    1
   115     2     1    1
   116     2     3    1
   117   178   176   am
   118   178   179    1
   119    77    74   ar
   120   193   190    1
   121    64    65    2
   122    64    63    1
   123    75    73   ar
   124    74    72   ar
   125   176   177    2
   126   217   216   ar
   127   217   215   ar
   128   189   190    1
   129   189   180   am
   130   179   180    1
   131     6     3   am
   132     6     7    1
   133    63    62    1
   134     3     4    2
   135     9     8    2
   136    10     7    1
   137   216   214   ar
   138   190   191    1
   139   180   181    2
   140    73    72   ar
   141    72    71    1
   142   215   213   ar
   143     7     8    1
   144    68    69    1
   145    68    71    1
   146    68    67    1
   147    20    18    1
   148    69    70    2
   149     8    13   am
   150    55    57   ar
   151    55    53   ar
   152    62    59    1
   153    57    56   ar
   154   229   228    1
   155   214   211   ar
   156   191   192    1
   157    59    60    1
   158    59    58    1
   159   213   211   ar
   160   213   212   ar
   161    18    19    1
   162    18    17    1
   163    60    61    2
   164    53    52   ar
   165    53    51   ar
   166    43    40    1
   167    13    14    1
   168    52    50   ar
   169   211   209   ar
   170    56    54   ar
   171    14    17    1
   172    14    15    1
   173   228   227   ar
   174   228   226   ar
   175   212   210   ar
   176   227   225   ar
   177   203   201    1
   178    40    39    1
   179    40    41    1
   180    26    25    1
   181    21    15   am
   182    21    22    1
   183    51    54   ar
   184    51    49   ar
   185    50    49   ar
   186    25    22    1
   187    25    27    1
   188   209   210   ar
   189   209   208    1
   190   226   224   ar
   191   201   200    1
   192    15    16    2
   193   196   197    1
   194   225   223   ar
   195    41    42    2
   196   200   197    1
   197   200   202    1
   198    22    23    1
   199    49    48    1
   200    24    23    2
   201   208   205    1
   202   197   198    1
   203   224   223   ar
   204    23    28   am
   205   223   222    1
   206   198   199    2
   207    48    45    1
   208    34    35    1
   209    34    33    1
   210   205   204    1
   211   205   206    1
   212    44    45    1
   213    28    29    1
   214   222   219    1
   215    45    46    1
   216    35    36    2
   217   206   207    2
   218   206   218   am
   219   218   219    1
   220    33    32    1
   221    37    36    1
   222    36    38    1
   223    29    32    1
   224    29    30    1
   225   219   220    1
   226    46    47    2
   227    30    31    2
   228   220   221    2
