@<TRIPOS>MOLECULE
tmp/4oteB00.pdb
 107 104 0 0 0
SMALL
GASTEIGER

@<TRIPOS>ATOM
      1  N         23.8490   17.4710   50.4340 N.3    41  TYR41      -0.1241
      2  CA        22.6490   18.1190   50.9650 C.3    41  TYR41       0.1605
      3  C         22.6380   18.2640   52.4870 C.2    41  TYR41       0.2264
      4  O         21.6350   18.7050   53.0520 O.2    41  TYR41      -0.2867
      5  CB        21.3990   17.3320   50.5480 C.3    41  TYR41       0.0534
      6  CG        21.0300   17.3600   49.0780 C.ar   41  TYR41      -0.0201
      7  CD1       21.5090   18.3420   48.2150 C.ar   41  TYR41      -0.0009
      8  CD2       20.1370   16.4220   48.5660 C.ar   41  TYR41      -0.0009
      9  CE1       21.1360   18.3650   46.8830 C.ar   41  TYR41       0.0417
     10  CE2       19.7560   16.4400   47.2350 C.ar   41  TYR41       0.0417
     11  CZ        20.2570   17.4140   46.4000 C.ar   41  TYR41       0.1957
     12  OH        19.8770   17.4310   45.0820 O.3    41  TYR41      -0.2866
     13  N         20.1990   25.6700   48.0570 N.3    58  PHE58      -0.1227
     14  CA        20.2520   24.2930   47.5610 C.3    58  PHE58       0.1736
     15  C         18.9850   23.4590   47.7800 C.2    58  PHE58       0.2595
     16  O         18.8370   22.4150   47.1460 O.2    58  PHE58      -0.2718
     17  CB        21.4430   23.5550   48.1870 C.3    58  PHE58       0.0547
     18  CG        21.1800   23.0330   49.5780 C.ar   58  PHE58      -0.0202
     19  CD1       21.2220   23.8790   50.6730 C.ar   58  PHE58      -0.0042
     20  CD2       20.9080   21.6870   49.7890 C.ar   58  PHE58      -0.0042
     21  CE1       20.9930   23.3950   51.9530 C.ar   58  PHE58      -0.0003
     22  CE2       20.6760   21.1980   51.0630 C.ar   58  PHE58      -0.0003
     23  CZ        20.7200   22.0550   52.1480 C.ar   58  PHE58      -0.0000
     24  N         18.0820   23.9000   48.6560 N.am   59  GLN59      -0.1965
     25  CA        16.9980   23.0460   49.1380 C.3    59  GLN59       0.1733
     26  C         15.6160   23.6690   48.9720 C.2    59  GLN59       0.2616
     27  O         15.4870   24.8670   48.7140 O.2    59  GLN59      -0.2715
     28  CB        17.2270   22.7260   50.6200 C.3    59  GLN59       0.0408
     29  CG        16.8990   23.8790   51.5630 C.3    59  GLN59       0.0908
     30  CD        17.5510   23.7300   52.9280 C.2    59  GLN59       0.2608
     31  OE1       17.3070   22.7580   53.6370 O.2    59  GLN59      -0.2717
     32  NE2       18.3740   24.7020   53.3060 N.am   59  GLN59      -0.0878
     33  N         14.5900   22.8370   49.1400 N.am   60  HIS60      -0.1973
     34  CA        13.2100   23.3090   49.2510 C.3    60  HIS60       0.1656
     35  C         12.7820   23.2850   50.7190 C.2    60  HIS60       0.2291
     36  O         13.4990   22.7490   51.5710 O.2    60  HIS60      -0.2864
     37  CB        12.2470   22.5060   48.3560 C.3    60  HIS60       0.0771
     38  CG        12.4450   21.0200   48.4040 C.ar   60  HIS60       0.0820
     39  ND1       12.1590   20.2640   49.5180 N.ar   60  HIS60      -0.2267
     40  CD2       12.8720   20.1470   47.4600 C.ar   60  HIS60       0.1154
     41  CE1       12.4180   18.9930   49.2680 C.ar   60  HIS60       0.1986
     42  NE2       12.8500   18.8940   48.0240 N.ar   60  HIS60      -0.2212
     43  N         12.4100   19.8770   52.7840 N.3    63  TYR63      -0.1241
     44  CA        13.6990   19.3250   53.1960 C.3    63  TYR63       0.1605
     45  C         14.2080   20.0790   54.4220 C.2    63  TYR63       0.2264
     46  O         14.6830   19.4650   55.3790 O.2    63  TYR63      -0.2867
     47  CB        14.7280   19.3970   52.0540 C.3    63  TYR63       0.0534
     48  CG        16.0290   18.6910   52.3730 C.ar   63  TYR63      -0.0201
     49  CD1       16.1660   17.3210   52.1830 C.ar   63  TYR63      -0.0009
     50  CD2       17.1180   19.3930   52.8840 C.ar   63  TYR63      -0.0009
     51  CE1       17.3520   16.6700   52.4850 C.ar   63  TYR63       0.0417
     52  CE2       18.3040   18.7520   53.1880 C.ar   63  TYR63       0.0417
     53  CZ        18.4160   17.3920   52.9880 C.ar   63  TYR63       0.1957
     54  OH        19.5950   16.7520   53.2950 O.3    63  TYR63      -0.2866
     55  N         12.6550   22.3280   40.5770 N.3    83  CYS83      -0.1235
     56  CA        13.5570   21.4140   39.8720 C.3    83  CYS83       0.1677
     57  C         12.9320   20.0290   39.8450 C.2    83  CYS83       0.2270
     58  O         13.2620   19.1850   40.6830 O.2    83  CYS83      -0.2867
     59  CB        14.9190   21.3560   40.5700 C.3    83  CYS83       0.0956
     60  SG        15.8400   22.9100   40.5470 S.3    83  CYS83      -0.0801
     61  N         12.1730   16.2720   39.3480 N.3    85  ALA85      -0.1245
     62  CA        13.0200   15.0990   39.1890 C.3    85  ALA85       0.1562
     63  C         12.8260   14.5500   37.7870 C.2    85  ALA85       0.2260
     64  O         11.7160   14.5790   37.2500 O.2    85  ALA85      -0.2867
     65  CB        12.6700   14.0400   40.2230 C.3    85  ALA85       0.0290
     66  N         18.3090   14.1260   40.5970 N.3   170  ASP170     -0.1225
     67  CA        18.1080   15.5570   40.8060 C.3   170  ASP170      0.1805
     68  C         18.9530   16.3560   39.8140 C.2   170  ASP170      0.2598
     69  O         20.0880   15.9770   39.5130 O.2   170  ASP170     -0.2718
     70  CB        18.5000   15.9590   42.2380 C.3   170  ASP170      0.1424
     71  CG        17.5140   15.4640   43.2870 C.2   170  ASP170      0.3668
     72  OD1       16.7980   14.4750   43.0270 O.co2 170  ASP170     -0.2456
     73  OD2       17.4640   16.0610   44.3840 O.co2 170  ASP170     -0.2456
     74  N         18.3960   17.4630   39.3250 N.am  171  THR171     -0.1939
     75  CA        19.0820   18.3400   38.3720 C.3   171  THR171      0.2028
     76  C         20.4220   18.8310   38.9280 C.2   171  THR171      0.2642
     77  O         21.4030   18.9430   38.1890 O.2   171  THR171     -0.2714
     78  CB        18.1710   19.5250   37.9630 C.3   171  THR171      0.1808
     79  OG1       17.1840   19.0500   37.0460 O.3   171  THR171     -0.2208
     80  CG2       18.9530   20.6530   37.2850 C.3   171  THR171      0.0379
     81  N         20.4570   19.0980   40.2320 N.am  172  THR172     -0.1950
     82  CA        21.6920   19.4500   40.9320 C.3   172  THR172      0.1897
     83  C         22.8430   18.4820   40.6280 C.2   172  THR172      0.2313
     84  O         23.9790   18.9150   40.4930 O.2   172  THR172     -0.2863
     85  CB        21.4530   19.5470   42.4560 C.3   172  THR172      0.1794
     86  OG1       20.6780   20.7240   42.7420 O.3   172  THR172     -0.2208
     87  CG2       22.7670   19.6280   43.2290 C.3   172  THR172      0.0378
     88  N          7.8300   22.1370   46.3320 N.3   195  TYR195     -0.1241
     89  CA         9.2440   21.7670   46.3500 C.3   195  TYR195      0.1605
     90  C         10.1400   22.7720   45.6280 C.2   195  TYR195      0.2264
     91  O         11.2180   22.4220   45.1510 O.2   195  TYR195     -0.2867
     92  CB         9.4060   20.3670   45.7650 C.3   195  TYR195      0.0534
     93  CG         8.6150   19.3490   46.5450 C.ar  195  TYR195     -0.0201
     94  CD1        9.0310   18.9500   47.8070 C.ar  195  TYR195     -0.0009
     95  CD2        7.4370   18.8120   46.0430 C.ar  195  TYR195     -0.0009
     96  CE1        8.3070   18.0330   48.5460 C.ar  195  TYR195      0.0417
     97  CE2        6.7030   17.8890   46.7740 C.ar  195  TYR195      0.0417
     98  CZ         7.1460   17.5050   48.0260 C.ar  195  TYR195      0.1957
     99  OH         6.4370   16.5930   48.7670 O.3   195  TYR195     -0.2866
    100  N         12.9350   25.3140   45.1970 N.3   197  ASN197     -0.1240
    101  CA        14.1780   25.6150   45.8900 C.3   197  ASN197      0.1653
    102  C         14.1880   27.0780   46.3000 C.2   197  ASN197      0.2266
    103  O         13.4830   27.9050   45.7110 O.2   197  ASN197     -0.2867
    104  CB        15.3910   25.3000   45.0160 C.3   197  ASN197      0.1155
    105  CG        15.5970   23.8090   44.8200 C.2   197  ASN197      0.2627
    106  OD1       14.6430   23.0250   44.8260 O.2   197  ASN197     -0.2716
    107  ND2       16.8470   23.4090   44.6410 N.am  197  ASN197     -0.0877
@<TRIPOS>BOND
     1    79    78    1
     2    64    63    2
     3    80    78    1
     4    63    62    1
     5    78    75    1
     6    77    76    2
     7    75    76    1
     8    75    74    1
     9    76    81   am
    10    62    61    1
    11    62    65    1
    12    74    68   am
    13    69    68    2
    14    68    67    1
    15    57    56    1
    16    57    58    2
    17    56    59    1
    18    56    55    1
    19    81    82    1
    20    84    83    2
    21    60    59    1
    22    66    67    1
    23    83    82    1
    24    67    70    1
    25    82    85    1
    26    70    71    1
    27    85    86    1
    28    85    87    1
    29    72    71   ar
    30    71    73   ar
    31   107   105   am
    32   105   106    2
    33   105   104    1
    34   104   101    1
    35    12    11    1
    36    91    90    2
    37   100   101    1
    38    90    89    1
    39   103   102    2
    40    92    89    1
    41    92    93    1
    42   101   102    1
    43    95    93   ar
    44    95    97   ar
    45    88    89    1
    46    11     9   ar
    47    11    10   ar
    48    93    94   ar
    49    97    98   ar
    50     9     7   ar
    51    16    15    2
    52    10     8   ar
    53    40    42   ar
    54    40    38   ar
    55    14    15    1
    56    14    13    1
    57    14    17    1
    58    15    24   am
    59    94    96   ar
    60    42    41   ar
    61    98    96   ar
    62    98    99    1
    63    17    18    1
    64     7     6   ar
    65    37    38    1
    66    37    34    1
    67    38    39   ar
    68     8     6   ar
    69    24    25    1
    70    27    26    2
    71    26    25    1
    72    26    33   am
    73     6     5    1
    74    25    28    1
    75    33    34    1
    76    34    35    1
    77    41    39   ar
    78    18    20   ar
    79    18    19   ar
    80    20    22   ar
    81     1     2    1
    82     5     2    1
    83    28    29    1
    84    19    21   ar
    85    35    36    2
    86     2     3    1
    87    22    23   ar
    88    29    30    1
    89    21    23   ar
    90    47    48    1
    91    47    44    1
    92    49    48   ar
    93    49    51   ar
    94    48    50   ar
    95    51    53   ar
    96     3     4    2
    97    43    44    1
    98    50    52   ar
    99    30    32   am
   100    30    31    2
   101    53    52   ar
   102    53    54    1
   103    44    45    1
   104    45    46    2
