@<TRIPOS>MOLECULE
tmp/4otkA01.pdb
 116 112 0 0 0
SMALL
GASTEIGER

@<TRIPOS>ATOM
      1  N         40.3530   -7.5620    2.3500 N.3    23  ALA23      -0.1231
      2  CA        39.6260   -7.2670    3.5880 C.3    23  ALA23       0.1694
      3  C         38.9980   -8.5230    4.2060 C.2    23  ALA23       0.2591
      4  O         38.4010   -9.3590    3.5120 O.2    23  ALA23      -0.2718
      5  CB        38.5400   -6.2110    3.3430 C.3    23  ALA23       0.0304
      6  N         39.1290   -8.6260    5.5260 N.am   24  GLU24      -0.1979
      7  CA        38.4750   -9.6540    6.3410 C.3    24  GLU24       0.1602
      8  C         38.8480  -11.0960    5.9990 C.2    24  GLU24       0.2287
      9  O         38.1430  -12.0220    6.3920 O.2    24  GLU24      -0.2864
     10  CB        36.9520   -9.4860    6.2760 C.3    24  GLU24       0.0415
     11  CG        36.4850   -8.2150    6.9880 C.3    24  GLU24       0.1163
     12  CD        34.9780   -8.0590    7.0350 C.2    24  GLU24       0.3649
     13  OE1       34.3070   -8.3930    6.0440 O.co2  24  GLU24      -0.2457
     14  OE2       34.4630   -7.6000    8.0760 O.co2  24  GLU24      -0.2457
     15  N         43.4730   -4.7570    8.2550 N.3    51  TYR51      -0.1241
     16  CA        43.0350   -6.1080    7.8920 C.3    51  TYR51       0.1605
     17  C         43.8610   -7.1580    8.6240 C.2    51  TYR51       0.2264
     18  O         43.4810   -8.3350    8.6600 O.2    51  TYR51      -0.2867
     19  CB        43.1350   -6.3590    6.3760 C.3    51  TYR51       0.0534
     20  CG        42.4100   -5.3690    5.4790 C.ar   51  TYR51      -0.0201
     21  CD1       41.3820   -4.5500    5.9660 C.ar   51  TYR51      -0.0009
     22  CD2       42.7660   -5.2560    4.1420 C.ar   51  TYR51      -0.0009
     23  CE1       40.7270   -3.6250    5.1120 C.ar   51  TYR51       0.0417
     24  CE2       42.1270   -4.3500    3.2950 C.ar   51  TYR51       0.0417
     25  CZ        41.1200   -3.5390    3.7890 C.ar   51  TYR51       0.1957
     26  OH        40.4930   -2.6430    2.9390 O.3    51  TYR51      -0.2866
     27  N         47.1300    0.7930    3.5040 N.3    76  LYS76      -0.1245
     28  CA        46.3570    1.9010    4.0650 C.3    76  LYS76       0.1561
     29  C         46.7350    2.2200    5.5000 C.2    76  LYS76       0.2260
     30  O         47.0420    1.3320    6.2990 O.2    76  LYS76      -0.2867
     31  CB        44.8540    1.5990    4.0040 C.3    76  LYS76       0.0271
     32  CG        44.3750    1.1120    2.6430 C.3    76  LYS76       0.0035
     33  CD        42.8490    0.9720    2.6110 C.3    76  LYS76       0.0206
     34  CE        42.4020    0.2580    1.3430 C.3    76  LYS76       0.1093
     35  NZ        42.6150   -1.2150    1.4990 N.3    76  LYS76      -0.1314
     36  N         42.9780    5.6760    5.2900 N.3   109  HIS109     -0.1226
     37  CA        41.8720    4.7120    5.2020 C.3   109  HIS109      0.1752
     38  C         40.4930    5.3670    5.3690 C.2   109  HIS109      0.2596
     39  O         39.5490    5.0330    4.6450 O.2   109  HIS109     -0.2718
     40  CB        42.0860    3.6170    6.2490 C.3   109  HIS109      0.0759
     41  CG        41.4240    2.3150    5.9180 C.ar  109  HIS109      0.0818
     42  ND1       41.9090    1.1130    6.3870 N.ar  109  HIS109     -0.2268
     43  CD2       40.3240    2.0220    5.1860 C.ar  109  HIS109      0.1154
     44  CE1       41.1360    0.1310    5.9550 C.ar  109  HIS109      0.1986
     45  NE2       40.1680    0.6520    5.2220 N.ar  109  HIS109     -0.2212
     46  N         40.3930    6.3010    6.3130 N.am  110  TRP110     -0.1976
     47  CA        39.1610    7.0670    6.5640 C.3   110  TRP110      0.1640
     48  C         39.5250    8.4970    6.9270 C.2   110  TRP110      0.2290
     49  O         40.5150    8.7210    7.6170 O.2   110  TRP110     -0.2864
     50  CB        38.3300    6.4480    7.7130 C.3   110  TRP110      0.0576
     51  CG        37.7210    5.1380    7.3490 C.ar  110  TRP110      0.0006
     52  CD1       38.2930    3.8950    7.4910 C.ar  110  TRP110      0.0946
     53  CD2       36.4330    4.9210    6.7660 C.ar  110  TRP110      0.0152
     54  NE1       37.4380    2.9300    7.0150 N.ar  110  TRP110     -0.2442
     55  CE2       36.2930    3.5330    6.5600 C.ar  110  TRP110      0.0810
     56  CE3       35.3850    5.7680    6.3830 C.ar  110  TRP110      0.0012
     57  CZ2       35.1460    2.9720    6.0010 C.ar  110  TRP110      0.0191
     58  CZ3       34.2460    5.2050    5.8260 C.ar  110  TRP110      0.0001
     59  CH2       34.1390    3.8240    5.6360 C.ar  110  TRP110      0.0015
     60  N         37.4490    6.8800    1.0920 N.3   141  ASN141     -0.1240
     61  CA        36.2180    7.3620    1.7100 C.3   141  ASN141      0.1653
     62  C         36.1940    8.8750    1.9340 C.2   141  ASN141      0.2266
     63  O         35.4980    9.3550    2.8200 O.2   141  ASN141     -0.2867
     64  CB        35.9890    6.6390    3.0410 C.3   141  ASN141      0.1155
     65  CG        36.0030    5.1330    2.8820 C.2   141  ASN141      0.2627
     66  OD1       35.1350    4.5700    2.2120 O.2   141  ASN141     -0.2716
     67  ND2       36.9840    4.4730    3.4930 N.am  141  ASN141     -0.0877
     68  N         39.5650    6.0310   -2.9860 N.3   162  GLN162     -0.1245
     69  CA        38.9490    4.7030   -3.0060 C.3   162  GLN162      0.1566
     70  C         37.6550    4.7520   -2.1990 C.2   162  GLN162      0.2260
     71  O         37.6820    5.0010   -0.9980 O.2   162  GLN162     -0.2867
     72  CB        39.9020    3.6350   -2.4360 C.3   162  GLN162      0.0367
     73  CG        39.2960    2.2220   -2.5670 C.3   162  GLN162      0.0905
     74  CD        40.1390    1.1120   -1.9540 C.2   162  GLN162      0.2608
     75  OE1       39.6770    0.4140   -1.0530 O.2   162  GLN162     -0.2717
     76  NE2       41.3450    0.8990   -2.4820 N.am  162  GLN162     -0.0878
     77  N         35.3900    0.3080   -4.2670 N.3   188  TYR188     -0.1227
     78  CA        35.3950   -0.9460   -3.5250 C.3   188  TYR188      0.1736
     79  C         33.9630   -1.3430   -3.1790 C.2   188  TYR188      0.2595
     80  O         33.0240   -0.5500   -3.3440 O.2   188  TYR188     -0.2718
     81  CB        36.3010   -0.8620   -2.2770 C.3   188  TYR188      0.0548
     82  CG        35.7850   -0.0980   -1.0850 C.ar  188  TYR188     -0.0200
     83  CD1       35.0620   -0.7370   -0.0890 C.ar  188  TYR188     -0.0009
     84  CD2       36.0670    1.2570   -0.9210 C.ar  188  TYR188     -0.0009
     85  CE1       34.6040   -0.0440    1.0260 C.ar  188  TYR188      0.0417
     86  CE2       35.6260    1.9500    0.1960 C.ar  188  TYR188      0.0417
     87  CZ        34.8900    1.2960    1.1610 C.ar  188  TYR188      0.1957
     88  OH        34.4400    1.9730    2.2660 O.3   188  TYR188     -0.2866
     89  N         33.8040   -2.5910   -2.7390 N.am  189  CYS189     -0.1970
     90  CA        32.4860   -3.2140   -2.5640 C.3   189  CYS189      0.1712
     91  C         31.6080   -3.0740   -3.8140 C.2   189  CYS189      0.2296
     92  O         30.4280   -2.6780   -3.7250 O.2   189  CYS189     -0.2864
     93  CB        31.7610   -2.6390   -1.3430 C.3   189  CYS189      0.0983
     94  SG        32.4000   -3.2580    0.2410 S.3   189  CYS189     -0.0798
     95  N         36.3260   -7.5890   -4.1470 N.3   231  ARG231     -0.1245
     96  CA        36.3830   -7.7480   -2.6950 C.3   231  ARG231      0.1563
     97  C         36.6820   -9.1720   -2.2530 C.2   231  ARG231      0.2260
     98  O         35.8140  -10.0540   -2.3290 O.2   231  ARG231     -0.2867
     99  CB        35.0640   -7.2940   -2.0420 C.3   231  ARG231      0.0307
    100  CG        35.1850   -7.1310   -0.5450 C.3   231  ARG231      0.0489
    101  CD        33.9430   -6.5700    0.1170 C.3   231  ARG231      0.2205
    102  NE        34.2730   -6.1710    1.4800 N.pl3 231  ARG231     -0.0865
    103  CZ        34.2300   -6.9820    2.5330 C.cat 231  ARG231      0.5346
    104  NH1       33.8150   -8.2400    2.3970 N.pl3 231  ARG231      0.1354
    105  NH2       34.5840   -6.5280    3.7340 N.pl3 231  ARG231      0.1354
    106  N         28.7120    0.1600    3.6750 N.3   267  ARG267     -0.1245
    107  CA        29.8560    0.3410    4.5590 C.3   267  ARG267      0.1563
    108  C         29.6400    1.5820    5.4170 C.2   267  ARG267      0.2260
    109  O         28.5620    2.1860    5.3800 O.2   267  ARG267     -0.2867
    110  CB        31.1520    0.4500    3.7560 C.3   267  ARG267      0.0307
    111  CG        31.2900   -0.6600    2.7250 C.3   267  ARG267      0.0489
    112  CD        31.2810   -2.0200    3.3950 C.3   267  ARG267      0.2205
    113  NE        32.4790   -2.2040    4.2040 N.pl3 267  ARG267     -0.0865
    114  CZ        32.6370   -3.1620    5.1050 C.cat 267  ARG267      0.5346
    115  NH1       31.6640   -4.0330    5.3270 N.pl3 267  ARG267      0.1354
    116  NH2       33.7680   -3.2400    5.7880 N.pl3 267  ARG267      0.1354
@<TRIPOS>BOND
     1    77    78    1
     2    95    96    1
     3    91    92    2
     4    91    90    1
     5    78    79    1
     6    78    81    1
     7    80    79    2
     8    79    89   am
     9    69    68    1
    10    69    72    1
    11    69    70    1
    12    89    90    1
    13    96    97    1
    14    96    99    1
    15    73    72    1
    16    73    74    1
    17    90    93    1
    18    76    74   am
    19    98    97    2
    20    81    82    1
    21    70    71    2
    22    99   100    1
    23    74    75    2
    24    93    94    1
    25    82    84   ar
    26    82    83   ar
    27    84    86   ar
    28   100   101    1
    29    83    85   ar
    30   101   102    1
    31    86    87   ar
    32    85    87   ar
    33    60    61    1
    34    87    88    1
    35    34    35    1
    36    34    33    1
    37   102   103    2
    38    61    62    1
    39    61    64    1
    40    62    63    2
    41    66    65    2
    42     1     2    1
    43   104   103    1
    44   103   105    1
    45    33    32    1
    46    32    31    1
    47   111   112    1
    48   111   110    1
    49    65    64    1
    50    65    67   am
    51    26    25    1
    52    24    25   ar
    53    24    22   ar
    54     5     2    1
    55   112   113    1
    56    27    28    1
    57     4     3    2
    58     2     3    1
    59   106   107    1
    60   110   107    1
    61    25    23   ar
    62    31    28    1
    63    28    29    1
    64    22    20   ar
    65   113   114    2
    66     3     6   am
    67   107   108    1
    68    39    38    2
    69   114   115    1
    70   114   116    1
    71    23    21   ar
    72    43    45   ar
    73    43    41   ar
    74    37    36    1
    75    37    38    1
    76    37    40    1
    77    45    44   ar
    78    38    46   am
    79   109   108    2
    80    20    21   ar
    81    20    19    1
    82    29    30    2
    83     6     7    1
    84    59    58   ar
    85    59    57   ar
    86    58    56   ar
    87    41    40    1
    88    41    42   ar
    89    44    42   ar
    90     8     7    1
    91     8     9    2
    92    57    55   ar
    93    13    12   ar
    94    10     7    1
    95    10    11    1
    96    46    47    1
    97    19    16    1
    98    56    53   ar
    99    55    53   ar
   100    55    54   ar
   101    47    48    1
   102    47    50    1
   103    53    51   ar
   104    48    49    2
   105    11    12    1
   106    54    52   ar
   107    12    14   ar
   108    51    52   ar
   109    51    50    1
   110    16    15    1
   111    16    17    1
   112    17    18    2
