@<TRIPOS>MOLECULE
tmp/4otlD01.pdb
 128 121 0 0 0
SMALL
GASTEIGER

@<TRIPOS>ATOM
      1  N         29.3060   17.3760  -55.1910 N.3    37  SER37      -0.1217
      2  CA        28.0870   16.9690  -54.5070 C.3    37  SER37       0.1889
      3  C         27.2760   18.1590  -54.0040 C.2    37  SER37       0.2288
      4  O         26.1810   17.9880  -53.4780 O.2    37  SER37      -0.2866
      5  CB        28.4220   16.0520  -53.3300 C.3    37  SER37       0.2089
      6  OG        29.3400   16.6770  -52.4480 O.3    37  SER37      -0.2183
      7  N         18.0830   10.9540  -45.4230 N.3    99  SER99      -0.1202
      8  CA        19.3180   11.2180  -46.1470 C.3    99  SER99       0.2020
      9  C         19.4950   10.1630  -47.2290 C.2    99  SER99       0.2619
     10  O         18.6860    9.2390  -47.3390 O.2    99  SER99      -0.2717
     11  CB        20.5210   11.2030  -45.2070 C.3    99  SER99       0.2103
     12  OG        20.7140    9.8990  -44.6820 O.3    99  SER99      -0.2182
     13  N         20.5460   10.3030  -48.0270 N.am  100  GLY100     -0.1942
     14  CA        20.9000    9.2670  -48.9810 C.3   100  GLY100      0.2014
     15  C         21.3150    8.0080  -48.2430 C.2   100  GLY100      0.2639
     16  O         20.9970    6.8970  -48.6680 O.2   100  GLY100     -0.2714
     17  N         22.0070    8.1810  -47.1160 N.am  101  SER101     -0.1949
     18  CA        22.4460    7.0450  -46.3080 C.3   101  SER101      0.1924
     19  C         21.2750    6.2300  -45.7720 C.2   101  SER101      0.2314
     20  O         21.2970    5.0030  -45.8340 O.2   101  SER101     -0.2863
     21  CB        23.3260    7.5060  -45.1420 C.3   101  SER101      0.2116
     22  OG        24.5750    8.0000  -45.5990 O.3   101  SER101     -0.2180
     23  N         19.6900    4.2640  -48.5500 N.3   104  ASN104     -0.1240
     24  CA        20.4280    3.0280  -48.8190 C.3   104  ASN104      0.1653
     25  C         20.1920    1.9860  -47.7380 C.2   104  ASN104      0.2266
     26  O         20.0520    0.8020  -48.0320 O.2   104  ASN104     -0.2867
     27  CB        21.9230    3.3130  -48.9720 C.3   104  ASN104      0.1155
     28  CG        22.2370    4.0740  -50.2500 C.2   104  ASN104      0.2627
     29  OD1       21.3400    4.3790  -51.0280 O.2   104  ASN104     -0.2716
     30  ND2       23.5060    4.3940  -50.4620 N.am  104  ASN104     -0.0877
     31  N         30.7680    4.8240  -52.7400 N.3   128  HIS128     -0.1241
     32  CA        30.4250    5.5740  -51.5370 C.3   128  HIS128      0.1621
     33  C         30.5260    4.6850  -50.2980 C.2   128  HIS128      0.2264
     34  O         30.5120    3.4590  -50.4020 O.2   128  HIS128     -0.2867
     35  CB        29.0170    6.1730  -51.6510 C.3   128  HIS128      0.0745
     36  CG        28.6320    7.0380  -50.4890 C.ar  128  HIS128      0.0817
     37  ND1       27.7770    6.6130  -49.4940 N.ar  128  HIS128     -0.2268
     38  CD2       29.0060    8.2950  -50.1510 C.ar  128  HIS128      0.1154
     39  CE1       27.6340    7.5740  -48.5980 C.ar  128  HIS128      0.1986
     40  NE2       28.3680    8.6060  -48.9730 N.ar  128  HIS128     -0.2212
     41  N         28.3990    3.9200  -48.1060 N.3   130  THR130     -0.1203
     42  CA        27.2500    3.0410  -47.9220 C.3   130  THR130      0.1994
     43  C         27.2150    1.9180  -48.9590 C.2   130  THR130      0.2617
     44  O         26.2290    1.1860  -49.0550 O.2   130  THR130     -0.2717
     45  CB        25.9390    3.8340  -47.9970 C.3   130  THR130      0.1784
     46  OG1       25.8870    4.5330  -49.2440 O.3   130  THR130     -0.2211
     47  CG2       25.8740    4.8520  -46.8710 C.3   130  THR130      0.0376
     48  N         28.2850    1.7950  -49.7430 N.am  131  HIS131     -0.1975
     49  CA        28.3680    0.7450  -50.7600 C.3   131  HIS131      0.1656
     50  C         29.2930   -0.3910  -50.3290 C.2   131  HIS131      0.2291
     51  O         29.7130   -1.2030  -51.1570 O.2   131  HIS131     -0.2864
     52  CB        28.8410    1.3180  -52.0970 C.3   131  HIS131      0.0771
     53  CG        27.9610    2.4030  -52.6320 C.ar  131  HIS131      0.0820
     54  ND1       28.2630    3.1080  -53.7780 N.ar  131  HIS131     -0.2267
     55  CD2       26.7980    2.9220  -52.1660 C.ar  131  HIS131      0.1154
     56  CE1       27.3170    4.0030  -54.0030 C.ar  131  HIS131      0.1986
     57  NE2       26.4180    3.9130  -53.0380 N.ar  131  HIS131     -0.2212
     58  N         28.1560    5.6530  -57.9200 N.3   176  ALA176     -0.1231
     59  CA        29.4380    6.1110  -57.4100 C.3   176  ALA176      0.1694
     60  C         29.3620    7.5460  -56.9050 C.2   176  ALA176      0.2592
     61  O         28.4050    8.2650  -57.1860 O.2   176  ALA176     -0.2718
     62  CB        30.5100    5.9880  -58.4940 C.3   176  ALA176      0.0304
     63  N         30.3770    7.9440  -56.1430 N.am  177  SER177     -0.1952
     64  CA        30.5100    9.3170  -55.6700 C.3   177  SER177      0.1924
     65  C         31.5110   10.0930  -56.5230 C.2   177  SER177      0.2314
     66  O         31.5210   11.3260  -56.5260 O.2   177  SER177     -0.2863
     67  CB        30.9400    9.3410  -54.2030 C.3   177  SER177      0.2116
     68  OG        29.9510    8.7480  -53.3810 O.3   177  SER177     -0.2180
     69  N         22.5700    3.4650  -56.8580 N.3   202  ASP202     -0.1239
     70  CA        22.6230    4.7270  -56.1240 C.3   202  ASP202      0.1674
     71  C         22.9940    5.8740  -57.0660 C.2   202  ASP202      0.2266
     72  O         24.1720    6.1150  -57.3140 O.2   202  ASP202     -0.2867
     73  CB        23.6280    4.6140  -54.9770 C.3   202  ASP202      0.1410
     74  CG        23.6390    5.8300  -54.0680 C.2   202  ASP202      0.3668
     75  OD1       23.0920    6.8910  -54.4380 O.co2 202  ASP202     -0.2456
     76  OD2       24.2070    5.7110  -52.9640 O.co2 202  ASP202     -0.2456
     77  N         22.6340    9.1400  -56.6810 N.3   204  ALA204     -0.1231
     78  CA        22.6440   10.4290  -55.9780 C.3   204  ALA204      0.1694
     79  C         23.3400   11.5440  -56.7690 C.2   204  ALA204      0.2592
     80  O         22.7750   12.6170  -56.9690 O.2   204  ALA204     -0.2718
     81  CB        23.2990   10.2740  -54.6050 C.3   204  ALA204      0.0304
     82  N         24.5460   11.2750  -57.2550 N.am  205  HIS205     -0.1976
     83  CA        25.3050   12.2940  -57.9710 C.3   205  HIS205      0.1656
     84  C         24.7090   12.6590  -59.3290 C.2   205  HIS205      0.2291
     85  O         24.8020   13.8100  -59.7550 O.2   205  HIS205     -0.2864
     86  CB        26.7580   11.8470  -58.1620 C.3   205  HIS205      0.0771
     87  CG        27.6830   12.3380  -57.0940 C.ar  205  HIS205      0.0820
     88  ND1       28.5070   13.4310  -57.2670 N.ar  205  HIS205     -0.2267
     89  CD2       27.9070   11.8940  -55.8330 C.ar  205  HIS205      0.1154
     90  CE1       29.2010   13.6350  -56.1610 C.ar  205  HIS205      0.1986
     91  NE2       28.8570   12.7150  -55.2770 N.ar  205  HIS205     -0.2212
     92  N         19.9510   11.0790  -53.3080 N.3   228  THR228     -0.1218
     93  CA        19.7910   12.2690  -52.4830 C.3   228  THR228      0.1862
     94  C         18.8940   13.2420  -53.2320 C.2   228  THR228      0.2287
     95  O         18.7330   13.1350  -54.4460 O.2   228  THR228     -0.2866
     96  CB        21.1410   12.9340  -52.1810 C.3   228  THR228      0.1770
     97  OG1       21.8840   13.0370  -53.4060 O.3   228  THR228     -0.2211
     98  CG2       21.9430   12.0970  -51.2110 C.3   228  THR228      0.0375
     99  N         19.4370   16.5530  -52.6710 N.3   230  HIS230     -0.1226
    100  CA        20.3930   17.6160  -52.9330 C.3   230  HIS230      0.1752
    101  C         21.3220   17.1780  -54.0700 C.2   230  HIS230      0.2595
    102  O         20.9520   16.3110  -54.8650 O.2   230  HIS230     -0.2718
    103  CB        21.1720   18.0020  -51.6600 C.3   230  HIS230      0.0759
    104  CG        21.7260   16.8450  -50.8840 C.ar  230  HIS230      0.0818
    105  ND1       20.9280   15.9350  -50.2220 N.ar  230  HIS230     -0.2268
    106  CD2       23.0040   16.4880  -50.6140 C.ar  230  HIS230      0.1154
    107  CE1       21.6910   15.0530  -49.6020 C.ar  230  HIS230      0.1986
    108  NE2       22.9550   15.3640  -49.8270 N.ar  230  HIS230     -0.2212
    109  N         22.5010   17.7880  -54.1670 N.am  231  LYS231     -0.1980
    110  CA        23.4180   17.5550  -55.2960 C.3   231  LYS231      0.1596
    111  C         22.7910   18.0180  -56.6190 C.2   231  LYS231      0.2287
    112  O         22.1370   19.0580  -56.6650 O.2   231  LYS231     -0.2864
    113  CB        23.8290   16.0770  -55.3900 C.3   231  LYS231      0.0298
    114  CG        24.3710   15.4890  -54.0940 C.3   231  LYS231      0.0038
    115  CD        24.9050   14.0820  -54.3010 C.3   231  LYS231      0.0206
    116  CE        25.0980   13.3720  -52.9680 C.3   231  LYS231      0.1093
    117  NZ        26.4590   13.5960  -52.4240 N.3   231  LYS231     -0.1314
    118  N         18.2640   18.8100  -48.4770 N.3   237  ARG237     -0.1245
    119  CA        19.0790   17.6900  -48.0420 C.3   237  ARG237      0.1563
    120  C         18.1940   16.5560  -47.5230 C.2   237  ARG237      0.2260
    121  O         17.4610   16.7270  -46.5510 O.2   237  ARG237     -0.2867
    122  CB        20.0640   18.1550  -46.9680 C.3   237  ARG237      0.0307
    123  CG        21.3370   17.3400  -46.8880 C.3   237  ARG237      0.0489
    124  CD        22.4440   18.1390  -46.2250 C.3   237  ARG237      0.2205
    125  NE        22.9850   19.1500  -47.1290 N.pl3 237  ARG237     -0.0865
    126  CZ        24.0280   18.9500  -47.9290 C.cat 237  ARG237      0.5346
    127  NH1       24.6460   17.7740  -47.9330 N.pl3 237  ARG237      0.1354
    128  NH2       24.4540   19.9230  -48.7250 N.pl3 237  ARG237      0.1354
@<TRIPOS>BOND
     1    85    84    2
     2    84    83    1
     3    62    59    1
     4    86    83    1
     5    86    87    1
     6    83    82    1
     7    58    59    1
     8    59    60    1
     9    72    71    2
    10    88    87   ar
    11    88    90   ar
    12    82    79   am
    13    61    60    2
    14    87    89   ar
    15    71    70    1
    16    80    79    2
    17    60    63   am
    18    69    70    1
    19    79    78    1
    20    77    78    1
    21   112   111    2
    22   111   110    1
    23    66    65    2
    24    65    64    1
    25    90    91   ar
    26    63    64    1
    27    70    73    1
    28    78    81    1
    29    89    91   ar
    30    64    67    1
    31   113   110    1
    32   113   114    1
    33   110   109    1
    34     1     2    1
    35    73    74    1
    36   102   101    2
    37     2     3    1
    38     2     5    1
    39    95    94    2
    40    75    74   ar
    41   115   114    1
    42   115   116    1
    43    67    68    1
    44   109   101   am
    45   101   100    1
    46    74    76   ar
    47     3     4    2
    48    56    54   ar
    49    56    57   ar
    50    54    53   ar
    51    97    96    1
    52     5     6    1
    53    92    93    1
    54    94    93    1
    55    57    55   ar
    56   116   117    1
    57   100    99    1
    58   100   103    1
    59    31    32    1
    60    53    55   ar
    61    53    52    1
    62    93    96    1
    63    96    98    1
    64    52    49    1
    65   103   104    1
    66    35    32    1
    67    35    36    1
    68    32    33    1
    69    51    50    2
    70    29    28    2
    71   104   106   ar
    72   104   105   ar
    73    49    50    1
    74    49    48    1
    75   106   108   ar
    76    36    38   ar
    77    36    37   ar
    78    30    28   am
    79    34    33    2
    80    28    27    1
    81   105   107   ar
    82    38    40   ar
    83   108   107   ar
    84    48    43   am
    85    37    39   ar
    86    46    45    1
    87    44    43    2
    88    14    15    1
    89    14    13    1
    90    40    39   ar
    91    27    24    1
    92    43    42    1
    93    24    23    1
    94    24    25    1
    95   128   126    1
    96    16    15    2
    97   118   119    1
    98    15    17   am
    99    41    42    1
   100   119   120    1
   101   119   122    1
   102    26    25    2
   103    13     9   am
   104    45    42    1
   105    45    47    1
   106   127   126    1
   107   126   125    2
   108   120   121    2
   109    10     9    2
   110     9     8    1
   111   125   124    1
   112    17    18    1
   113   122   123    1
   114   123   124    1
   115    18    19    1
   116    18    21    1
   117     8     7    1
   118     8    11    1
   119    20    19    2
   120    22    21    1
   121    11    12    1
