@<TRIPOS>MOLECULE
tmp/4otuB00.pdb
 93 85 0 0 0
SMALL
GASTEIGER

@<TRIPOS>ATOM
      1  N         75.7710   65.4830  163.4470 N.3     1  THR1       -0.1218
      2  CA        77.1870   65.0360  163.5320 C.3     1  THR1        0.1862
      3  C         78.0380   65.9980  162.7160 C.2     1  THR1        0.2287
      4  O         77.6570   66.4010  161.6270 O.2     1  THR1       -0.2866
      5  CB        77.3710   63.5800  163.0250 C.3     1  THR1        0.1770
      6  OG1       76.1950   62.8120  163.2870 O.3     1  THR1       -0.2211
      7  CG2       78.5910   62.9090  163.6740 C.3     1  THR1        0.0375
      8  N         78.3500   65.2860  167.9080 N.3    19  THR19      -0.1218
      9  CA        76.9800   65.2190  167.3360 C.3    19  THR19       0.1862
     10  C         75.7870   65.3330  168.2910 C.2    19  THR19       0.2287
     11  O         75.9640   65.2630  169.5050 O.2    19  THR19      -0.2866
     12  CB        76.8250   63.9050  166.5670 C.3    19  THR19       0.1770
     13  OG1       75.6930   63.9920  165.7000 O.3    19  THR19      -0.2211
     14  CG2       76.6620   62.7550  167.5320 C.3    19  THR19       0.0375
     15  N         73.0220   63.6410  167.0030 N.3    21  GLU21      -0.1231
     16  CA        72.3790   62.5070  166.2960 C.3    21  GLU21       0.1699
     17  C         71.7440   63.0120  164.9900 C.2    21  GLU21       0.2592
     18  O         72.4210   63.6360  164.1440 O.2    21  GLU21      -0.2718
     19  CB        71.3980   61.7560  167.2310 C.3    21  GLU21       0.0402
     20  CG        71.3550   60.2260  167.0860 C.3    21  GLU21       0.1161
     21  CD        70.8920   59.7000  165.7260 C.2    21  GLU21       0.3649
     22  OE1       70.0350   58.7930  165.7320 O.co2  21  GLU21      -0.2457
     23  OE2       71.3850   60.1550  164.6640 O.co2  21  GLU21      -0.2457
     24  N         70.4420   62.7820  164.8410 N.am   22  GLN22      -0.1966
     25  CA        69.6770   63.3170  163.6970 C.3    22  GLN22       0.1733
     26  C         69.9410   64.8130  163.5940 C.2    22  GLN22       0.2616
     27  O         70.2500   65.4610  164.5800 O.2    22  GLN22      -0.2715
     28  CB        68.1680   63.1640  163.8850 C.3    22  GLN22       0.0408
     29  CG        67.4570   62.6840  162.6540 C.3    22  GLN22       0.0908
     30  CD        67.6350   61.2010  162.5360 C.2    22  GLN22       0.2608
     31  OE1       68.0950   60.5520  163.4900 O.2    22  GLN22      -0.2717
     32  NE2       67.2860   60.6430  161.3760 N.am   22  GLN22      -0.0878
     33  N         69.7440   65.3900  162.4220 N.am   23  LEU23      -0.1977
     34  CA        69.8470   66.8310  162.2920 C.3    23  LEU23       0.1596
     35  C         68.8460   67.4590  163.2590 C.2    23  LEU23       0.2287
     36  O         67.6610   67.0590  163.2940 O.2    23  LEU23      -0.2864
     37  CB        69.5300   67.2820  160.8690 C.3    23  LEU23       0.0297
     38  CG        70.5830   67.0000  159.7980 C.3    23  LEU23       0.0022
     39  CD1       70.8350   65.5090  159.6170 C.3    23  LEU23       0.0001
     40  CD2       70.1400   67.6120  158.4840 C.3    23  LEU23       0.0001
     41  N         70.4080   61.0680  170.9010 N.3    40  GLU40      -0.1245
     42  CA        71.5430   60.1230  170.8020 C.3    40  GLU40       0.1567
     43  C         71.1740   58.7300  171.3100 C.2    40  GLU40       0.2260
     44  O         71.6480   57.7190  170.7980 O.2    40  GLU40      -0.2867
     45  CB        72.7810   60.6650  171.5410 C.3    40  GLU40       0.0388
     46  CG        74.0930   60.3710  170.8220 C.3    40  GLU40       0.1160
     47  CD        74.2790   61.2160  169.5700 C.2    40  GLU40       0.3649
     48  OE1       74.1960   62.4640  169.6720 O.co2  40  GLU40      -0.2457
     49  OE2       74.5040   60.6250  168.4840 O.co2  40  GLU40      -0.2457
     50  N         70.4790   55.6430  169.2320 N.3    43  ASP43      -0.1239
     51  CA        71.5550   54.8100  168.6950 C.3    43  ASP43       0.1674
     52  C         71.5150   53.4630  169.3590 C.2    43  ASP43       0.2266
     53  O         71.9790   52.4850  168.8010 O.2    43  ASP43      -0.2867
     54  CB        72.9190   55.4280  168.9090 C.3    43  ASP43       0.1410
     55  CG        73.1730   56.5650  167.9820 C.2    43  ASP43       0.3668
     56  OD1       72.2070   57.2650  167.6130 O.co2  43  ASP43      -0.2456
     57  OD2       74.3430   56.7640  167.6050 O.co2  43  ASP43      -0.2456
     58  N         78.1740   54.7010  169.4100 N.3    62  SER62      -0.1202
     59  CA        78.4480   55.6750  168.3480 C.3    62  SER62       0.2020
     60  C         79.1310   55.0420  167.1360 C.2    62  SER62       0.2619
     61  O         79.6090   53.9220  167.2060 O.2    62  SER62      -0.2717
     62  CB        79.3410   56.7910  168.8680 C.3    62  SER62       0.2103
     63  OG        79.4030   57.8480  167.9240 O.3    62  SER62      -0.2182
     64  N         79.1060   55.7610  166.0260 N.am   63  SER63      -0.1937
     65  CA        79.8300   55.3800  164.8300 C.3    63  SER63       0.2055
     66  C         80.9120   56.4000  164.5570 C.2    63  SER63       0.2642
     67  O         81.7160   56.2420  163.6530 O.2    63  SER63      -0.2714
     68  CB        78.8690   55.2460  163.6340 C.3    63  SER63       0.2130
     69  OG        77.8820   54.2440  163.8790 O.3    63  SER63      -0.2179
     70  N         81.0030   57.4110  165.4120 N.am   64  MET64      -0.1976
     71  CA        82.0160   58.4500  165.2370 C.3    64  MET64       0.1605
     72  C         83.4210   57.8370  165.2960 C.2    64  MET64       0.2287
     73  O         83.7050   56.9860  166.1240 O.2    64  MET64      -0.2864
     74  CB        81.8720   59.5730  166.2720 C.3    64  MET64       0.0413
     75  CG        80.5800   60.3440  166.0970 C.3    64  MET64       0.0598
     76  SD        80.2290   61.6220  167.3290 S.3    64  MET64      -0.1393
     77  CE        79.1350   60.7300  168.4020 C.3    64  MET64       0.0692
     78  N         77.9560   61.3300  159.1730 N.3    83  GLY83      -0.1210
     79  CA        77.1940   60.4630  158.2840 C.3    83  GLY83       0.1956
     80  C         76.6300   59.2080  158.9290 C.2    83  GLY83       0.2612
     81  O         76.4270   58.1930  158.2500 O.2    83  GLY83      -0.2717
     82  N         76.3430   59.2990  160.2240 N.am   84  GLY84      -0.1956
     83  CA        75.7200   58.2160  160.9400 C.3    84  GLY84       0.1869
     84  C         76.6150   57.0080  160.9040 C.2    84  GLY84       0.2309
     85  O         77.8390   57.1070  161.0980 O.2    84  GLY84      -0.2863
     86  N         79.9270   56.5690  158.8050 N.3    87  ILE87      -0.1245
     87  CA        81.2270   57.1760  159.1420 C.3    87  ILE87       0.1561
     88  C         82.3800   56.1600  159.0110 C.2    87  ILE87       0.2260
     89  O         83.3800   56.4060  158.3530 O.2    87  ILE87      -0.2867
     90  CB        81.2620   57.7490  160.5670 C.3    87  ILE87       0.0252
     91  CG1       80.3680   58.9800  160.6720 C.3    87  ILE87       0.0019
     92  CG2       82.6810   58.1360  160.9640 C.3    87  ILE87       0.0019
     93  CD1       80.0430   59.3660  162.1080 C.3    87  ILE87       0.0001
@<TRIPOS>BOND
     1    81    80    2
     2    79    80    1
     3    79    78    1
     4    89    88    2
     5    40    38    1
     6    86    87    1
     7    80    82   am
     8    88    87    1
     9    87    90    1
    10    39    38    1
    11    38    37    1
    12    82    83    1
    13    90    91    1
    14    90    92    1
    15    91    93    1
    16    37    34    1
    17    84    83    1
    18    84    85    2
    19    32    30   am
    20     4     3    2
    21    34    33    1
    22    34    35    1
    23    33    26   am
    24    30    29    1
    25    30    31    2
    26    29    28    1
    27     3     2    1
    28     5     6    1
    29     5     2    1
    30     5     7    1
    31    35    36    2
    32     1     2    1
    33    26    25    1
    34    26    27    2
    35    68    69    1
    36    68    65    1
    37    67    66    2
    38    25    28    1
    39    25    24    1
    40    18    17    2
    41    66    65    1
    42    66    70   am
    43    23    21   ar
    44    65    64    1
    45    24    17   am
    46    17    16    1
    47    71    72    1
    48    71    70    1
    49    71    74    1
    50    72    73    2
    51    13    12    1
    52    21    22   ar
    53    21    20    1
    54    64    60   am
    55    75    74    1
    56    75    76    1
    57    16    15    1
    58    16    19    1
    59    12     9    1
    60    12    14    1
    61    20    19    1
    62    60    61    2
    63    60    59    1
    64    76    77    1
    65     9     8    1
    66     9    10    1
    67    57    55   ar
    68    56    55   ar
    69    63    62    1
    70    55    54    1
    71    10    11    2
    72    59    62    1
    73    59    58    1
    74    49    47   ar
    75    51    54    1
    76    51    50    1
    77    51    52    1
    78    53    52    2
    79    47    48   ar
    80    47    46    1
    81    44    43    2
    82    42    41    1
    83    42    43    1
    84    42    45    1
    85    46    45    1
