@<TRIPOS>MOLECULE
tmp/4otwA00.pdb
 177 165 0 0 0
SMALL
GASTEIGER

@<TRIPOS>ATOM
      1  N         50.9710   13.6880   24.1200 N.3    15  LYS15      -0.1245
      2  CA        52.0310   14.6110   23.7460 C.3    15  LYS15       0.1561
      3  C         51.6440   15.4140   22.4910 C.2    15  LYS15       0.2260
      4  O         50.8900   14.9340   21.6300 O.2    15  LYS15      -0.2867
      5  CB        53.3690   13.8720   23.5580 C.3    15  LYS15       0.0271
      6  CG        53.2640   12.5040   22.8790 C.3    15  LYS15       0.0035
      7  CD        54.4850   11.5900   23.1890 C.3    15  LYS15       0.0206
      8  CE        54.4670   11.0520   24.6370 C.3    15  LYS15       0.1093
      9  NZ        55.5970   10.1170   24.9450 N.3    15  LYS15      -0.1314
     10  N         52.4270   16.9440   18.9280 N.3    17  LEU17      -0.1231
     11  CA        53.2460   16.5590   17.7890 C.3    17  LEU17       0.1693
     12  C         53.6890   17.7920   17.0460 C.2    17  LEU17       0.2592
     13  O         54.7570   17.8280   16.4380 O.2    17  LEU17      -0.2718
     14  CB        52.4350   15.6860   16.8340 C.3    17  LEU17       0.0284
     15  CG        52.0040   14.3280   17.3830 C.3    17  LEU17       0.0019
     16  CD1       51.2030   13.5290   16.3500 C.3    17  LEU17       0.0001
     17  CD2       53.2370   13.5600   17.8430 C.3    17  LEU17       0.0001
     18  N         52.8540   18.8190   17.0860 N.am   18  GLY18      -0.1957
     19  CA        53.1340   20.0010   16.3040 C.3    18  GLY18       0.1869
     20  C         51.9910   20.9860   16.3120 C.2    18  GLY18       0.2309
     21  O         50.8440   20.6560   16.6390 O.2    18  GLY18      -0.2863
     22  N         48.2470   19.8050   16.8020 N.3    25  VAL25      -0.1245
     23  CA        48.0400   18.3610   16.6610 C.3    25  VAL25       0.1561
     24  C         48.6610   17.5770   17.8390 C.2    25  VAL25       0.2260
     25  O         49.7980   17.8520   18.2610 O.2    25  VAL25      -0.2867
     26  CB        48.5420   17.8590   15.2920 C.3    25  VAL25       0.0252
     27  CG1       48.4500   16.3710   15.2140 C.3    25  VAL25       0.0019
     28  CG2       47.7060   18.4550   14.1890 C.3    25  VAL25       0.0019
     29  N         49.3660   13.6310   19.7370 N.3    27  LYS27      -0.1245
     30  CA        49.2920   12.1790   19.8180 C.3    27  LYS27       0.1561
     31  C         48.4200   11.9140   21.0300 C.2    27  LYS27       0.2260
     32  O         48.5490   12.5890   22.0500 O.2    27  LYS27      -0.2867
     33  CB        50.6820   11.5610   20.0130 C.3    27  LYS27       0.0271
     34  CG        50.6660   10.0660   20.3830 C.3    27  LYS27       0.0035
     35  CD        52.0890    9.5050   20.4860 C.3    27  LYS27       0.0206
     36  CE        52.1150    8.0560   20.9780 C.3    27  LYS27       0.1093
     37  NZ        51.7130    7.0870   19.9290 N.3    27  LYS27      -0.1314
     38  N         45.1160   10.4650   16.6510 N.3    42  CYS42      -0.1221
     39  CA        45.7220   11.7630   16.4820 C.3    42  CYS42       0.1808
     40  C         44.6510   12.8150   16.6910 C.2    42  CYS42       0.2601
     41  O         43.5730   12.7420   16.0890 O.2    42  CYS42      -0.2717
     42  CB        46.3300   11.8720   15.0970 C.3    42  CYS42       0.0970
     43  SG        47.5080   13.2050   14.9910 S.3    42  CYS42      -0.0800
     44  N         44.9160   13.7740   17.5700 N.am   43  ILE43      -0.1965
     45  CA        43.9030   14.7850   17.8790 C.3    43  ILE43       0.1727
     46  C         44.3530   16.1860   17.4700 C.2    43  ILE43       0.2616
     47  O         45.3950   16.6650   17.9230 O.2    43  ILE43      -0.2715
     48  CB        43.5090   14.7840   19.3810 C.3    43  ILE43       0.0290
     49  CG1       43.0270   13.3920   19.8010 C.3    43  ILE43       0.0022
     50  CG2       42.4410   15.8500   19.6530 C.3    43  ILE43       0.0023
     51  CD1       42.8460   13.2240   21.2860 C.3    43  ILE43       0.0001
     52  N         43.5730   16.8260   16.6010 N.am   44  LYS44      -0.1977
     53  CA        43.8170   18.2220   16.2420 C.3    44  LYS44       0.1596
     54  C         42.8170   19.1420   16.9370 C.2    44  LYS44       0.2287
     55  O         41.5930   18.9140   16.8650 O.2    44  LYS44      -0.2864
     56  CB        43.7360   18.4380   14.7290 C.3    44  LYS44       0.0298
     57  CG        44.0830   19.8680   14.3130 C.3    44  LYS44       0.0038
     58  CD        44.2080   19.9400   12.8160 C.3    44  LYS44       0.0206
     59  CE        45.3440   20.8140   12.3730 C.3    44  LYS44       0.1093
     60  NZ        45.4380   20.6980   10.9020 N.3    44  LYS44      -0.1314
     61  N         43.2090   10.5220    4.7410 N.3    74  VAL74      -0.1245
     62  CA        43.1600   10.1330    6.1460 C.3    74  VAL74       0.1561
     63  C         41.7200   10.3000    6.6150 C.2    74  VAL74       0.2260
     64  O         41.2420   11.4250    6.7470 O.2    74  VAL74      -0.2867
     65  CB        44.0580   11.0190    7.0220 C.3    74  VAL74       0.0252
     66  CG1       43.8870   10.6520    8.4710 C.3    74  VAL74       0.0019
     67  CG2       45.5250   10.9110    6.5950 C.3    74  VAL74       0.0019
     68  N         38.5920   10.8960    8.8270 N.3    76  LEU76      -0.1245
     69  CA        38.2460   11.5210   10.1140 C.3    76  LEU76       0.1561
     70  C         37.4270   10.5470   10.9470 C.2    76  LEU76       0.2260
     71  O         36.2700   10.2760   10.6060 O.2    76  LEU76      -0.2867
     72  CB        37.4230   12.7990    9.9030 C.3    76  LEU76       0.0270
     73  CG        37.0290   13.6030   11.1550 C.3    76  LEU76       0.0019
     74  CD1       38.2480   14.3280   11.7330 C.3    76  LEU76       0.0001
     75  CD2       35.8780   14.5890   10.8890 C.3    76  LEU76       0.0001
     76  N         39.4640   17.4180   16.2630 N.3    87  LEU87      -0.1245
     77  CA        39.3340   16.4960   15.1450 C.3    87  LEU87       0.1561
     78  C         40.1770   15.2520   15.4530 C.2    87  LEU87       0.2260
     79  O         41.3250   15.3670   15.9140 O.2    87  LEU87      -0.2867
     80  CB        39.7450   17.1720   13.8270 C.3    87  LEU87       0.0270
     81  CG        39.0000   18.4610   13.4140 C.3    87  LEU87       0.0019
     82  CD1       39.5710   19.0770   12.1360 C.3    87  LEU87       0.0001
     83  CD2       37.5060   18.2310   13.2690 C.3    87  LEU87       0.0001
     84  N         41.6730   11.4830   14.1180 N.3    89  THR89      -0.1203
     85  CA        42.0070   10.5860   13.0180 C.3    89  THR89       0.1994
     86  C         42.9110    9.4970   13.5630 C.2    89  THR89       0.2618
     87  O         43.2700    9.5080   14.7440 O.2    89  THR89      -0.2717
     88  CB        42.8100   11.3080   11.9130 C.3    89  THR89       0.1784
     89  OG1       44.1290   11.6110   12.3960 O.3    89  THR89      -0.2211
     90  CG2       42.1060   12.5950   11.4550 C.3    89  THR89       0.0376
     91  N         43.3040    8.5680   12.7000 N.am   90  GLN90      -0.1965
     92  CA        44.3090    7.5870   13.0770 C.3    90  GLN90       0.1733
     93  C         45.6540    8.2800   13.2240 C.2    90  GLN90       0.2616
     94  O         45.9020    9.3320   12.6200 O.2    90  GLN90      -0.2715
     95  CB        44.4200    6.4830   12.0210 C.3    90  GLN90       0.0408
     96  CG        43.2570    5.5130   12.0300 C.3    90  GLN90       0.0908
     97  CD        43.2880    4.5380   10.8620 C.2    90  GLN90       0.2608
     98  OE1       44.1650    4.6080    9.9830 O.2    90  GLN90      -0.2717
     99  NE2       42.3260    3.6250   10.8420 N.am   90  GLN90      -0.0878
    100  N         46.5250    7.6930   14.0300 N.am   91  TYR91      -0.1960
    101  CA        47.8660    8.2100   14.1850 C.3    91  TYR91       0.1771
    102  C         48.7610    7.4680   13.2020 C.2    91  TYR91       0.2619
    103  O         48.7470    6.2370   13.1440 O.2    91  TYR91      -0.2715
    104  CB        48.3300    7.9870   15.6160 C.3    91  TYR91       0.0574
    105  CG        49.7800    8.3010   15.8590 C.ar   91  TYR91      -0.0198
    106  CD1       50.2460    9.6110   15.8320 C.ar   91  TYR91      -0.0009
    107  CD2       50.6810    7.2920   16.1470 C.ar   91  TYR91      -0.0009
    108  CE1       51.5880    9.9000   16.0710 C.ar   91  TYR91       0.0417
    109  CE2       52.0190    7.5710   16.3940 C.ar   91  TYR91       0.0417
    110  CZ        52.4610    8.8710   16.3580 C.ar   91  TYR91       0.1957
    111  OH        53.7820    9.1300   16.6040 O.3    91  TYR91      -0.2866
    112  N         49.5160    8.2170   12.4080 N.am   92  LEU92      -0.1964
    113  CA        50.3850    7.6040   11.4260 C.3    92  LEU92       0.1713
    114  C         51.8220    7.9270   11.8310 C.2    92  LEU92       0.2458
    115  O         52.3400    9.0010   11.5000 O.2    92  LEU92      -0.2730
    116  CB        50.0690    8.1160   10.0150 C.3    92  LEU92       0.0310
    117  CG        48.6150    8.1960    9.5340 C.3    92  LEU92       0.0022
    118  CD1       48.5430    8.4850    8.0450 C.3    92  LEU92       0.0001
    119  CD2       47.8970    6.9320    9.8220 C.3    92  LEU92       0.0001
    120  N         52.4680    6.9900   12.5580 N.am   93  PRO93      -0.2727
    121  CA        53.7780    7.1980   13.1990 C.3    93  PRO93       0.1402
    122  C         54.8940    7.4940   12.1920 C.2    93  PRO93       0.2269
    123  O         55.9300    8.0750   12.5500 O.2    93  PRO93      -0.2865
    124  CB        54.0360    5.8620   13.8990 C.3    93  PRO93       0.0296
    125  CG        53.1780    4.8530   13.1620 C.3    93  PRO93       0.0237
    126  CD        51.9630    5.6140   12.7530 C.3    93  PRO93       0.0939
    127  N         54.7850    9.6000    9.8880 N.3    95  GLY95      -0.1225
    128  CA        54.8690   11.0260    9.6520 C.3    95  GLY95       0.1811
    129  C         54.5700   11.4720    8.2370 C.2    95  GLY95       0.2280
    130  O         53.9180   10.7650    7.4610 O.2    95  GLY95      -0.2866
    131  N         53.6900   18.5920    3.2880 N.3   140  ARG140     -0.1231
    132  CA        53.5880   18.4980    4.7430 C.3   140  ARG140      0.1694
    133  C         52.2890   17.8020    5.1550 C.2   140  ARG140      0.2592
    134  O         52.2420   17.0770    6.1620 O.2   140  ARG140     -0.2718
    135  CB        53.6660   19.9050    5.3560 C.3   140  ARG140      0.0321
    136  CG        53.2360   20.0170    6.8360 C.3   140  ARG140      0.0489
    137  CD        54.0770   19.1570    7.8090 C.3   140  ARG140      0.2205
    138  NE        55.4930   19.5200    7.7970 N.pl3 140  ARG140     -0.0865
    139  CZ        56.4920   18.6620    8.0130 C.cat 140  ARG140      0.5346
    140  NH1       57.7560   19.0810    7.9640 N.pl3 140  ARG140      0.1354
    141  NH2       56.2290   17.3810    8.2680 N.pl3 140  ARG140      0.1354
    142  N         51.2450   18.0120    4.3540 N.am  141  ASN141     -0.1974
    143  CA        49.9260   17.4370    4.6040 C.3   141  ASN141      0.1688
    144  C         49.6440   16.1740    3.7800 C.2   141  ASN141      0.2292
    145  O         48.4900   15.8560    3.4890 O.2   141  ASN141     -0.2864
    146  CB        48.8370   18.4800    4.3330 C.3   141  ASN141      0.1181
    147  CG        48.7750   19.5440    5.4040 C.2   141  ASN141      0.2629
    148  OD1       49.0170   19.2730    6.5870 O.2   141  ASN141     -0.2716
    149  ND2       48.4310   20.7560    5.0060 N.am  141  ASN141     -0.0877
    150  N         50.5530   12.1480    4.2400 N.3   143  LEU143     -0.1245
    151  CA        51.1080   11.3080    5.2960 C.3   143  LEU143      0.1561
    152  C         51.4360    9.8880    4.8210 C.2   143  LEU143      0.2260
    153  O         50.7900    9.3610    3.9140 O.2   143  LEU143     -0.2867
    154  CB        50.1610   11.2940    6.5080 C.3   143  LEU143      0.0270
    155  CG        49.7860   12.6820    7.0500 C.3   143  LEU143      0.0019
    156  CD1       48.7560   12.5820    8.1490 C.3   143  LEU143      0.0001
    157  CD2       50.9990   13.4310    7.5550 C.3   143  LEU143      0.0001
    158  N         45.9240   14.4760    3.9350 N.3   153  ALA153     -0.1231
    159  CA        45.3380   14.9090    5.2060 C.3   153  ALA153      0.1694
    160  C         44.9300   16.3780    5.1950 C.2   153  ALA153      0.2592
    161  O         45.2300   17.1070    4.2430 O.2   153  ALA153     -0.2718
    162  CB        46.2840   14.6460    6.3450 C.3   153  ALA153      0.0304
    163  N         44.2260   16.7770    6.2560 N.am  154  ASP154     -0.1974
    164  CA        43.8850   18.1710    6.5620 C.3   154  ASP154      0.1709
    165  C         42.8470   18.8120    5.6300 C.2   154  ASP154      0.2293
    166  O         42.6830   20.0340    5.6080 O.2   154  ASP154     -0.2864
    167  CB        45.1480   19.0440    6.6740 C.3   154  ASP154      0.1436
    168  CG        44.9790   20.2030    7.6710 C.2   154  ASP154      0.3671
    169  OD1       45.5110   21.3160    7.4070 O.co2 154  ASP154     -0.2456
    170  OD2       44.3250   20.0020    8.7290 O.co2 154  ASP154     -0.2456
    171  N         39.6560   21.5180    6.5230 N.3   157  VAL157     -0.1245
    172  CA        39.9150   22.1500    7.8160 C.3   157  VAL157      0.1561
    173  C         39.9040   23.6860    7.7730 C.2   157  VAL157      0.2260
    174  O         39.4440   24.3380    8.7120 O.2   157  VAL157     -0.2867
    175  CB        41.2050   21.6080    8.4780 C.3   157  VAL157      0.0252
    176  CG1       41.4660   22.3070    9.8070 C.3   157  VAL157      0.0019
    177  CG2       41.1010   20.0890    8.6830 C.3   157  VAL157      0.0019
@<TRIPOS>BOND
     1   131   132    1
     2   145   144    2
     3   144   143    1
     4   153   152    2
     5   158   159    1
     6   150   151    1
     7   161   160    2
     8   146   143    1
     9   146   147    1
    10   142   143    1
    11   142   133   am
    12    61    62    1
    13   132   133    1
    14   132   135    1
    15   152   151    1
    16   149   147   am
    17   133   134    2
    18   160   159    1
    19   160   163   am
    20   159   162    1
    21   151   154    1
    22   135   136    1
    23   147   148    2
    24   166   165    2
    25   165   164    1
    26    62    63    1
    27    62    65    1
    28   163   164    1
    29   154   155    1
    30   171   172    1
    31   164   167    1
    32    67    65    1
    33    63    64    2
    34   167   168    1
    35   136   137    1
    36    65    66    1
    37   155   157    1
    38   155   156    1
    39   169   168   ar
    40   130   129    2
    41   168   170   ar
    42   173   172    1
    43   173   174    2
    44   138   137    1
    45   138   139    2
    46   172   175    1
    47   140   139    1
    48   139   141    1
    49   118   117    1
    50   129   128    1
    51   175   177    1
    52   175   176    1
    53    68    69    1
    54   117   119    1
    55   117   116    1
    56   128   127    1
    57    72    69    1
    58    72    73    1
    59    98    97    2
    60   116   113    1
    61    69    70    1
    62    71    70    2
    63    99    97   am
    64    97    96    1
    65    75    73    1
    66    60    59    1
    67    73    74    1
    68   113   114    1
    69   113   112    1
    70    90    88    1
    71   115   114    2
    72   114   120   am
    73    88    89    1
    74    88    85    1
    75    95    96    1
    76    95    92    1
    77    82    81    1
    78   122   123    2
    79   122   121    1
    80    59    58    1
    81   112   102   am
    82   120   126    1
    83   120   121    1
    84    94    93    2
    85    91    92    1
    86    91    86   am
    87   126   125    1
    88    58    57    1
    89    85    86    1
    90    85    84    1
    91    92    93    1
    92   103   102    2
    93   125   124    1
    94   121   124    1
    95   102   101    1
    96    93   100   am
    97    83    81    1
    98    81    80    1
    99    86    87    2
   100    80    77    1
   101   100   101    1
   102   101   104    1
   103    28    26    1
   104    57    56    1
   105    56    53    1
   106    43    42    1
   107    42    39    1
   108    77    78    1
   109    77    76    1
   110    27    26    1
   111    26    23    1
   112    78    79    2
   113   104   105    1
   114   106   105   ar
   115   106   108   ar
   116   105   107   ar
   117   108   110   ar
   118    41    40    2
   119   107   109   ar
   120    53    52    1
   121    53    54    1
   122    19    20    1
   123    19    18    1
   124    20    21    2
   125    16    15    1
   126   110   109   ar
   127   110   111    1
   128    13    12    2
   129    39    38    1
   130    39    40    1
   131    52    46   am
   132    23    22    1
   133    23    24    1
   134    40    44   am
   135    14    15    1
   136    14    11    1
   137    55    54    2
   138    12    18   am
   139    12    11    1
   140    15    17    1
   141    46    45    1
   142    46    47    2
   143    44    45    1
   144    11    10    1
   145    24    25    2
   146    45    48    1
   147    48    50    1
   148    48    49    1
   149    29    30    1
   150    49    51    1
   151    30    33    1
   152    30    31    1
   153    37    36    1
   154    33    34    1
   155    34    35    1
   156    35    36    1
   157    31    32    2
   158     4     3    2
   159     3     2    1
   160     6     7    1
   161     6     5    1
   162     7     8    1
   163     5     2    1
   164     2     1    1
   165     8     9    1
