@<TRIPOS>MOLECULE
tmp/4otzB00.pdb
 109 102 0 0 0
SMALL
GASTEIGER

@<TRIPOS>ATOM
      1  N         24.6370   50.2470   52.2970 N.3    18  LEU18      -0.1245
      2  CA        23.8980   49.0660   52.7220 C.3    18  LEU18       0.1561
      3  C         24.8660   47.9710   53.1770 C.2    18  LEU18       0.2260
      4  O         24.6880   47.3540   54.2370 O.2    18  LEU18      -0.2867
      5  CB        23.0300   48.5340   51.5760 C.3    18  LEU18       0.0270
      6  CG        21.8220   49.3810   51.1460 C.3    18  LEU18       0.0019
      7  CD1       22.2160   50.6030   50.3230 C.3    18  LEU18       0.0001
      8  CD2       20.8620   48.4970   50.3560 C.3    18  LEU18       0.0001
      9  N         26.0310   45.0330   56.8010 N.3    22  GLN22      -0.1245
     10  CA        26.1180   43.5890   56.6830 C.3    22  GLN22       0.1566
     11  C         27.4810   43.0930   57.1400 C.2    22  GLN22       0.2260
     12  O         27.5800   42.0950   57.8570 O.2    22  GLN22      -0.2867
     13  CB        25.8570   43.1760   55.2440 C.3    22  GLN22       0.0367
     14  CG        24.5050   43.6090   54.7320 C.3    22  GLN22       0.0905
     15  CD        24.3220   43.2240   53.2910 C.2    22  GLN22       0.2608
     16  OE1       25.1370   43.5730   52.4360 O.2    22  GLN22      -0.2717
     17  NE2       23.2660   42.4800   53.0110 N.am   22  GLN22      -0.0878
     18  N         25.2990   41.7590   48.2640 N.3    78  THR78      -0.1203
     19  CA        24.4060   42.7380   48.8820 C.3    78  THR78       0.1994
     20  C         23.1000   42.9090   48.0980 C.2    78  THR78       0.2618
     21  O         22.0080   42.8230   48.6710 O.2    78  THR78      -0.2717
     22  CB        25.1050   44.0910   49.0630 C.3    78  THR78       0.1784
     23  OG1       26.2200   43.9250   49.9540 O.3    78  THR78      -0.2211
     24  CG2       24.1400   45.1400   49.6210 C.3    78  THR78       0.0376
     25  N         23.2020   43.1380   46.7910 N.am   79  LEU79      -0.1965
     26  CA        22.0290   43.4970   46.0010 C.3    79  LEU79       0.1728
     27  C         21.4820   42.3440   45.1860 C.2    79  LEU79       0.2616
     28  O         22.2420   41.5420   44.6240 O.2    79  LEU79      -0.2715
     29  CB        22.3700   44.6110   45.0220 C.3    79  LEU79       0.0311
     30  CG        22.7850   45.9560   45.6040 C.3    79  LEU79       0.0022
     31  CD1       23.1010   46.9040   44.4600 C.3    79  LEU79       0.0001
     32  CD2       21.6900   46.5300   46.5020 C.3    79  LEU79       0.0001
     33  N         20.1590   42.2830   45.0770 N.am   80  SER80      -0.1950
     34  CA        19.5360   41.3760   44.1180 C.3    80  SER80       0.1924
     35  C         20.0760   41.5810   42.7000 C.2    80  SER80       0.2314
     36  O         20.2770   40.6100   41.9640 O.2    80  SER80      -0.2863
     37  CB        18.0250   41.5400   44.1020 C.3    80  SER80       0.2116
     38  OG        17.4470   41.1390   45.3260 O.3    80  SER80      -0.2180
     39  N         20.3540   39.5730   52.3350 N.3   101  SER101     -0.1202
     40  CA        19.3580   40.6540   52.2100 C.3   101  SER101      0.2020
     41  C         18.8660   40.8860   50.7740 C.2   101  SER101      0.2619
     42  O         18.3930   41.9680   50.4210 O.2   101  SER101     -0.2717
     43  CB        19.9050   41.9600   52.7950 C.3   101  SER101      0.2103
     44  OG        20.4250   41.7680   54.1010 O.3   101  SER101     -0.2182
     45  N         18.9770   39.8550   49.9480 N.am  102  ASN102     -0.1960
     46  CA        18.4520   39.8820   48.5760 C.3   102  ASN102      0.1819
     47  C         16.9710   39.5070   48.5210 C.2   102  ASN102      0.2621
     48  O         16.6620   38.3340   48.6920 O.2   102  ASN102     -0.2715
     49  CB        19.2220   38.8740   47.7180 C.3   102  ASN102      0.1195
     50  CG        20.7190   38.9770   47.8950 C.2   102  ASN102      0.2630
     51  OD1       21.3970   37.9730   48.1230 O.2   102  ASN102     -0.2716
     52  ND2       21.2460   40.1870   47.7910 N.am  102  ASN102     -0.0877
     53  N         16.0830   40.4540   48.2480 N.am  103  THR103     -0.1951
     54  CA        14.6590   40.1980   48.4080 C.3   103  THR103      0.1897
     55  C         13.8230   40.2390   47.1370 C.2   103  THR103      0.2313
     56  O         12.5940   40.1310   47.2000 O.2   103  THR103     -0.2863
     57  CB        14.0530   41.1650   49.4420 C.3   103  THR103      0.1794
     58  OG1       14.3360   42.5180   49.0570 O.3   103  THR103     -0.2208
     59  CG2       14.6540   40.9180   50.8210 C.3   103  THR103      0.0378
     60  N         17.4920   49.0210   38.7810 N.3   150  ASP150     -0.1239
     61  CA        17.8090   48.0860   39.8570 C.3   150  ASP150      0.1674
     62  C         16.7740   46.9650   39.9800 C.2   150  ASP150      0.2266
     63  O         15.5780   47.2260   40.1190 O.2   150  ASP150     -0.2867
     64  CB        17.9450   48.8440   41.1860 C.3   150  ASP150      0.1410
     65  CG        18.2100   47.9180   42.3480 C.2   150  ASP150      0.3668
     66  OD1       19.3590   47.4420   42.4750 O.co2 150  ASP150     -0.2456
     67  OD2       17.2700   47.6640   43.1350 O.co2 150  ASP150     -0.2456
     68  N         15.9780   44.6820   42.3060 N.3   152  PHE152     -0.1241
     69  CA        15.1580   44.6260   43.5090 C.3   152  PHE152      0.1605
     70  C         14.1130   45.7370   43.5110 C.2   152  PHE152      0.2264
     71  O         12.9580   45.5040   43.8690 O.2   152  PHE152     -0.2867
     72  CB        16.0280   44.6950   44.7660 C.3   152  PHE152      0.0534
     73  CG        15.4130   45.4900   45.8880 C.ar  152  PHE152     -0.0203
     74  CD1       14.4830   44.9220   46.7470 C.ar  152  PHE152     -0.0042
     75  CD2       15.7770   46.8120   46.0810 C.ar  152  PHE152     -0.0042
     76  CE1       13.9230   45.6650   47.7770 C.ar  152  PHE152     -0.0003
     77  CE2       15.2230   47.5610   47.0980 C.ar  152  PHE152     -0.0003
     78  CZ        14.2950   46.9900   47.9500 C.ar  152  PHE152     -0.0000
     79  N         17.6870   52.6090   46.2960 N.3   204  LEU204     -0.1245
     80  CA        18.6940   52.2990   47.2990 C.3   204  LEU204      0.1561
     81  C         18.8470   53.4970   48.2410 C.2   204  LEU204      0.2260
     82  O         17.9580   54.3450   48.2980 O.2   204  LEU204     -0.2867
     83  CB        20.0000   51.8210   46.6600 C.3   204  LEU204      0.0270
     84  CG        19.7960   50.6170   45.7190 C.3   204  LEU204      0.0019
     85  CD1       21.1200   50.1630   45.1120 C.3   204  LEU204      0.0001
     86  CD2       19.0960   49.4190   46.3940 C.3   204  LEU204      0.0001
     87  N         13.0730   48.5720   51.1340 N.3   228  ASP228     -0.1225
     88  CA        14.1970   47.9610   51.8340 C.3   228  ASP228      0.1805
     89  C         15.5580   48.5760   51.4840 C.2   228  ASP228      0.2598
     90  O         16.4990   48.5060   52.2790 O.2   228  ASP228     -0.2718
     91  CB        14.2140   46.4550   51.5760 C.3   228  ASP228      0.1424
     92  CG        15.0470   45.7030   52.5870 C.2   228  ASP228      0.3668
     93  OD1       14.7970   45.8470   53.8070 O.co2 228  ASP228     -0.2456
     94  OD2       15.9520   44.9550   52.1660 O.co2 228  ASP228     -0.2456
     95  N         15.6710   49.1730   50.3000 N.am  229  GLY229     -0.1957
     96  CA        16.9210   49.7900   49.8990 C.3   229  GLY229      0.1869
     97  C         17.2720   51.0390   50.6930 C.2   229  GLY229      0.2309
     98  O         18.4240   51.4690   50.6850 O.2   229  GLY229     -0.2863
     99  N         19.9550   44.8120   58.4360 N.3   279  PHE279     -0.1241
    100  CA        20.9720   44.2190   57.5640 C.3   279  PHE279      0.1605
    101  C         22.0860   43.5470   58.3640 C.2   279  PHE279      0.2264
    102  O         22.6390   42.5400   57.9250 O.2   279  PHE279     -0.2867
    103  CB        21.5740   45.2550   56.6070 C.3   279  PHE279      0.0534
    104  CG        20.6340   45.7290   55.5390 C.ar  279  PHE279     -0.0203
    105  CD1       19.6920   44.8840   54.9800 C.ar  279  PHE279     -0.0042
    106  CD2       20.6970   47.0420   55.0960 C.ar  279  PHE279     -0.0042
    107  CE1       18.8260   45.3480   53.9930 C.ar  279  PHE279     -0.0003
    108  CE2       19.8460   47.5020   54.1160 C.ar  279  PHE279     -0.0003
    109  CZ        18.9060   46.6560   53.5660 C.ar  279  PHE279     -0.0000
@<TRIPOS>BOND
     1    60    61    1
     2    61    62    1
     3    61    64    1
     4    62    63    2
     5    64    65    1
     6    36    35    2
     7    68    69    1
     8    65    66   ar
     9    65    67   ar
    10    35    34    1
    11    69    70    1
    12    69    72    1
    13    70    71    2
    14    37    34    1
    15    37    38    1
    16    34    33    1
    17    31    30    1
    18    28    27    2
    19    72    73    1
    20    29    30    1
    21    29    26    1
    22    33    27   am
    23    85    84    1
    24    27    26    1
    25    30    32    1
    26    84    86    1
    27    84    83    1
    28    73    75   ar
    29    73    74   ar
    30    26    25    1
    31    75    77   ar
    32    79    80    1
    33    83    80    1
    34    74    76   ar
    35    25    20   am
    36    77    78   ar
    37    55    56    2
    38    55    54    1
    39    80    81    1
    40    49    50    1
    41    49    46    1
    42    76    78   ar
    43    52    50   am
    44    50    51    2
    45    20    21    2
    46    20    19    1
    47    81    82    2
    48    53    54    1
    49    53    47   am
    50    18    19    1
    51    54    57    1
    52    47    46    1
    53    47    48    2
    54    46    45    1
    55    19    22    1
    56    58    57    1
    57    22    24    1
    58    22    23    1
    59    57    59    1
    60    96    95    1
    61    96    97    1
    62    45    41   am
    63    95    89   am
    64     7     6    1
    65     8     6    1
    66    42    41    2
    67    98    97    2
    68    41    40    1
    69    87    88    1
    70     6     5    1
    71    89    88    1
    72    89    90    2
    73    91    88    1
    74    91    92    1
    75     5     2    1
    76    94    92   ar
    77    40    39    1
    78    40    43    1
    79     1     2    1
    80    16    15    2
    81    92    93   ar
    82     2     3    1
    83    43    44    1
    84    17    15   am
    85     3     4    2
    86    15    14    1
    87   109   107   ar
    88   109   108   ar
    89   107   105   ar
    90   108   106   ar
    91    14    13    1
    92   105   104   ar
    93   106   104   ar
    94    13    10    1
    95   104   103    1
    96   103   100    1
    97    10     9    1
    98    10    11    1
    99    11    12    2
   100   100   101    1
   101   100    99    1
   102   102   101    2
