@<TRIPOS>MOLECULE
tmp/4ou1A01.pdb
 125 119 0 0 0
SMALL
GASTEIGER

@<TRIPOS>ATOM
      1  N        -20.0350   11.8890  -22.2430 N.3     7  TRP7       -0.1227
      2  CA       -20.1080   11.9020  -20.7920 C.3     7  TRP7        0.1737
      3  C        -21.5300   12.1230  -20.2860 C.2     7  TRP7        0.2595
      4  O        -21.8720   11.6910  -19.1930 O.2     7  TRP7       -0.2718
      5  CB       -19.1370   12.9290  -20.2010 C.3     7  TRP7        0.0564
      6  CG       -19.5620   14.3700  -20.3040 C.ar    7  TRP7        0.0003
      7  CD1      -19.3080   15.2370  -21.3310 C.ar    7  TRP7        0.0946
      8  CD2      -20.2800   15.1110  -19.3280 C.ar    7  TRP7        0.0152
      9  NE1      -19.8430   16.4710  -21.0520 N.ar    7  TRP7       -0.2442
     10  CE2      -20.4350   16.4230  -19.8130 C.ar    7  TRP7        0.0810
     11  CE3      -20.8170   14.7940  -18.0740 C.ar    7  TRP7        0.0012
     12  CZ2      -21.1260   17.4060  -19.1070 C.ar    7  TRP7        0.0191
     13  CZ3      -21.4810   15.7700  -17.3700 C.ar    7  TRP7        0.0001
     14  CH2      -21.6220   17.0630  -17.8830 C.ar    7  TRP7        0.0015
     15  N        -22.3640   12.7710  -21.0900 N.am    8  LEU8       -0.1980
     16  CA       -23.7520   12.9800  -20.7000 C.3     8  LEU8        0.1596
     17  C        -24.5230   11.6740  -20.7040 C.2     8  LEU8        0.2287
     18  O        -25.3290   11.4210  -19.8100 O.2     8  LEU8       -0.2864
     19  CB       -24.4330   13.9860  -21.6240 C.3     8  LEU8        0.0297
     20  CG       -24.2740   15.4610  -21.2560 C.3     8  LEU8        0.0022
     21  CD1      -25.1320   16.3070  -22.1770 C.3     8  LEU8        0.0001
     22  CD2      -24.6270   15.7260  -19.7970 C.3     8  LEU8        0.0001
     23  N        -27.3880   20.2720   -7.6570 N.3   109  TYR109     -0.1241
     24  CA       -26.9690   20.1520   -9.0460 C.3   109  TYR109      0.1605
     25  C        -26.5700   18.7170   -9.3390 C.2   109  TYR109      0.2264
     26  O        -25.6050   18.1990   -8.7910 O.2   109  TYR109     -0.2867
     27  CB       -25.8160   21.0870   -9.3650 C.3   109  TYR109      0.0534
     28  CG       -25.3730   20.9710  -10.8210 C.ar  109  TYR109     -0.0201
     29  CD1      -26.1040   21.5450  -11.8580 C.ar  109  TYR109     -0.0009
     30  CD2      -24.2180   20.2600  -11.1440 C.ar  109  TYR109     -0.0009
     31  CE1      -25.6860   21.4120  -13.1690 C.ar  109  TYR109      0.0417
     32  CE2      -23.7800   20.1270  -12.4450 C.ar  109  TYR109      0.0417
     33  CZ       -24.5120   20.7070  -13.4580 C.ar  109  TYR109      0.1957
     34  OH       -24.0430   20.5670  -14.7580 O.3   109  TYR109     -0.2866
     35  N        -27.8970   15.3570  -12.4350 N.3   111  PHE111     -0.1241
     36  CA       -28.4420   15.0200  -13.7410 C.3   111  PHE111      0.1605
     37  C        -29.7260   14.2440  -13.4900 C.2   111  PHE111      0.2264
     38  O        -29.7540   13.0200  -13.4260 O.2   111  PHE111     -0.2867
     39  CB       -27.3570   14.2930  -14.5230 C.3   111  PHE111      0.0534
     40  CG       -26.1750   15.1760  -14.7640 C.ar  111  PHE111     -0.0203
     41  CD1      -26.1340   16.0010  -15.8650 C.ar  111  PHE111     -0.0042
     42  CD2      -25.1570   15.2790  -13.8290 C.ar  111  PHE111     -0.0042
     43  CE1      -25.0830   16.8740  -16.0570 C.ar  111  PHE111     -0.0003
     44  CE2      -24.1230   16.1590  -14.0070 C.ar  111  PHE111     -0.0003
     45  CZ       -24.0740   16.9540  -15.1160 C.ar  111  PHE111     -0.0000
     46  N        -31.9690   19.9500  -16.6630 N.3   132  ILE132     -0.1245
     47  CA       -31.0570   20.2480  -17.7670 C.3   132  ILE132      0.1561
     48  C        -31.7770   19.8900  -19.0560 C.2   132  ILE132      0.2260
     49  O        -32.0860   18.7290  -19.3240 O.2   132  ILE132     -0.2867
     50  CB       -29.7430   19.4810  -17.6090 C.3   132  ILE132      0.0252
     51  CG1      -29.0390   19.9800  -16.3400 C.3   132  ILE132      0.0019
     52  CG2      -28.8580   19.6470  -18.8550 C.3   132  ILE132      0.0019
     53  CD1      -27.9110   19.0820  -15.9070 C.3   132  ILE132      0.0001
     54  N        -30.8760   19.6990  -22.0790 N.3   134  LYS134     -0.1245
     55  CA       -30.1450   18.8460  -23.0050 C.3   134  LYS134      0.1561
     56  C        -30.2780   17.3460  -22.7470 C.2   134  LYS134      0.2260
     57  O        -30.0060   16.5460  -23.6340 O.2   134  LYS134     -0.2867
     58  CB       -28.6650   19.2590  -23.0320 C.3   134  LYS134      0.0271
     59  CG       -28.3270   20.2700  -24.1390 C.3   134  LYS134      0.0035
     60  CD       -28.1310   19.5920  -25.5000 C.3   134  LYS134      0.0206
     61  CE       -27.7860   20.5960  -26.6030 C.3   134  LYS134      0.1093
     62  NZ       -28.9840   21.3250  -27.0890 N.3   134  LYS134     -0.1314
     63  N        -31.7960   24.7420  -16.9630 N.3   158  ILE158     -0.1245
     64  CA       -30.5360   25.1190  -17.5660 C.3   158  ILE158      0.1561
     65  C        -30.5190   24.9160  -19.0760 C.2   158  ILE158      0.2260
     66  O        -30.8330   23.8450  -19.5810 O.2   158  ILE158     -0.2867
     67  CB       -29.3650   24.3700  -16.9250 C.3   158  ILE158      0.0252
     68  CG1      -29.2850   24.7150  -15.4190 C.3   158  ILE158      0.0019
     69  CG2      -28.0280   24.6910  -17.6340 C.3   158  ILE158      0.0019
     70  CD1      -28.1930   23.9780  -14.6600 C.3   158  ILE158      0.0001
     71  N        -28.2030   25.8990  -22.8290 N.3   160  ASN160     -0.1240
     72  CA       -26.9410   26.4220  -23.3770 C.3   160  ASN160      0.1653
     73  C        -26.9110   26.5930  -24.8960 C.2   160  ASN160      0.2266
     74  O        -25.8440   26.7780  -25.4690 O.2   160  ASN160     -0.2867
     75  CB       -25.7190   25.6020  -22.9490 C.3   160  ASN160      0.1155
     76  CG       -25.6150   24.2940  -23.6840 C.2   160  ASN160      0.2627
     77  OD1      -26.5760   23.8450  -24.3080 O.2   160  ASN160     -0.2716
     78  ND2      -24.4360   23.6700  -23.6240 N.am  160  ASN160     -0.0877
     79  N        -32.2850   24.5590  -26.9450 N.3   164  ASP164     -0.1239
     80  CA       -32.6970   24.4500  -25.5390 C.3   164  ASP164      0.1674
     81  C        -33.6200   25.6100  -25.1590 C.2   164  ASP164      0.2266
     82  O        -34.6100   25.4020  -24.4550 O.2   164  ASP164     -0.2867
     83  CB       -31.4990   24.5610  -24.5870 C.3   164  ASP164      0.1410
     84  CG       -30.5920   23.3810  -24.5660 C.2   164  ASP164      0.3668
     85  OD1      -30.9020   22.3100  -25.1170 O.co2 164  ASP164     -0.2456
     86  OD2      -29.5330   23.5490  -23.8950 O.co2 164  ASP164     -0.2456
     87  N        -26.1830   28.9420  -19.5720 N.3   179  ALA179     -0.1245
     88  CA       -24.8240   28.4400  -19.4150 C.3   179  ALA179      0.1562
     89  C        -23.8550   29.0740  -20.3890 C.2   179  ALA179      0.2260
     90  O        -24.1560   29.2470  -21.5670 O.2   179  ALA179     -0.2867
     91  CB       -24.8120   26.9250  -19.6040 C.3   179  ALA179      0.0290
     92  N        -20.7110   27.6390  -20.8660 N.3   181  ARG181     -0.1245
     93  CA       -19.9260   26.5580  -21.4450 C.3   181  ARG181      0.1563
     94  C        -20.7420   25.6040  -22.2970 C.2   181  ARG181      0.2260
     95  O        -21.8340   25.1740  -21.9320 O.2   181  ARG181     -0.2867
     96  CB       -19.2760   25.7170  -20.3860 C.3   181  ARG181      0.0307
     97  CG       -18.1560   26.3440  -19.6170 C.3   181  ARG181      0.0489
     98  CD       -17.6380   25.2470  -18.7670 C.3   181  ARG181      0.2205
     99  NE       -16.4900   25.4540  -17.9060 N.pl3 181  ARG181     -0.0865
    100  CZ       -15.2210   25.1670  -18.2000 C.cat 181  ARG181      0.5346
    101  NH1      -14.8430   24.8090  -19.4140 N.pl3 181  ARG181      0.1354
    102  NH2      -14.3230   25.2530  -17.2390 N.pl3 181  ARG181      0.1354
    103  N        -21.7710   22.0630  -23.6100 N.3   183  TRP183     -0.1241
    104  CA       -21.7590   20.8170  -22.8270 C.3   183  TRP183      0.1605
    105  C        -20.7210   19.8120  -23.3160 C.2   183  TRP183      0.2264
    106  O        -20.1520   19.0570  -22.5220 O.2   183  TRP183     -0.2867
    107  CB       -23.1400   20.1370  -22.7980 C.3   183  TRP183      0.0550
    108  CG       -23.5480   19.5570  -24.1080 C.ar  183  TRP183      0.0003
    109  CD1      -24.3150   20.1580  -25.0630 C.ar  183  TRP183      0.0946
    110  CD2      -23.2090   18.2600  -24.6220 C.ar  183  TRP183      0.0152
    111  NE1      -24.4800   19.3180  -26.1350 N.ar  183  TRP183     -0.2442
    112  CE2      -23.8070   18.1440  -25.8920 C.ar  183  TRP183      0.0810
    113  CE3      -22.4510   17.1840  -24.1340 C.ar  183  TRP183      0.0012
    114  CZ2      -23.6810   17.0030  -26.6820 C.ar  183  TRP183      0.0191
    115  CZ3      -22.3260   16.0460  -24.9190 C.ar  183  TRP183      0.0001
    116  CH2      -22.9350   15.9660  -26.1790 C.ar  183  TRP183      0.0015
    117  N        -25.0770   31.6300  -15.8890 N.3   209  LYS209     -0.1245
    118  CA       -24.2990   30.5110  -15.3310 C.3   209  LYS209      0.1561
    119  C        -22.8850   30.5140  -15.9010 C.2   209  LYS209      0.2260
    120  O        -22.6420   30.1720  -17.0680 O.2   209  LYS209     -0.2867
    121  CB       -25.0160   29.1750  -15.5720 C.3   209  LYS209      0.0271
    122  CG       -24.1990   27.9950  -14.9890 C.3   209  LYS209      0.0035
    123  CD       -25.0180   26.6840  -15.0240 C.3   209  LYS209      0.0206
    124  CE       -24.2850   25.4600  -14.4040 C.3   209  LYS209      0.1093
    125  NZ       -23.1010   25.0060  -15.1520 N.3   209  LYS209     -0.1314
@<TRIPOS>BOND
     1    62    61    1
     2    79    80    1
     3   114   116   ar
     4   114   112   ar
     5    61    60    1
     6   116   115   ar
     7   111   112   ar
     8   111   109   ar
     9   112   110   ar
    10    80    81    1
    11    80    83    1
    12    60    59    1
    13    74    73    2
    14    81    82    2
    15    85    84   ar
    16   109   108   ar
    17   115   113   ar
    18    73    72    1
    19   110   113   ar
    20   110   108   ar
    21    83    84    1
    22    84    86   ar
    23    77    76    2
    24    59    58    1
    25   108   107    1
    26    76    78   am
    27    76    75    1
    28    57    56    2
    29   103   104    1
    30    72    75    1
    31    72    71    1
    32   105   104    1
    33   105   106    2
    34    58    55    1
    35    55    56    1
    36    55    54    1
    37   104   107    1
    38    94    95    2
    39    94    93    1
    40     1     2    1
    41    21    20    1
    42    19    20    1
    43    19    16    1
    44    90    89    2
    45    93    92    1
    46    93    96    1
    47     7     9   ar
    48     7     6   ar
    49    20    22    1
    50    15    16    1
    51    15     3   am
    52     9    10   ar
    53     2     3    1
    54     2     5    1
    55    17    16    1
    56    17    18    2
    57    89    88    1
    58    96    97    1
    59     6     5    1
    60     6     8   ar
    61     3     4    2
    62    10     8   ar
    63    10    12   ar
    64    97    98    1
    65    91    88    1
    66    66    65    2
    67    87    88    1
    68   101   100    1
    69     8    11   ar
    70    49    48    2
    71    12    14   ar
    72    65    64    1
    73    48    47    1
    74    52    50    1
    75    98    99    1
    76   100    99    2
    77   100   102    1
    78    11    13   ar
    79    14    13   ar
    80    47    50    1
    81    47    46    1
    82    69    67    1
    83    50    51    1
    84    64    63    1
    85    64    67    1
    86   120   119    2
    87    67    68    1
    88    51    53    1
    89    43    41   ar
    90    43    45   ar
    91   119   118    1
    92   117   118    1
    93    41    40   ar
    94   121   118    1
    95   121   122    1
    96    68    70    1
    97   125   124    1
    98    45    44   ar
    99   123   122    1
   100   123   124    1
   101    40    39    1
   102    40    42   ar
   103    34    33    1
   104    39    36    1
   105    44    42   ar
   106    36    37    1
   107    36    35    1
   108    37    38    2
   109    33    31   ar
   110    33    32   ar
   111    31    29   ar
   112    32    30   ar
   113    29    28   ar
   114    30    28   ar
   115    28    27    1
   116    27    24    1
   117    25    24    1
   118    25    26    2
   119    24    23    1
