@<TRIPOS>MOLECULE
tmp/4ou1A00.pdb
 149 149 0 0 0
SMALL
GASTEIGER

@<TRIPOS>ATOM
      1  N        -20.0350   11.8890  -22.2430 N.3     7  TRP7       -0.1241
      2  CA       -20.1080   11.9020  -20.7920 C.3     7  TRP7        0.1605
      3  C        -21.5300   12.1230  -20.2860 C.2     7  TRP7        0.2264
      4  O        -21.8720   11.6910  -19.1930 O.2     7  TRP7       -0.2867
      5  CB       -19.1370   12.9290  -20.2010 C.3     7  TRP7        0.0550
      6  CG       -19.5620   14.3700  -20.3040 C.ar    7  TRP7        0.0003
      7  CD1      -19.3080   15.2370  -21.3310 C.ar    7  TRP7        0.0946
      8  CD2      -20.2800   15.1110  -19.3280 C.ar    7  TRP7        0.0152
      9  NE1      -19.8430   16.4710  -21.0520 N.ar    7  TRP7       -0.2442
     10  CE2      -20.4350   16.4230  -19.8130 C.ar    7  TRP7        0.0810
     11  CE3      -20.8170   14.7940  -18.0740 C.ar    7  TRP7        0.0012
     12  CZ2      -21.1260   17.4060  -19.1070 C.ar    7  TRP7        0.0191
     13  CZ3      -21.4810   15.7700  -17.3700 C.ar    7  TRP7        0.0001
     14  CH2      -21.6220   17.0630  -17.8830 C.ar    7  TRP7        0.0015
     15  N        -18.2660   22.6290   -5.5340 N.3    52  LYS52      -0.1245
     16  CA       -18.0440   21.7650   -6.6880 C.3    52  LYS52       0.1561
     17  C        -16.5880   21.3660   -6.6680 C.2    52  LYS52       0.2260
     18  O        -15.7130   22.2040   -6.8320 O.2    52  LYS52      -0.2867
     19  CB       -18.3550   22.5310   -7.9760 C.3    52  LYS52       0.0271
     20  CG       -18.4000   21.6630   -9.2350 C.3    52  LYS52       0.0035
     21  CD       -18.8430   22.4820  -10.4800 C.3    52  LYS52       0.0206
     22  CE       -17.8320   23.5330  -10.8630 C.3    52  LYS52       0.1093
     23  NZ       -18.2720   24.3850  -11.9990 N.3    52  LYS52      -0.1314
     24  N        -15.1660   18.7720  -12.1600 N.3    55  ASP55      -0.1225
     25  CA       -16.0950   18.7920  -13.2900 C.3    55  ASP55       0.1790
     26  C        -15.3240   18.3410  -14.5300 C.2    55  ASP55       0.2440
     27  O        -14.1370   18.0780  -14.4660 O.2    55  ASP55      -0.2733
     28  CB       -16.7900   20.1640  -13.4160 C.3    55  ASP55       0.1423
     29  CG       -15.8600   21.2910  -13.8280 C.2    55  ASP55       0.3668
     30  OD1      -14.8880   21.0600  -14.5770 O.co2  55  ASP55      -0.2456
     31  OD2      -16.1720   22.4420  -13.4060 O.co2  55  ASP55      -0.2456
     32  N        -16.0050   18.1990  -15.6650 N.am   56  PRO56      -0.2718
     33  CA       -15.3220   17.6080  -16.8250 C.3    56  PRO56       0.1535
     34  C        -14.2010   18.4470  -17.4280 C.2    56  PRO56       0.2599
     35  O        -13.5290   17.9590  -18.3240 O.2    56  PRO56      -0.2715
     36  CB       -16.4480   17.4350  -17.8380 C.3    56  PRO56       0.0310
     37  CG       -17.6650   17.3260  -17.0050 C.3    56  PRO56       0.0237
     38  CD       -17.4530   18.2570  -15.8810 C.3    56  PRO56       0.0939
     39  N        -14.0010   19.6680  -16.9500 N.am   57  SER57      -0.1950
     40  CA       -12.8380   20.4520  -17.3570 C.3    57  SER57       0.1924
     41  C        -11.5150   19.9500  -16.7870 C.2    57  SER57       0.2314
     42  O        -10.4600   20.3500  -17.2320 O.2    57  SER57      -0.2863
     43  CB       -12.9620   21.9070  -16.9250 C.3    57  SER57       0.2116
     44  OG       -12.7470   22.0540  -15.5290 O.3    57  SER57      -0.2180
     45  N        -25.1510   26.3720   -4.7240 N.3    80  PHE80      -0.1241
     46  CA       -25.2460   25.2710   -5.6540 C.3    80  PHE80       0.1605
     47  C        -24.3210   24.1830   -5.0840 C.2    80  PHE80       0.2264
     48  O        -23.1730   24.4670   -4.7040 O.2    80  PHE80      -0.2867
     49  CB       -24.7920   25.8720   -6.9950 C.3    80  PHE80       0.0534
     50  CG       -24.2970   24.9090   -8.0370 C.ar   80  PHE80      -0.0203
     51  CD1      -23.1760   24.1000   -7.8440 C.ar   80  PHE80      -0.0042
     52  CD2      -24.8660   24.9550   -9.2790 C.ar   80  PHE80      -0.0042
     53  CE1      -22.6980   23.2940   -8.8770 C.ar   80  PHE80      -0.0003
     54  CE2      -24.3800   24.1820  -10.3210 C.ar   80  PHE80      -0.0003
     55  CZ       -23.3000   23.3380  -10.1070 C.ar   80  PHE80      -0.0000
     56  N        -18.2260   14.9160  -10.9990 N.3    88  PHE88      -0.1241
     57  CA       -18.2360   16.1010  -10.1410 C.3    88  PHE88       0.1605
     58  C        -17.7460   15.8170   -8.7290 C.2    88  PHE88       0.2264
     59  O        -17.5840   16.7360   -7.9340 O.2    88  PHE88      -0.2867
     60  CB       -19.6230   16.7530  -10.1410 C.3    88  PHE88       0.0534
     61  CG       -19.9880   17.3860  -11.4660 C.ar   88  PHE88      -0.0203
     62  CD1      -20.4690   16.6140  -12.4960 C.ar   88  PHE88      -0.0042
     63  CD2      -19.8130   18.7420  -11.6770 C.ar   88  PHE88      -0.0042
     64  CE1      -20.7940   17.1720  -13.7260 C.ar   88  PHE88      -0.0003
     65  CE2      -20.1210   19.3200  -12.9120 C.ar   88  PHE88      -0.0003
     66  CZ       -20.6320   18.5180  -13.9320 C.ar   88  PHE88      -0.0000
     67  N        -27.3880   20.2720   -7.6570 N.3   109  TYR109     -0.1241
     68  CA       -26.9690   20.1520   -9.0460 C.3   109  TYR109      0.1605
     69  C        -26.5700   18.7170   -9.3390 C.2   109  TYR109      0.2264
     70  O        -25.6050   18.1990   -8.7910 O.2   109  TYR109     -0.2867
     71  CB       -25.8160   21.0870   -9.3650 C.3   109  TYR109      0.0534
     72  CG       -25.3730   20.9710  -10.8210 C.ar  109  TYR109     -0.0201
     73  CD1      -26.1040   21.5450  -11.8580 C.ar  109  TYR109     -0.0009
     74  CD2      -24.2180   20.2600  -11.1440 C.ar  109  TYR109     -0.0009
     75  CE1      -25.6860   21.4120  -13.1690 C.ar  109  TYR109      0.0417
     76  CE2      -23.7800   20.1270  -12.4450 C.ar  109  TYR109      0.0417
     77  CZ       -24.5120   20.7070  -13.4580 C.ar  109  TYR109      0.1957
     78  OH       -24.0430   20.5670  -14.7580 O.3   109  TYR109     -0.2866
     79  N        -20.7110   27.6390  -20.8660 N.3   181  ARG181     -0.1231
     80  CA       -19.9260   26.5580  -21.4450 C.3   181  ARG181      0.1694
     81  C        -20.7420   25.6040  -22.2970 C.2   181  ARG181      0.2592
     82  O        -21.8340   25.1740  -21.9320 O.2   181  ARG181     -0.2718
     83  CB       -19.2760   25.7170  -20.3860 C.3   181  ARG181      0.0321
     84  CG       -18.1560   26.3440  -19.6170 C.3   181  ARG181      0.0489
     85  CD       -17.6380   25.2470  -18.7670 C.3   181  ARG181      0.2205
     86  NE       -16.4900   25.4540  -17.9060 N.pl3 181  ARG181     -0.0865
     87  CZ       -15.2210   25.1670  -18.2000 C.cat 181  ARG181      0.5346
     88  NH1      -14.8430   24.8090  -19.4140 N.pl3 181  ARG181      0.1354
     89  NH2      -14.3230   25.2530  -17.2390 N.pl3 181  ARG181      0.1354
     90  N        -20.2000   25.2500  -23.4500 N.am  182  ASP182     -0.1960
     91  CA       -20.8040   24.2250  -24.2860 C.3   182  ASP182      0.1840
     92  C        -20.7020   22.8570  -23.6020 C.2   182  ASP182      0.2622
     93  O        -19.6380   22.5080  -23.1150 O.2   182  ASP182     -0.2715
     94  CB       -20.0740   24.1860  -25.6280 C.3   182  ASP182      0.1450
     95  CG       -20.6980   23.2140  -26.5930 C.2   182  ASP182      0.3671
     96  OD1      -21.6250   23.6290  -27.3190 O.co2 182  ASP182     -0.2456
     97  OD2      -20.2570   22.0460  -26.6380 O.co2 182  ASP182     -0.2456
     98  N        -21.7710   22.0630  -23.6100 N.am  183  TRP183     -0.1960
     99  CA       -21.7590   20.8170  -22.8270 C.3   183  TRP183      0.1771
    100  C        -20.7210   19.8120  -23.3160 C.2   183  TRP183      0.2620
    101  O        -20.1520   19.0570  -22.5220 O.2   183  TRP183     -0.2715
    102  CB       -23.1400   20.1370  -22.7980 C.3   183  TRP183      0.0590
    103  CG       -23.5480   19.5570  -24.1080 C.ar  183  TRP183      0.0006
    104  CD1      -24.3150   20.1580  -25.0630 C.ar  183  TRP183      0.0946
    105  CD2      -23.2090   18.2600  -24.6220 C.ar  183  TRP183      0.0152
    106  NE1      -24.4800   19.3180  -26.1350 N.ar  183  TRP183     -0.2442
    107  CE2      -23.8070   18.1440  -25.8920 C.ar  183  TRP183      0.0810
    108  CE3      -22.4510   17.1840  -24.1340 C.ar  183  TRP183      0.0012
    109  CZ2      -23.6810   17.0030  -26.6820 C.ar  183  TRP183      0.0191
    110  CZ3      -22.3260   16.0460  -24.9190 C.ar  183  TRP183      0.0001
    111  CH2      -22.9350   15.9660  -26.1790 C.ar  183  TRP183      0.0015
    112  N        -20.4680   19.8060  -24.6220 N.am  184  GLU184     -0.1963
    113  CA       -19.6020   18.7940  -25.2200 C.3   184  GLU184      0.1733
    114  C        -18.1370   19.2080  -25.2510 C.2   184  GLU184      0.2617
    115  O        -17.2520   18.3850  -25.0460 O.2   184  GLU184     -0.2715
    116  CB       -20.0750   18.4640  -26.6410 C.3   184  GLU184      0.0429
    117  CG       -19.3370   17.2990  -27.2890 C.3   184  GLU184      0.1163
    118  CD       -19.8930   16.9370  -28.6580 C.2   184  GLU184      0.3649
    119  OE1      -20.9360   17.5080  -29.0510 O.co2 184  GLU184     -0.2457
    120  OE2      -19.2860   16.0810  -29.3400 O.co2 184  GLU184     -0.2457
    121  N        -17.8670   20.4800  -25.5050 N.am  185  THR185     -0.1937
    122  CA       -16.4920   20.9170  -25.6350 C.3   185  THR185      0.2028
    123  C        -15.9800   21.7100  -24.4380 C.2   185  THR185      0.2642
    124  O        -14.7670   21.8310  -24.2750 O.2   185  THR185     -0.2714
    125  CB       -16.3220   21.8080  -26.8560 C.3   185  THR185      0.1808
    126  OG1      -17.0200   23.0250  -26.6250 O.3   185  THR185     -0.2208
    127  CG2      -16.8370   21.1170  -28.1250 C.3   185  THR185      0.0379
    128  N        -16.8930   22.2620  -23.6290 N.am  186  GLY186     -0.1954
    129  CA       -16.5250   23.1490  -22.5370 C.3   186  GLY186      0.1869
    130  C        -16.2120   24.5820  -22.9480 C.2   186  GLY186      0.2309
    131  O        -15.9300   25.4210  -22.1110 O.2   186  GLY186     -0.2863
    132  N        -25.0770   31.6300  -15.8890 N.3   209  LYS209     -0.1231
    133  CA       -24.2990   30.5110  -15.3310 C.3   209  LYS209      0.1693
    134  C        -22.8850   30.5140  -15.9010 C.2   209  LYS209      0.2591
    135  O        -22.6420   30.1720  -17.0680 O.2   209  LYS209     -0.2718
    136  CB       -25.0160   29.1750  -15.5720 C.3   209  LYS209      0.0285
    137  CG       -24.1990   27.9950  -14.9890 C.3   209  LYS209      0.0035
    138  CD       -25.0180   26.6840  -15.0240 C.3   209  LYS209      0.0206
    139  CE       -24.2850   25.4600  -14.4040 C.3   209  LYS209      0.1093
    140  NZ       -23.1010   25.0060  -15.1520 N.3   209  LYS209     -0.1314
    141  N        -21.9560   30.9190  -15.0380 N.am  210  GLU210     -0.1979
    142  CA       -20.5220   30.9090  -15.3000 C.3   210  GLU210      0.1602
    143  C        -20.0900   31.8850  -16.4180 C.2   210  GLU210      0.2287
    144  O        -20.8970   32.6450  -16.9760 O.2   210  GLU210     -0.2864
    145  CB       -20.0660   29.4650  -15.5080 C.3   210  GLU210      0.0415
    146  CG       -20.2610   28.6330  -14.2070 C.3   210  GLU210      0.1163
    147  CD       -20.6810   27.1770  -14.4020 C.2   210  GLU210      0.3649
    148  OE1      -20.9480   26.7530  -15.5380 O.co2 210  GLU210     -0.2457
    149  OE2      -20.7920   26.4330  -13.4090 O.co2 210  GLU210     -0.2457
@<TRIPOS>BOND
     1   120   118   ar
     2   119   118   ar
     3   118   117    1
     4   127   125    1
     5    96    95   ar
     6   117   116    1
     7   125   126    1
     8   125   122    1
     9   109   111   ar
    10   109   107   ar
    11   116   113    1
    12    97    95   ar
    13    95    94    1
    14   111   110   ar
    15   106   107   ar
    16   106   104   ar
    17   107   105   ar
    18   122   121    1
    19   122   123    1
    20    94    91    1
    21   121   114   am
    22   114   113    1
    23   114   115    2
    24   113   112    1
    25   104   103   ar
    26   110   108   ar
    27   112   100   am
    28   105   108   ar
    29   105   103   ar
    30   123   124    2
    31   123   128   am
    32    91    92    1
    33    91    90    1
    34   103   102    1
    35   128   129    1
    36    98    92   am
    37    98    99    1
    38    92    93    2
    39    90    81   am
    40   100    99    1
    41   100   101    2
    42   130   129    1
    43   130   131    2
    44    99   102    1
    45    81    82    2
    46    81    80    1
    47     1     2    1
    48    80    79    1
    49    80    83    1
    50     7     9   ar
    51     7     6   ar
    52     9    10   ar
    53     2     3    1
    54     2     5    1
    55    83    84    1
    56     6     5    1
    57     6     8   ar
    58     3     4    2
    59    10     8   ar
    60    10    12   ar
    61    84    85    1
    62    88    87    1
    63     8    11   ar
    64    12    14   ar
    65    85    86    1
    66    35    34    2
    67    87    86    2
    68    87    89    1
    69    11    13   ar
    70    14    13   ar
    71    36    37    1
    72    36    33    1
    73    34    39   am
    74    34    33    1
    75    40    39    1
    76    40    43    1
    77    40    41    1
    78    42    41    2
    79   135   134    2
    80    37    38    1
    81   144   143    2
    82    43    44    1
    83    33    32    1
    84   143   142    1
    85   134   133    1
    86   134   141   am
    87   132   133    1
    88    38    32    1
    89    32    26   am
    90   136   133    1
    91   136   137    1
    92   148   147   ar
    93   145   142    1
    94   145   146    1
    95   142   141    1
    96   140   139    1
    97   138   137    1
    98   138   139    1
    99    78    77    1
   100    30    29   ar
   101    26    27    2
   102    26    25    1
   103   147   146    1
   104   147   149   ar
   105    66    64   ar
   106    66    65   ar
   107    29    28    1
   108    29    31   ar
   109    64    62   ar
   110    77    75   ar
   111    77    76   ar
   112    28    25    1
   113    25    24    1
   114    75    73   ar
   115    65    63   ar
   116    62    61   ar
   117    76    74   ar
   118    23    22    1
   119    73    72   ar
   120    63    61   ar
   121    61    60    1
   122    74    72   ar
   123    56    57    1
   124    22    21    1
   125    72    71    1
   126    21    20    1
   127    54    55   ar
   128    54    52   ar
   129    60    57    1
   130    57    58    1
   131    55    53   ar
   132    71    68    1
   133    69    68    1
   134    69    70    2
   135    52    50   ar
   136    20    19    1
   137    68    67    1
   138    53    51   ar
   139    58    59    2
   140    50    51   ar
   141    50    49    1
   142    19    16    1
   143    49    46    1
   144    18    17    2
   145    16    17    1
   146    16    15    1
   147    46    47    1
   148    46    45    1
   149    47    48    2
