@<TRIPOS>MOLECULE
tmp/4ou5A00.pdb
 107 101 0 0 0
SMALL
GASTEIGER

@<TRIPOS>ATOM
      1  N        122.7760   10.3120   25.1590 N.3    26  LEU26      -0.1245
      2  CA       122.7170    8.8560   25.0280 C.3    26  LEU26       0.1561
      3  C        124.1170    8.2450   24.9460 C.2    26  LEU26       0.2260
      4  O        124.3950    7.2170   25.5590 O.2    26  LEU26      -0.2867
      5  CB       121.8940    8.4700   23.7920 C.3    26  LEU26       0.0270
      6  CG       121.5200    6.9920   23.6670 C.3    26  LEU26       0.0019
      7  CD1      120.4490    6.6100   24.6870 C.3    26  LEU26       0.0001
      8  CD2      121.0660    6.6720   22.2570 C.3    26  LEU26       0.0001
      9  N        117.0030    3.0030   27.6830 N.3    37  VAL37      -0.1231
     10  CA       116.3070    4.2470   27.3420 C.3    37  VAL37       0.1692
     11  C        115.2440    3.9700   26.2850 C.2    37  VAL37       0.2591
     12  O        114.0870    4.3510   26.4430 O.2    37  VAL37      -0.2718
     13  CB       117.2650    5.3430   26.8200 C.3    37  VAL37       0.0266
     14  CG1      116.4730    6.5390   26.3280 C.3    37  VAL37       0.0020
     15  CG2      118.2370    5.7610   27.8980 C.3    37  VAL37       0.0020
     16  N        115.6480    3.2790   25.2220 N.am   38  LEU38      -0.1980
     17  CA       114.7340    2.9170   24.1490 C.3    38  LEU38       0.1596
     18  C        113.6510    1.9780   24.6620 C.2    38  LEU38       0.2287
     19  O        112.4780    2.1700   24.3780 O.2    38  LEU38      -0.2864
     20  CB       115.4920    2.2590   22.9870 C.3    38  LEU38       0.0297
     21  CG       114.6490    1.7350   21.8120 C.3    38  LEU38       0.0022
     22  CD1      113.8570    2.8600   21.1390 C.3    38  LEU38       0.0001
     23  CD2      115.5340    1.0140   20.7870 C.3    38  LEU38       0.0001
     24  N        118.6660    1.2600   15.7940 N.3    89  GLY89      -0.1225
     25  CA       119.1800    1.4280   17.1400 C.3    89  GLY89       0.1811
     26  C        120.6820    1.6830   17.1750 C.2    89  GLY89       0.2280
     27  O        121.3230    1.5180   18.2150 O.2    89  GLY89      -0.2866
     28  N        121.8170   -0.2600   20.1770 N.3    93  LEU93      -0.1245
     29  CA       120.4850   -0.3990   20.7610 C.3    93  LEU93       0.1561
     30  C        119.5540   -1.2180   19.8800 C.2    93  LEU93       0.2260
     31  O        119.9070   -1.6230   18.7660 O.2    93  LEU93      -0.2867
     32  CB       119.8270    0.9730   20.9860 C.3    93  LEU93       0.0270
     33  CG       120.3480    2.0740   21.8990 C.3    93  LEU93       0.0019
     34  CD1      121.5760    2.7430   21.3300 C.3    93  LEU93       0.0001
     35  CD2      119.2260    3.0910   22.0570 C.3    93  LEU93       0.0001
     36  N        116.5910   15.0910   18.0520 N.3   209  PHE209     -0.1227
     37  CA       116.5370   13.7180   18.5770 C.3   209  PHE209      0.1736
     38  C        117.7740   12.8900   18.2590 C.2   209  PHE209      0.2595
     39  O        118.5000   12.5020   19.1780 O.2   209  PHE209     -0.2718
     40  CB       115.2930   12.9670   18.0850 C.3   209  PHE209      0.0547
     41  CG       115.0620   11.6680   18.8050 C.ar  209  PHE209     -0.0202
     42  CD1      114.4770   11.6560   20.0580 C.ar  209  PHE209     -0.0042
     43  CD2      115.4560   10.4660   18.2460 C.ar  209  PHE209     -0.0042
     44  CE1      114.2770   10.4630   20.7410 C.ar  209  PHE209     -0.0003
     45  CE2      115.2520    9.2690   18.9200 C.ar  209  PHE209     -0.0003
     46  CZ       114.6610    9.2700   20.1680 C.ar  209  PHE209     -0.0000
     47  N        117.9940   12.5770   16.9820 N.am  210  LEU210     -0.1980
     48  CA       119.2420   11.9330   16.5740 C.3   210  LEU210      0.1596
     49  C        120.3060   13.0050   16.3900 C.2   210  LEU210      0.2287
     50  O        120.1670   13.8770   15.5340 O.2   210  LEU210     -0.2864
     51  CB       119.0690   11.1420   15.2750 C.3   210  LEU210      0.0297
     52  CG       120.3650   10.5300   14.7320 C.3   210  LEU210      0.0022
     53  CD1      120.9290    9.5030   15.7130 C.3   210  LEU210      0.0001
     54  CD2      120.1480    9.8980   13.3510 C.3   210  LEU210      0.0001
     55  N        125.5740   11.1220   18.6880 N.3   214  MET214     -0.1245
     56  CA       125.0340    9.7710   18.6710 C.3   214  MET214      0.1570
     57  C        125.5550    8.9640   17.4850 C.2   214  MET214      0.2261
     58  O        126.0300    7.8470   17.6600 O.2   214  MET214     -0.2867
     59  CB       123.5050    9.8090   18.6490 C.3   214  MET214      0.0387
     60  CG       122.9230   10.2510   19.9800 C.3   214  MET214      0.0595
     61  SD       121.2120   10.8100   19.9000 S.3   214  MET214     -0.1393
     62  CE       120.4080    9.2690   19.5130 C.3   214  MET214      0.0692
     63  N        127.6700    5.5880   17.5380 N.3   218  PHE218     -0.1241
     64  CA       127.1180    4.3820   16.9340 C.3   218  PHE218      0.1605
     65  C        128.1600    3.7280   16.0270 C.2   218  PHE218      0.2264
     66  O        128.4630    2.5440   16.1700 O.2   218  PHE218     -0.2867
     67  CB       125.8410    4.7050   16.1340 C.3   218  PHE218      0.0534
     68  CG       124.6490    5.0530   16.9890 C.ar  218  PHE218     -0.0203
     69  CD1      124.5620    4.6120   18.3020 C.ar  218  PHE218     -0.0042
     70  CD2      123.6080    5.8220   16.4750 C.ar  218  PHE218     -0.0042
     71  CE1      123.4530    4.9240   19.0850 C.ar  218  PHE218     -0.0003
     72  CE2      122.5030    6.1350   17.2520 C.ar  218  PHE218     -0.0003
     73  CZ       122.4310    5.6890   18.5600 C.ar  218  PHE218     -0.0000
     74  N        114.2830   11.8360   12.3920 N.3   288  HIS288     -0.1226
     75  CA       114.8040   10.4820   12.2650 C.3   288  HIS288      0.1752
     76  C        113.9560    9.4470   13.0110 C.2   288  HIS288      0.2596
     77  O        113.4810    9.7240   14.1070 O.2   288  HIS288     -0.2718
     78  CB       116.2230   10.4350   12.8100 C.3   288  HIS288      0.0759
     79  CG       116.8590    9.0900   12.7020 C.ar  288  HIS288      0.0818
     80  ND1      117.4120    8.6250   11.5290 N.ar  288  HIS288     -0.2268
     81  CD2      117.0290    8.1080   13.6180 C.ar  288  HIS288      0.1154
     82  CE1      117.8980    7.4110   11.7300 C.ar  288  HIS288      0.1986
     83  NE2      117.6880    7.0800   12.9900 N.ar  288  HIS288     -0.2212
     84  N        113.7720    8.2710   12.4160 N.am  289  ASP289     -0.1974
     85  CA       113.0850    7.1640   13.0990 C.3   289  ASP289      0.1709
     86  C        111.6280    7.4850   13.4440 C.2   289  ASP289      0.2293
     87  O        111.1120    6.9640   14.4320 O.2   289  ASP289     -0.2864
     88  CB       113.8350    6.7770   14.3990 C.3   289  ASP289      0.1436
     89  CG       114.6580    5.4880   14.2730 C.2   289  ASP289      0.3671
     90  OD1      114.3100    4.5980   13.4640 O.co2 289  ASP289     -0.2456
     91  OD2      115.6510    5.3530   15.0290 O.co2 289  ASP289     -0.2456
     92  N        109.6590    4.4320   13.9840 N.3   292  LEU292     -0.1231
     93  CA       110.0060    3.5990   15.1310 C.3   292  LEU292      0.1693
     94  C        109.3800    4.1120   16.4220 C.2   292  LEU292      0.2591
     95  O        108.7700    3.3490   17.1780 O.2   292  LEU292     -0.2718
     96  CB       111.5260    3.5310   15.3090 C.3   292  LEU292      0.0284
     97  CG       112.0310    2.9760   16.6490 C.3   292  LEU292      0.0019
     98  CD1      111.6400    1.5030   16.8170 C.3   292  LEU292      0.0001
     99  CD2      113.5460    3.1640   16.7800 C.3   292  LEU292      0.0001
    100  N        109.5610    5.4030   16.6850 N.am  293  LEU293     -0.1980
    101  CA       109.2850    5.9470   18.0200 C.3   293  LEU293      0.1596
    102  C        107.7900    5.8840   18.3480 C.2   293  LEU293      0.2287
    103  O        106.9540    6.4830   17.6660 O.2   293  LEU293     -0.2864
    104  CB       109.8080    7.3790   18.1260 C.3   293  LEU293      0.0297
    105  CG       111.2790    7.6160   17.7330 C.3   293  LEU293      0.0022
    106  CD1      111.6480    9.0940   17.8580 C.3   293  LEU293      0.0001
    107  CD2      112.2330    6.7650   18.5870 C.3   293  LEU293      0.0001
@<TRIPOS>BOND
     1    80    82   ar
     2    80    79   ar
     3    82    83   ar
     4    75    74    1
     5    75    78    1
     6    75    76    1
     7    84    76   am
     8    84    85    1
     9    79    78    1
    10    79    81   ar
    11    83    81   ar
    12    76    77    2
    13    85    86    1
    14    85    88    1
    15    54    52    1
    16    86    87    2
    17    90    89   ar
    18    92    93    1
    19    89    88    1
    20    89    91   ar
    21    52    51    1
    22    52    53    1
    23    93    96    1
    24    93    94    1
    25    51    48    1
    26    96    97    1
    27    50    49    2
    28    24    25    1
    29    65    66    2
    30    65    64    1
    31    67    64    1
    32    67    68    1
    33    49    48    1
    34    94   100   am
    35    94    95    2
    36    70    68   ar
    37    70    72   ar
    38    48    47    1
    39    97    99    1
    40    97    98    1
    41   100   101    1
    42    64    63    1
    43    47    38   am
    44    68    69   ar
    45    25    26    1
    46    26    27    2
    47    72    73   ar
    48    57    58    2
    49    57    56    1
    50   103   102    2
    51   105   106    1
    52   105   104    1
    53   105   107    1
    54   101   104    1
    55   101   102    1
    56    36    37    1
    57    40    37    1
    58    40    41    1
    59    43    41   ar
    60    43    45   ar
    61    38    37    1
    62    38    39    2
    63    69    71   ar
    64    73    71   ar
    65    59    56    1
    66    59    60    1
    67    56    55    1
    68    31    30    2
    69    41    42   ar
    70    45    46   ar
    71    62    61    1
    72    30    29    1
    73    61    60    1
    74    42    44   ar
    75    46    44   ar
    76    28    29    1
    77    29    32    1
    78    23    21    1
    79    32    33    1
    80    22    21    1
    81    34    33    1
    82    21    20    1
    83    33    35    1
    84     8     6    1
    85    20    17    1
    86     6     5    1
    87     6     7    1
    88     5     2    1
    89    17    18    1
    90    17    16    1
    91    19    18    2
    92     3     2    1
    93     3     4    2
    94     2     1    1
    95    16    11   am
    96    11    12    2
    97    11    10    1
    98    14    13    1
    99    13    10    1
   100    13    15    1
   101    10     9    1
