@<TRIPOS>MOLECULE
tmp/4oucA00.pdb
 183 175 0 0 0
SMALL
GASTEIGER

@<TRIPOS>ATOM
      1  N         33.4970   43.7090   13.7770 N.3    23  GLU23      -0.1231
      2  CA        33.3700   43.9950   12.3920 C.3    23  GLU23       0.1699
      3  C         34.3770   45.0580   11.9740 C.2    23  GLU23       0.2593
      4  O         34.9930   45.7080   12.8030 O.2    23  GLU23      -0.2718
      5  CB        31.9600   44.5350   12.0940 C.3    23  GLU23       0.0402
      6  CG        31.6500   45.8800   12.7750 C.3    23  GLU23       0.1161
      7  CD        30.2580   46.3830   12.4800 C.2    23  GLU23       0.3649
      8  OE1       29.3110   45.5580   12.2700 O.co2  23  GLU23      -0.2457
      9  OE2       30.0780   47.6260   12.5340 O.co2  23  GLU23      -0.2457
     10  N         34.5360   45.1910   10.6750 N.am   24  GLY24      -0.1942
     11  CA        35.2350   46.3330   10.0770 C.3    24  GLY24       0.2014
     12  C         34.8430   46.3900    8.6160 C.2    24  GLY24       0.2638
     13  O         34.0520   45.5800    8.1330 O.2    24  GLY24      -0.2714
     14  N         35.4080   47.3360    7.8840 N.am   25  VAL25      -0.1977
     15  CA        35.1890   47.3500    6.4690 C.3    25  VAL25       0.1596
     16  C         35.4850   45.9630    5.8460 C.2    25  VAL25       0.2287
     17  O         34.8660   45.5890    4.8800 O.2    25  VAL25      -0.2864
     18  CB        36.0180   48.4550    5.7920 C.3    25  VAL25       0.0276
     19  CG1       36.0310   48.2630    4.2820 C.3    25  VAL25       0.0022
     20  CG2       35.4710   49.8520    6.1340 C.3    25  VAL25       0.0022
     21  N         30.5710   47.0760    2.3920 N.3    53  ASN53      -0.1240
     22  CA        30.8260   48.0600    3.4320 C.3    53  ASN53       0.1653
     23  C         31.4630   49.3300    2.8690 C.2    53  ASN53       0.2266
     24  O         32.3720   49.9050    3.4610 O.2    53  ASN53      -0.2867
     25  CB        31.6790   47.4480    4.5610 C.3    53  ASN53       0.1155
     26  CG        31.0780   46.1620    5.1030 C.2    53  ASN53       0.2627
     27  OD1       29.8640   45.9980    5.1300 O.2    53  ASN53      -0.2716
     28  ND2       31.9180   45.2230    5.4410 N.am   53  ASN53      -0.0877
     29  N         25.3160   48.0370   13.8540 N.3   117  SER117     -0.1202
     30  CA        26.4190   47.7200   12.9430 C.3   117  SER117      0.2020
     31  C         26.6240   48.8730   11.9880 C.2   117  SER117      0.2619
     32  O         25.6450   49.4920   11.5360 O.2   117  SER117     -0.2717
     33  CB        26.1300   46.4440   12.1580 C.3   117  SER117      0.2103
     34  OG        27.0910   46.1850   11.1290 O.3   117  SER117     -0.2182
     35  N         27.8880   49.1240   11.6490 N.am  118  ALA118     -0.1965
     36  CA        28.1840   50.0370   10.5560 C.3   118  ALA118      0.1728
     37  C         28.3440   49.3230    9.1980 C.2   118  ALA118      0.2616
     38  O         28.5730   49.9780    8.1990 O.2   118  ALA118     -0.2715
     39  CB        29.3990   50.8760   10.8770 C.3   118  ALA118      0.0334
     40  N         28.1630   47.9880    9.1550 N.am  119  ASN119     -0.1972
     41  CA        28.2740   47.2180    7.9250 C.3   119  ASN119      0.1688
     42  C         26.9650   46.9540    7.1940 C.2   119  ASN119      0.2292
     43  O         25.9060   47.0350    7.7660 O.2   119  ASN119     -0.2864
     44  CB        28.9240   45.8660    8.2360 C.3   119  ASN119      0.1181
     45  CG        30.4030   45.9790    8.4600 C.2   119  ASN119      0.2629
     46  OD1       30.9540   47.0700    8.4380 O.2   119  ASN119     -0.2716
     47  ND2       31.0500   44.8590    8.6210 N.am  119  ASN119     -0.0877
     48  N         38.2480   49.1810   24.0780 N.3   144  GLU144     -0.1245
     49  CA        37.1170   50.0780   24.0680 C.3   144  GLU144      0.1567
     50  C         35.9570   49.5260   24.9120 C.2   144  GLU144      0.2260
     51  O         35.3760   50.2520   25.7140 O.2   144  GLU144     -0.2867
     52  CB        36.6090   50.3650   22.6460 C.3   144  GLU144      0.0388
     53  CG        35.3490   51.2050   22.6440 C.3   144  GLU144      0.1160
     54  CD        34.9070   51.6420   21.2640 C.2   144  GLU144      0.3649
     55  OE1       35.0760   50.8390   20.3330 O.co2 144  GLU144     -0.2457
     56  OE2       34.3850   52.7890   21.1600 O.co2 144  GLU144     -0.2457
     57  N         47.7330   50.7990   12.8130 N.3   180  ASP180     -0.1239
     58  CA        46.3080   50.9070   12.9550 C.3   180  ASP180      0.1674
     59  C         45.8380   50.4520   14.3420 C.2   180  ASP180      0.2266
     60  O         44.8260   49.7530   14.4510 O.2   180  ASP180     -0.2867
     61  CB        45.6370   50.0910   11.8220 C.3   180  ASP180      0.1410
     62  CG        44.1250   50.2700   11.7690 C.2   180  ASP180      0.3668
     63  OD1       43.6480   51.3820   12.0480 O.co2 180  ASP180     -0.2456
     64  OD2       43.4310   49.2830   11.4570 O.co2 180  ASP180     -0.2456
     65  N         44.2680   51.3170   17.0030 N.3   182  HIS182     -0.1226
     66  CA        43.1760   51.8890   17.7080 C.3   182  HIS182      0.1752
     67  C         42.7070   50.9070   18.7740 C.2   182  HIS182      0.2596
     68  O         43.0960   49.7180   18.7770 O.2   182  HIS182     -0.2718
     69  CB        42.0020   52.3140   16.7470 C.3   182  HIS182      0.0759
     70  CG        41.3560   51.1810   16.0130 C.ar  182  HIS182      0.0818
     71  ND1       40.4790   50.3130   16.6140 N.ar  182  HIS182     -0.2268
     72  CD2       41.3780   50.8390   14.6990 C.ar  182  HIS182      0.1154
     73  CE1       40.0560   49.4250   15.7270 C.ar  182  HIS182      0.1986
     74  NE2       40.5510   49.7600   14.5460 N.ar  182  HIS182     -0.2212
     75  N         41.8670   51.3960   19.6850 N.am  183  TRP183     -0.1962
     76  CA        41.5320   50.5980   20.8660 C.3   183  TRP183      0.1771
     77  C         40.5730   49.4030   20.6380 C.2   183  TRP183      0.2620
     78  O         40.3770   48.6230   21.5460 O.2   183  TRP183     -0.2715
     79  CB        41.0880   51.4680   22.0820 C.3   183  TRP183      0.0590
     80  CG        39.8450   52.3190   21.9060 C.ar  183  TRP183      0.0006
     81  CD1       39.2320   52.6360   20.7550 C.ar  183  TRP183      0.0946
     82  CD2       39.1230   52.9720   22.9470 C.ar  183  TRP183      0.0152
     83  NE1       38.1840   53.4490   20.9970 N.ar  183  TRP183     -0.2442
     84  CE2       38.1170   53.7050   22.3470 C.ar  183  TRP183      0.0810
     85  CE3       39.2710   53.0350   24.3450 C.ar  183  TRP183      0.0012
     86  CZ2       37.1640   54.4530   23.0930 C.ar  183  TRP183      0.0191
     87  CZ3       38.3520   53.7980   25.0800 C.ar  183  TRP183      0.0001
     88  CH2       37.3160   54.4970   24.4420 C.ar  183  TRP183      0.0015
     89  N         40.0330   49.2430   19.4300 N.am  184  GLY184     -0.1954
     90  CA        39.3720   47.9980   19.0200 C.3   184  GLY184      0.1869
     91  C         40.3500   46.8660   18.8050 C.2   184  GLY184      0.2309
     92  O         39.9710   45.6920   18.8050 O.2   184  GLY184     -0.2863
     93  N         44.6750   42.4950   14.2370 N.3   218  ASP218     -0.1239
     94  CA        44.2560   43.1740   12.9970 C.3   218  ASP218      0.1674
     95  C         45.3760   43.8670   12.2360 C.2   218  ASP218      0.2266
     96  O         45.6580   45.0270   12.4370 O.2   218  ASP218     -0.2867
     97  CB        43.0630   44.1200   13.2150 C.3   218  ASP218      0.1410
     98  CG        42.4150   44.5090   11.8960 C.2   218  ASP218      0.3668
     99  OD1       42.9670   44.0950   10.8720 O.co2 218  ASP218     -0.2456
    100  OD2       41.3880   45.2070   11.8610 O.co2 218  ASP218     -0.2456
    101  N         46.5980   46.9730    7.9300 N.3   221  LEU221     -0.1245
    102  CA        47.4280   48.0660    7.4900 C.3   221  LEU221      0.1561
    103  C         48.8850   47.9460    7.8860 C.2   221  LEU221      0.2260
    104  O         49.6330   48.8860    7.7320 O.2   221  LEU221     -0.2867
    105  CB        46.8950   49.3860    8.0370 C.3   221  LEU221      0.0270
    106  CG        45.5060   49.7950    7.5530 C.3   221  LEU221      0.0019
    107  CD1       45.2130   51.2070    8.0050 C.3   221  LEU221      0.0001
    108  CD2       45.3660   49.6700    6.0630 C.3   221  LEU221      0.0001
    109  N         45.1960   56.6980   -0.4110 N.3   238  ASP238     -0.1239
    110  CA        43.9430   56.5530    0.2850 C.3   238  ASP238      0.1674
    111  C         43.6310   57.7960    1.1080 C.2   238  ASP238      0.2266
    112  O         43.8590   57.8240    2.3160 O.2   238  ASP238     -0.2867
    113  CB        43.9710   55.2940    1.1820 C.3   238  ASP238      0.1410
    114  CG        42.5860   54.9290    1.7110 C.2   238  ASP238      0.3668
    115  OD1       41.5950   55.4490    1.1520 O.co2 238  ASP238     -0.2456
    116  OD2       42.4810   54.1280    2.6680 O.co2 238  ASP238     -0.2456
    117  N         40.9140   59.3210    2.3130 N.3   240  ASP240     -0.1225
    118  CA        40.0110   59.2970    3.4650 C.3   240  ASP240      0.1805
    119  C         40.6150   58.6590    4.7090 C.2   240  ASP240      0.2597
    120  O         40.0900   58.8570    5.7760 O.2   240  ASP240     -0.2718
    121  CB        38.6330   58.7090    3.1470 C.3   240  ASP240      0.1424
    122  CG        38.6830   57.2600    2.7510 C.2   240  ASP240      0.3668
    123  OD1       39.7840   56.6510    2.7580 O.co2 240  ASP240     -0.2456
    124  OD2       37.6130   56.7240    2.4220 O.co2 240  ASP240     -0.2456
    125  N         41.7200   57.9260    4.5950 N.am  241  LEU241     -0.1979
    126  CA        42.4190   57.4650    5.7960 C.3   241  LEU241      0.1596
    127  C         42.9140   58.6510    6.6580 C.2   241  LEU241      0.2287
    128  O         43.0710   58.5230    7.8750 O.2   241  LEU241     -0.2864
    129  CB        43.5900   56.5370    5.4500 C.3   241  LEU241      0.0297
    130  CG        44.2510   55.8600    6.6490 C.3   241  LEU241      0.0022
    131  CD1       43.2440   54.9050    7.2690 C.3   241  LEU241      0.0001
    132  CD2       45.5330   55.1410    6.2750 C.3   241  LEU241      0.0001
    133  N         41.6380   62.0120    6.7250 N.3   243  THR243     -0.1203
    134  CA        40.7280   63.1440    6.8770 C.3   243  THR243      0.1994
    135  C         39.7230   62.9830    8.0290 C.2   243  THR243      0.2618
    136  O         38.7750   63.7680    8.1440 O.2   243  THR243     -0.2717
    137  CB        39.9390   63.3440    5.6050 C.3   243  THR243      0.1784
    138  OG1       39.2560   62.1280    5.2950 O.3   243  THR243     -0.2211
    139  CG2       40.8830   63.7170    4.4630 C.3   243  THR243      0.0376
    140  N         39.9170   61.9810    8.8860 N.am  244  GLY244     -0.1942
    141  CA        39.0020   61.8220   10.0230 C.3   244  GLY244      0.2014
    142  C         39.1800   62.9170   11.0750 C.2   244  GLY244      0.2638
    143  O         40.2430   63.5110   11.1850 O.2   244  GLY244     -0.2714
    144  N         38.1370   63.1820   11.8510 N.am  245  ASP245     -0.1971
    145  CA        38.2630   64.0570   12.9990 C.3   245  ASP245      0.1709
    146  C         37.3640   63.5880   14.1410 C.2   245  ASP245      0.2293
    147  O         36.4940   62.7590   13.9280 O.2   245  ASP245     -0.2864
    148  CB        37.9080   65.4910   12.6280 C.3   245  ASP245      0.1436
    149  CG        36.4450   65.7190   12.6280 C.2   245  ASP245      0.3671
    150  OD1       35.7350   64.9490   11.9500 O.co2 245  ASP245     -0.2456
    151  OD2       35.9880   66.6540   13.3200 O.co2 245  ASP245     -0.2456
    152  N         42.7270   59.2880   17.5010 N.3   249  GLN249     -0.1231
    153  CA        43.0180   58.2080   16.5470 C.3   249  GLN249      0.1698
    154  C         43.3100   58.7480   15.1440 C.2   249  GLN249      0.2592
    155  O         44.2650   58.3120   14.4950 O.2   249  GLN249     -0.2718
    156  CB        41.7970   57.2770   16.4440 C.3   249  GLN249      0.0381
    157  CG        42.0020   56.0240   15.6050 C.3   249  GLN249      0.0905
    158  CD        40.7150   55.3230   15.3310 C.2   249  GLN249      0.2608
    159  OE1       39.7880   55.3560   16.1600 O.2   249  GLN249     -0.2717
    160  NE2       40.6160   54.7290   14.1920 N.am  249  GLN249     -0.0878
    161  N         42.4700   59.6830   14.6850 N.am  250  PHE250     -0.1976
    162  CA        42.5170   60.1430   13.2840 C.3   250  PHE250      0.1639
    163  C         43.6950   61.0850   13.0030 C.2   250  PHE250      0.2290
    164  O         44.1610   61.1460   11.8640 O.2   250  PHE250     -0.2864
    165  CB        41.1960   60.7200   12.8870 C.3   250  PHE250      0.0560
    166  CG        40.0520   59.7670   13.1090 C.ar  250  PHE250     -0.0200
    167  CD1       40.0030   58.5470   12.4390 C.ar  250  PHE250     -0.0042
    168  CD2       39.0560   60.0580   14.0190 C.ar  250  PHE250     -0.0042
    169  CE1       38.9690   57.6470   12.6760 C.ar  250  PHE250     -0.0003
    170  CE2       38.0000   59.1680   14.2400 C.ar  250  PHE250     -0.0003
    171  CZ        37.9720   57.9500   13.5660 C.ar  250  PHE250     -0.0000
    172  N         46.9990   58.7760   11.9380 N.3   253  TYR253     -0.1241
    173  CA        47.2410   58.5240   10.5250 C.3   253  TYR253      0.1605
    174  C         47.9690   59.7190    9.8770 C.2   253  TYR253      0.2264
    175  O         48.9550   59.5190    9.1730 O.2   253  TYR253     -0.2867
    176  CB        45.9570   58.1760    9.7670 C.3   253  TYR253      0.0534
    177  CG        45.2030   57.0300   10.4240 C.ar  253  TYR253     -0.0201
    178  CD1       45.6640   55.7180   10.3210 C.ar  253  TYR253     -0.0009
    179  CD2       44.0700   57.2700   11.1640 C.ar  253  TYR253     -0.0009
    180  CE1       44.9940   54.6670   10.9560 C.ar  253  TYR253      0.0417
    181  CE2       43.4050   56.2420   11.8230 C.ar  253  TYR253      0.0417
    182  CZ        43.8770   54.9370   11.7370 C.ar  253  TYR253      0.1957
    183  OH        43.1860   53.9160   12.3740 O.3   253  TYR253     -0.2866
@<TRIPOS>BOND
     1   109   110    1
     2   110   111    1
     3   110   113    1
     4   111   112    2
     5   115   114   ar
     6   113   114    1
     7   114   116   ar
     8   117   118    1
     9    21    22    1
    10   124   122   ar
    11   122   123   ar
    12   122   121    1
    13    23    22    1
    14    23    24    2
    15   121   118    1
    16    22    25    1
    17   118   119    1
    18    19    18    1
    19   139   137    1
    20    25    26    1
    21   125   119   am
    22   125   126    1
    23   119   120    2
    24    17    16    2
    25    26    27    2
    26    26    28   am
    27   138   137    1
    28   129   126    1
    29   129   130    1
    30   137   134    1
    31    18    20    1
    32    18    15    1
    33   126   127    1
    34    16    15    1
    35   108   106    1
    36   132   130    1
    37    15    14    1
    38   130   131    1
    39   127   128    2
    40   133   134    1
    41   134   135    1
    42    42    43    2
    43    42    41    1
    44   102   103    1
    45   102   101    1
    46   102   105    1
    47   106   107    1
    48   106   105    1
    49   104   103    2
    50    14    12   am
    51    41    44    1
    52    41    40    1
    53   135   136    2
    54   135   140   am
    55    13    12    2
    56    38    37    2
    57    44    45    1
    58    46    45    2
    59    45    47   am
    60    12    11    1
    61   140   141    1
    62    40    37   am
    63   175   174    2
    64    37    36    1
    65   176   177    1
    66   176   173    1
    67   174   173    1
    68   141   142    1
    69    11    10    1
    70   178   177   ar
    71   178   180   ar
    72   177   179   ar
    73   173   172    1
    74    36    39    1
    75    36    35    1
    76    10     3   am
    77    99    98   ar
    78   180   182   ar
    79   142   143    2
    80   142   144   am
    81    34    33    1
    82   179   181   ar
    83    64    62   ar
    84    32    31    2
    85    35    31   am
    86   182   181   ar
    87   182   183    1
    88    62    61    1
    89    62    63   ar
    90    61    58    1
    91   144   145    1
    92   100    98   ar
    93   164   163    2
    94    98    97    1
    95   150   149   ar
    96     3     2    1
    97     3     4    2
    98    31    30    1
    99     5     2    1
   100     5     6    1
   101    33    30    1
   102    95    96    2
   103    95    94    1
   104     8     7   ar
   105     2     1    1
   106   167   169   ar
   107   167   166   ar
   108     7     9   ar
   109     7     6    1
   110   149   148    1
   111   149   151   ar
   112   148   145    1
   113   169   171   ar
   114    57    58    1
   115   165   166    1
   116   165   162    1
   117    30    29    1
   118    58    59    1
   119    94    97    1
   120    94    93    1
   121   145   146    1
   122   163   162    1
   123   166   168   ar
   124   162   161    1
   125   171   170   ar
   126   147   146    2
   127   168   170   ar
   128   160   158   am
   129    59    60    2
   130   155   154    2
   131    74    72   ar
   132    74    73   ar
   133   161   154   am
   134    72    70   ar
   135   154   153    1
   136   158   157    1
   137   158   159    2
   138   157   156    1
   139    73    71   ar
   140    70    71   ar
   141    70    69    1
   142   156   153    1
   143   153   152    1
   144    69    66    1
   145    65    66    1
   146    66    67    1
   147    67    68    2
   148    67    75   am
   149    92    91    2
   150    91    90    1
   151    90    89    1
   152    89    77   am
   153    75    76    1
   154    55    54   ar
   155    77    76    1
   156    77    78    2
   157    81    83   ar
   158    81    80   ar
   159    76    79    1
   160    83    84   ar
   161    56    54   ar
   162    54    53    1
   163    80    79    1
   164    80    82   ar
   165    84    82   ar
   166    84    86   ar
   167    53    52    1
   168    52    49    1
   169    82    85   ar
   170    86    88   ar
   171    49    48    1
   172    49    50    1
   173    85    87   ar
   174    88    87   ar
   175    50    51    2
