@<TRIPOS>MOLECULE
tmp/4oudA00.pdb
 138 129 0 0 0
SMALL
GASTEIGER

@<TRIPOS>ATOM
      1  N         74.6710    1.0370   96.7220 N.3    34  TYR34      -0.1241
      2  CA        75.8860    0.7940   95.9810 C.3    34  TYR34       0.1605
      3  C         76.6630    1.9880   95.5710 C.2    34  TYR34       0.2264
      4  O         76.2160    3.1250   95.6530 O.2    34  TYR34      -0.2867
      5  CB        75.6120   -0.0230   94.7450 C.3    34  TYR34       0.0534
      6  CG        75.3010    0.7340   93.4830 C.ar   34  TYR34      -0.0201
      7  CD1       74.0410    1.2960   93.2780 C.ar   34  TYR34      -0.0009
      8  CD2       76.2390    0.8190   92.4560 C.ar   34  TYR34      -0.0009
      9  CE1       73.7180    1.9270   92.0700 C.ar   34  TYR34       0.0417
     10  CE2       75.9410    1.4610   91.2560 C.ar   34  TYR34       0.0417
     11  CZ        74.6730    2.0040   91.0650 C.ar   34  TYR34       0.1957
     12  OH        74.3640    2.6440   89.8960 O.3    34  TYR34      -0.2866
     13  N         79.8020    2.5740   92.3930 N.3    36  GLY36      -0.1210
     14  CA        80.4750    1.8740   91.3350 C.3    36  GLY36       0.1956
     15  C         81.7720    2.5590   91.0460 C.2    36  GLY36       0.2612
     16  O         81.8970    3.7850   91.2160 O.2    36  GLY36      -0.2717
     17  N         82.7370    1.7750   90.5910 N.am   37  PHE37      -0.1962
     18  CA        84.0700    2.3120   90.3240 C.3    37  PHE37       0.1771
     19  C         84.4600    1.8530   88.9480 C.2    37  PHE37       0.2619
     20  O         84.4560    0.6480   88.6590 O.2    37  PHE37      -0.2715
     21  CB        85.0920    1.8200   91.3630 C.3    37  PHE37       0.0574
     22  CG        84.7300    2.1660   92.7740 C.ar   37  PHE37      -0.0200
     23  CD1       83.8600    1.3480   93.5040 C.ar   37  PHE37      -0.0042
     24  CD2       85.2250    3.3210   93.3740 C.ar   37  PHE37      -0.0042
     25  CE1       83.4930    1.6720   94.8140 C.ar   37  PHE37      -0.0003
     26  CE2       84.8640    3.6550   94.6980 C.ar   37  PHE37      -0.0003
     27  CZ        83.9950    2.8270   95.4200 C.ar   37  PHE37      -0.0000
     28  N         84.8000    2.8100   88.0980 N.am   38  ASP38      -0.1971
     29  CA        85.2320    2.4800   86.7430 C.3    38  ASP38       0.1709
     30  C         86.7070    2.1150   86.6440 C.2    38  ASP38       0.2293
     31  O         87.5230    2.6580   87.3650 O.2    38  ASP38      -0.2864
     32  CB        84.9260    3.6190   85.7680 C.3    38  ASP38       0.1436
     33  CG        83.6430    3.3960   85.0360 C.2    38  ASP38       0.3671
     34  OD1       82.8560    2.5030   85.4930 O.co2  38  ASP38      -0.2456
     35  OD2       83.4520    4.1010   84.0100 O.co2  38  ASP38      -0.2456
     36  N         89.4090    2.9570   84.7200 N.3    40  THR40      -0.1218
     37  CA        90.1630    3.9140   83.9120 C.3    40  THR40       0.1862
     38  C         91.6860    3.9130   84.2780 C.2    40  THR40       0.2287
     39  O         92.4820    4.7120   83.7520 O.2    40  THR40      -0.2866
     40  CB        89.5910    5.3320   84.1250 C.3    40  THR40       0.1770
     41  OG1       89.3470    5.5630   85.5260 O.3    40  THR40      -0.2211
     42  CG2       88.3090    5.4800   83.3910 C.3    40  THR40       0.0375
     43  N         89.0140    8.1500   95.6690 N.3    48  HIS48      -0.1241
     44  CA        87.9480    7.1580   95.7470 C.3    48  HIS48       0.1621
     45  C         87.7240    6.6850   97.1440 C.2    48  HIS48       0.2264
     46  O         86.6760    6.1330   97.4520 O.2    48  HIS48      -0.2867
     47  CB        88.2570    5.9700   94.9080 C.3    48  HIS48       0.0745
     48  CG        88.4770    6.2990   93.4820 C.ar   48  HIS48       0.0817
     49  ND1       89.6460    5.9980   92.8380 N.ar   48  HIS48      -0.2268
     50  CD2       87.6950    6.9170   92.5710 C.ar   48  HIS48       0.1154
     51  CE1       89.5750    6.3900   91.5790 C.ar   48  HIS48       0.1986
     52  NE2       88.3970    6.9500   91.3900 N.ar   48  HIS48      -0.2212
     53  N         80.1480   -2.0500   92.6880 N.3    68  LEU68      -0.1245
     54  CA        80.0590   -2.3530   91.2880 C.3    68  LEU68       0.1561
     55  C         81.3500   -1.9360   90.6160 C.2    68  LEU68       0.2260
     56  O         81.8750   -0.8470   90.8820 O.2    68  LEU68      -0.2867
     57  CB        78.8780   -1.6090   90.6900 C.3    68  LEU68       0.0270
     58  CG        78.7030   -1.8120   89.1870 C.3    68  LEU68       0.0019
     59  CD1       77.2380   -2.0850   88.8510 C.3    68  LEU68       0.0001
     60  CD2       79.2140   -0.5940   88.4420 C.3    68  LEU68       0.0001
     61  N         81.1060   -0.0840   81.6260 N.3    73  THR73      -0.1218
     62  CA        81.2680    1.3960   81.6150 C.3    73  THR73       0.1862
     63  C         82.7210    1.8150   81.3110 C.2    73  THR73       0.2287
     64  O         82.9740    2.8420   80.6890 O.2    73  THR73      -0.2866
     65  CB        80.7800    2.0820   82.9470 C.3    73  THR73       0.1770
     66  OG1       81.1270    1.2970   84.0720 O.3    73  THR73      -0.2211
     67  CG2       79.2780    2.2090   83.0170 C.3    73  THR73       0.0375
     68  N         83.2970    7.7720   81.2330 N.3    78  ASP78      -0.1239
     69  CA        82.4500    8.7570   81.8410 C.3    78  ASP78       0.1674
     70  C         82.9470   10.1600   81.4620 C.2    78  ASP78       0.2266
     71  O         84.0110   10.5780   81.8960 O.2    78  ASP78      -0.2867
     72  CB        82.4460    8.5670   83.3380 C.3    78  ASP78       0.1410
     73  CG        81.3460    9.3370   84.0260 C.2    78  ASP78       0.3668
     74  OD1       80.9040   10.3730   83.5050 O.co2  78  ASP78      -0.2456
     75  OD2       80.9250    8.9080   85.1160 O.co2  78  ASP78      -0.2456
     76  N         78.8690   -4.5570   85.9170 N.3   123  ASN123     -0.1240
     77  CA        77.8100   -4.2640   84.9780 C.3   123  ASN123      0.1653
     78  C         78.0400   -4.8520   83.6080 C.2   123  ASN123      0.2266
     79  O         77.1490   -4.8330   82.7810 O.2   123  ASN123     -0.2867
     80  CB        77.5280   -2.7760   84.8860 C.3   123  ASN123      0.1155
     81  CG        78.7380   -1.9690   84.5420 C.2   123  ASN123      0.2627
     82  OD1       79.7350   -2.4900   84.0290 O.2   123  ASN123     -0.2716
     83  ND2       78.6670   -0.6780   84.8130 N.am  123  ASN123     -0.0877
     84  N         76.9340    7.1790   77.9710 N.3   172  TYR172     -0.1241
     85  CA        77.4040    6.7120   79.2680 C.3   172  TYR172      0.1605
     86  C         76.3760    6.8910   80.3560 C.2   172  TYR172      0.2264
     87  O         76.1110    5.9610   81.0880 O.2   172  TYR172     -0.2867
     88  CB        78.7050    7.4080   79.6620 C.3   172  TYR172      0.0534
     89  CG        79.3420    6.8310   80.9030 C.ar  172  TYR172     -0.0201
     90  CD1       78.9350    7.2300   82.1610 C.ar  172  TYR172     -0.0009
     91  CD2       80.3440    5.8830   80.8180 C.ar  172  TYR172     -0.0009
     92  CE1       79.5210    6.7090   83.3100 C.ar  172  TYR172      0.0417
     93  CE2       80.9210    5.3460   81.9510 C.ar  172  TYR172      0.0417
     94  CZ        80.5190    5.7660   83.2000 C.ar  172  TYR172      0.1957
     95  OH        81.1060    5.2340   84.3290 O.3   172  TYR172     -0.2866
     96  N         74.7900    4.0330   83.3840 N.3   176  GLN176     -0.1245
     97  CA        74.8100    4.1720   84.8290 C.3   176  GLN176      0.1566
     98  C         73.3980    4.2750   85.3670 C.2   176  GLN176      0.2260
     99  O         73.0870    3.7990   86.4510 O.2   176  GLN176     -0.2867
    100  CB        75.6240    5.3770   85.2390 C.3   176  GLN176      0.0367
    101  CG        75.9690    5.3580   86.7150 C.3   176  GLN176      0.0905
    102  CD        77.1180    6.2890   87.1010 C.2   176  GLN176      0.2608
    103  OE1       78.0730    6.5100   86.3350 O.2   176  GLN176     -0.2717
    104  NE2       77.0450    6.8160   88.3120 N.am  176  GLN176     -0.0878
    105  N         72.2390    0.6810   85.4460 N.3   179  ASP179     -0.1239
    106  CA        72.9060   -0.0590   86.5380 C.3   179  ASP179      0.1674
    107  C         72.1070    0.0130   87.8150 C.2   179  ASP179      0.2266
    108  O         71.9470   -0.9920   88.4990 O.2   179  ASP179     -0.2867
    109  CB        74.2890    0.4820   86.8380 C.3   179  ASP179      0.1410
    110  CG        75.3140    0.0960   85.8060 C.2   179  ASP179      0.3668
    111  OD1       75.1010   -0.8450   85.0380 O.co2 179  ASP179     -0.2456
    112  OD2       76.3510    0.7710   85.7620 O.co2 179  ASP179     -0.2456
    113  N         72.1840    4.8720   95.8670 N.3   192  GLN192     -0.1245
    114  CA        73.4680    4.9060   95.2130 C.3   192  GLN192      0.1566
    115  C         74.2790    6.0420   95.7860 C.2   192  GLN192      0.2260
    116  O         73.7850    7.1560   95.8230 O.2   192  GLN192     -0.2867
    117  CB        73.3250    5.1230   93.7090 C.3   192  GLN192      0.0367
    118  CG        74.6760    5.0620   93.0050 C.3   192  GLN192      0.0905
    119  CD        74.6140    5.2600   91.5130 C.2   192  GLN192      0.2608
    120  OE1       73.5520    5.2250   90.9250 O.2   192  GLN192     -0.2717
    121  NE2       75.7720    5.4640   90.8930 N.am  192  GLN192     -0.0878
    122  N         80.6950   14.7160   91.5260 N.3   197  ASP197     -0.1225
    123  CA        80.6050   14.8410   90.0750 C.3   197  ASP197      0.1805
    124  C         79.6220   13.8500   89.4550 C.2   197  ASP197      0.2597
    125  O         79.4420   13.8620   88.2500 O.2   197  ASP197     -0.2718
    126  CB        81.9990   14.6420   89.4510 C.3   197  ASP197      0.1424
    127  CG        82.6380   13.3050   89.8450 C.2   197  ASP197      0.3668
    128  OD1       82.4610   12.8450   90.9900 O.co2 197  ASP197     -0.2456
    129  OD2       83.3410   12.7110   89.0120 O.co2 197  ASP197     -0.2456
    130  N         79.0150   12.9850   90.2600 N.am  198  GLN198     -0.1979
    131  CA        78.1870   11.9000   89.7550 C.3   198  GLN198      0.1601
    132  C         76.6810   12.1370   89.9650 C.2   198  GLN198      0.2287
    133  O         75.8510   11.2710   89.6440 O.2   198  GLN198     -0.2864
    134  CB        78.5940   10.5620   90.4270 C.3   198  GLN198      0.0394
    135  CG        79.9210    9.9680   89.9560 C.3   198  GLN198      0.0908
    136  CD        79.8850    9.5260   88.5040 C.2   198  GLN198      0.2608
    137  OE1       79.0020    8.7820   88.0970 O.2   198  GLN198     -0.2717
    138  NE2       80.8300   10.0040   87.7120 N.am  198  GLN198     -0.0878
@<TRIPOS>BOND
     1    84    85    1
     2    85    88    1
     3    85    86    1
     4    88    89    1
     5    86    87    2
     6    64    63    2
     7    91    89   ar
     8    91    93   ar
     9    89    90   ar
    10    68    69    1
    11    63    62    1
    12    70    69    1
    13    70    71    2
    14    62    61    1
    15    62    65    1
    16    69    72    1
    17    93    94   ar
    18    90    92   ar
    19    79    78    2
    20    65    67    1
    21    65    66    1
    22    94    92   ar
    23    94    95    1
    24    72    73    1
    25    96    97    1
    26    42    40    1
    27    74    73   ar
    28    78    77    1
    29    39    38    2
    30    37    40    1
    31    37    38    1
    32    37    36    1
    33    35    33   ar
    34    73    75   ar
    35    82    81    2
    36    40    41    1
    37    81    83   am
    38    81    80    1
    39    97   100    1
    40    97    98    1
    41    80    77    1
    42    77    76    1
    43    33    34   ar
    44    33    32    1
    45   111   110   ar
    46   100   101    1
    47    98    99    2
    48   105   106    1
    49   112   110   ar
    50    32    29    1
    51   110   109    1
    52   103   102    2
    53   106   109    1
    54   106   107    1
    55    30    29    1
    56    30    31    2
    57   101   102    1
    58    29    28    1
    59   102   104   am
    60   138   136   am
    61   107   108    2
    62   137   136    2
    63    28    19   am
    64   125   124    2
    65    60    58    1
    66   136   135    1
    67    20    19    2
    68    59    58    1
    69    19    18    1
    70   129   127   ar
    71    58    57    1
    72   126   127    1
    73   126   123    1
    74   124   123    1
    75   124   130   am
    76   133   132    2
    77   131   132    1
    78   131   130    1
    79   131   134    1
    80   127   128   ar
    81    12    11    1
    82   135   134    1
    83   123   122    1
    84    18    17    1
    85    18    21    1
    86    17    15   am
    87    55    56    2
    88    55    54    1
    89    57    54    1
    90   121   119   am
    91   120   119    2
    92    15    16    2
    93    15    14    1
    94    11    10   ar
    95    11     9   ar
    96    10     8   ar
    97    54    53    1
    98    14    13    1
    99    21    22    1
   100    52    51   ar
   101    52    50   ar
   102   119   118    1
   103    51    49   ar
   104     9     7   ar
   105     8     6   ar
   106    50    48   ar
   107    22    24   ar
   108    22    23   ar
   109    49    48   ar
   110   118   117    1
   111     7     6   ar
   112    24    26   ar
   113    48    47    1
   114     6     5    1
   115    23    25   ar
   116   117   114    1
   117    26    27   ar
   118     5     2    1
   119    25    27   ar
   120    47    44    1
   121   114   115    1
   122   114   113    1
   123     3     4    2
   124     3     2    1
   125    43    44    1
   126    44    45    1
   127   115   116    2
   128     2     1    1
   129    45    46    2
