@<TRIPOS>MOLECULE
tmp/4oueB00.pdb
 98 95 0 0 0
SMALL
GASTEIGER

@<TRIPOS>ATOM
      1  N         66.0740    5.0570   20.6680 N.3   163  TRP163     -0.1241
      2  CA        65.7190    5.1210   22.0830 C.3   163  TRP163      0.1605
      3  C         66.9180    4.8290   22.9640 C.2   163  TRP163      0.2264
      4  O         67.5240    3.7510   22.8720 O.2   163  TRP163     -0.2867
      5  CB        64.6280    4.1050   22.3740 C.3   163  TRP163      0.0550
      6  CG        63.5210    4.5780   23.2760 C.ar  163  TRP163      0.0003
      7  CD1       62.4340    5.3260   22.9180 C.ar  163  TRP163      0.0946
      8  CD2       63.3590    4.2770   24.6730 C.ar  163  TRP163      0.0152
      9  NE1       61.6200    5.5260   24.0080 N.ar  163  TRP163     -0.2442
     10  CE2       62.1610    4.8840   25.0960 C.ar  163  TRP163      0.0810
     11  CE3       64.1190    3.5540   25.6060 C.ar  163  TRP163      0.0012
     12  CZ2       61.6970    4.7940   26.4230 C.ar  163  TRP163      0.0191
     13  CZ3       63.6570    3.4630   26.9220 C.ar  163  TRP163      0.0001
     14  CH2       62.4610    4.0880   27.3170 C.ar  163  TRP163      0.0015
     15  N         67.8300    4.2190   26.6100 N.3   165  ASP165     -0.1225
     16  CA        67.4750    3.9000   27.9870 C.3   165  ASP165      0.1805
     17  C         68.6080    4.3560   28.9200 C.2   165  ASP165      0.2598
     18  O         69.7860    4.0850   28.6510 O.2   165  ASP165     -0.2718
     19  CB        67.2750    2.3820   28.1000 C.3   165  ASP165      0.1424
     20  CG        66.4680    1.9830   29.3150 C.2   165  ASP165      0.3668
     21  OD1       66.6220    2.6030   30.3960 O.co2 165  ASP165     -0.2456
     22  OD2       65.6620    1.0380   29.1880 O.co2 165  ASP165     -0.2456
     23  N         68.2710    5.0390   30.0130 N.am  166  GLY166     -0.1942
     24  CA        69.2880    5.5040   30.9550 C.3   166  GLY166      0.2014
     25  C         69.6660    4.5130   32.0470 C.2   166  GLY166      0.2638
     26  O         70.6270    4.7330   32.7920 O.2   166  GLY166     -0.2714
     27  N         68.9120    3.4210   32.1570 N.am  167  ALA167     -0.1977
     28  CA        69.1830    2.4170   33.1740 C.3   167  ALA167      0.1597
     29  C         70.6110    1.8810   33.0570 C.2   167  ALA167      0.2287
     30  O         71.0030    1.3480   32.0110 O.2   167  ALA167     -0.2864
     31  CB        68.1890    1.2790   33.0710 C.3   167  ALA167      0.0319
     32  N         64.9380    9.7300   21.8380 N.3   194  PHE194     -0.1241
     33  CA        64.5980    9.6510   23.2550 C.3   194  PHE194      0.1605
     34  C         65.9010    9.6640   24.0380 C.2   194  PHE194      0.2264
     35  O         66.6690    8.6940   24.0100 O.2   194  PHE194     -0.2867
     36  CB        63.8170    8.3710   23.5450 C.3   194  PHE194      0.0534
     37  CG        63.3470    8.2450   24.9790 C.ar  194  PHE194     -0.0203
     38  CD1       62.1670    8.8390   25.3980 C.ar  194  PHE194     -0.0042
     39  CD2       64.0730    7.5090   25.8970 C.ar  194  PHE194     -0.0042
     40  CE1       61.7280    8.7030   26.7100 C.ar  194  PHE194     -0.0003
     41  CE2       63.6400    7.3740   27.2080 C.ar  194  PHE194     -0.0003
     42  CZ        62.4690    7.9720   27.6120 C.ar  194  PHE194     -0.0000
     43  N         68.2580   10.3000   27.5900 N.3   196  THR196     -0.1203
     44  CA        68.2470   10.2980   29.0450 C.3   196  THR196      0.1994
     45  C         69.6100   10.6830   29.5980 C.2   196  THR196      0.2617
     46  O         70.6170   10.6110   28.8900 O.2   196  THR196     -0.2717
     47  CB        67.8660    8.9060   29.5850 C.3   196  THR196      0.1784
     48  OG1       68.7030    7.9110   28.9650 O.3   196  THR196     -0.2211
     49  CG2       66.3990    8.6010   29.2870 C.3   196  THR196      0.0376
     50  N         69.6230   11.0960   30.8640 N.am  197  LYS197     -0.1979
     51  CA        70.8560   11.3690   31.5960 C.3   197  LYS197      0.1596
     52  C         71.8750   12.1650   30.7870 C.2   197  LYS197      0.2287
     53  O         71.5330   13.2180   30.2350 O.2   197  LYS197     -0.2864
     54  CB        71.4360   10.0620   32.1500 C.3   197  LYS197      0.0298
     55  CG        70.4780    9.3920   33.1440 C.3   197  LYS197      0.0038
     56  CD        70.9910    8.0580   33.6710 C.3   197  LYS197      0.0206
     57  CE        70.0420    7.5320   34.7450 C.3   197  LYS197      0.1093
     58  NZ        70.4080    6.1930   35.3040 N.3   197  LYS197     -0.1314
     59  N         62.1340   11.5120   29.1590 N.3   207  TRP207     -0.1241
     60  CA        61.3600   10.6320   30.0140 C.3   207  TRP207      0.1605
     61  C         60.5340   11.4810   30.9820 C.2   207  TRP207      0.2264
     62  O         60.8690   12.6450   31.2480 O.2   207  TRP207     -0.2867
     63  CB        62.3050    9.7070   30.7770 C.3   207  TRP207      0.0550
     64  CG        61.6010    8.6300   31.5200 C.ar  207  TRP207      0.0003
     65  CD1       60.5360    7.8810   31.0850 C.ar  207  TRP207      0.0946
     66  CD2       61.8980    8.1800   32.8410 C.ar  207  TRP207      0.0152
     67  NE1       60.1610    6.9850   32.0660 N.ar  207  TRP207     -0.2442
     68  CE2       60.9790    7.1540   33.1540 C.ar  207  TRP207      0.0810
     69  CE3       62.8520    8.5520   33.7960 C.ar  207  TRP207      0.0012
     70  CZ2       60.9970    6.4900   34.3810 C.ar  207  TRP207      0.0191
     71  CZ3       62.8680    7.8980   35.0090 C.ar  207  TRP207      0.0001
     72  CH2       61.9530    6.8720   35.2920 C.ar  207  TRP207      0.0015
     73  N         57.0330    4.6690   35.1090 N.3   211  GLU211     -0.1245
     74  CA        56.6290    3.6670   34.1260 C.3   211  GLU211      0.1567
     75  C         55.1930    3.2380   34.3540 C.2   211  GLU211      0.2260
     76  O         54.8170    2.1130   34.0200 O.2   211  GLU211     -0.2867
     77  CB        57.5650    2.4510   34.1680 C.3   211  GLU211      0.0388
     78  CG        58.9730    2.7580   33.6530 C.3   211  GLU211      0.1160
     79  CD        59.9160    1.5530   33.6570 C.2   211  GLU211      0.3649
     80  OE1       59.5990    0.5250   34.2940 O.co2 211  GLU211     -0.2457
     81  OE2       60.9970    1.6410   33.0230 O.co2 211  GLU211     -0.2457
     82  N         68.3750   13.0760   36.6370 N.3   231  GLU231     -0.1245
     83  CA        67.1110   12.3460   36.7280 C.3   231  GLU231      0.1567
     84  C         66.5180   12.1220   38.1320 C.2   231  GLU231      0.2260
     85  O         65.3580   12.4790   38.3960 O.2   231  GLU231     -0.2867
     86  CB        67.3130   11.0000   36.0340 C.3   231  GLU231      0.0388
     87  CG        66.0800   10.3540   35.5130 C.3   231  GLU231      0.1160
     88  CD        66.4140    9.1680   34.6520 C.2   231  GLU231      0.3649
     89  OE1       66.5230    8.0460   35.2040 O.co2 231  GLU231     -0.2457
     90  OE2       66.5730    9.3630   33.4220 O.co2 231  GLU231     -0.2457
     91  N         56.1190    6.0620   28.6440 N.3   254  ASP254     -0.1239
     92  CA        56.2840    4.6420   28.3200 C.3   254  ASP254      0.1674
     93  C         55.6300    3.7400   29.3570 C.2   254  ASP254      0.2266
     94  O         55.7750    3.9600   30.5650 O.2   254  ASP254     -0.2867
     95  CB        57.7710    4.2670   28.1620 C.3   254  ASP254      0.1410
     96  CG        58.5820    4.4740   29.4490 C.2   254  ASP254      0.3668
     97  OD1       58.3620    5.4810   30.1580 O.co2 254  ASP254     -0.2456
     98  OD2       59.4600    3.6270   29.7500 O.co2 254  ASP254     -0.2456
@<TRIPOS>BOND
     1     1     2    1
     2    32    33    1
     3     2     5    1
     4     2     3    1
     5     5     6    1
     6     4     3    2
     7     7     6   ar
     8     7     9   ar
     9    33    36    1
    10    33    34    1
    11     6     8   ar
    12    36    37    1
    13     9    10   ar
    14    35    34    2
    15     8    10   ar
    16     8    11   ar
    17    37    38   ar
    18    37    39   ar
    19    10    12   ar
    20    38    40   ar
    21    11    13   ar
    22    39    41   ar
    23    12    14   ar
    24    15    16    1
    25    40    42   ar
    26    13    14   ar
    27    41    42   ar
    28    43    44    1
    29    16    19    1
    30    16    17    1
    31    19    20    1
    32    95    92    1
    33    95    96    1
    34    92    91    1
    35    92    93    1
    36    18    17    2
    37    46    45    2
    38    17    23   am
    39    48    47    1
    40    44    47    1
    41    44    45    1
    42    59    60    1
    43    22    20   ar
    44    49    47    1
    45    20    21   ar
    46    93    94    2
    47    96    98   ar
    48    96    97   ar
    49    45    50   am
    50    23    24    1
    51    60    63    1
    52    60    61    1
    53    53    52    2
    54    63    64    1
    55    52    51    1
    56    50    51    1
    57    24    25    1
    58    61    62    2
    59    65    64   ar
    60    65    67   ar
    61    64    66   ar
    62    51    54    1
    63    30    29    2
    64    25    27   am
    65    25    26    2
    66    67    68   ar
    67    54    55    1
    68    27    28    1
    69    66    68   ar
    70    66    69   ar
    71    81    79   ar
    72    29    28    1
    73    31    28    1
    74    55    56    1
    75    68    70   ar
    76    90    88   ar
    77    78    79    1
    78    78    77    1
    79    79    80   ar
    80    56    57    1
    81    69    71   ar
    82    76    75    2
    83    74    77    1
    84    74    75    1
    85    74    73    1
    86    70    72   ar
    87    88    89   ar
    88    88    87    1
    89    57    58    1
    90    71    72   ar
    91    87    86    1
    92    86    83    1
    93    82    83    1
    94    83    84    1
    95    84    85    2
