@<TRIPOS>MOLECULE
tmp/4oukA00.pdb
 146 140 0 0 0
SMALL
GASTEIGER

@<TRIPOS>ATOM
      1  N        -21.0650   -1.3840  -48.6130 N.3    10  SER10      -0.1202
      2  CA       -21.7080   -0.8670  -47.4120 C.3    10  SER10       0.2020
      3  C        -21.1000   -1.4200  -46.0820 C.2    10  SER10       0.2618
      4  O        -20.8470   -0.6450  -45.1240 O.2    10  SER10      -0.2717
      5  CB       -23.2110   -1.1370  -47.5230 C.3    10  SER10       0.2103
      6  OG       -23.8710   -0.9620  -46.2960 O.3    10  SER10      -0.2182
      7  N        -20.8490   -2.7360  -46.0220 N.am   11  TRP11      -0.1975
      8  CA       -20.1580   -3.3400  -44.8630 C.3    11  TRP11       0.1640
      9  C        -18.6710   -2.9660  -44.7650 C.2    11  TRP11       0.2290
     10  O        -18.1580   -2.8870  -43.6460 O.2    11  TRP11      -0.2864
     11  CB       -20.3840   -4.8710  -44.7900 C.3    11  TRP11       0.0576
     12  CG       -21.8600   -5.1210  -44.6030 C.ar   11  TRP11       0.0006
     13  CD1      -22.7080   -5.6400  -45.5140 C.ar   11  TRP11       0.0946
     14  CD2      -22.6770   -4.7390  -43.4530 C.ar   11  TRP11       0.0152
     15  NE1      -24.0080   -5.6390  -45.0060 N.ar   11  TRP11      -0.2442
     16  CE2      -24.0050   -5.0910  -43.7500 C.ar   11  TRP11       0.0810
     17  CE3      -22.3970   -4.1610  -42.2080 C.ar   11  TRP11       0.0012
     18  CZ2      -25.0540   -4.8780  -42.8560 C.ar   11  TRP11       0.0191
     19  CZ3      -23.4340   -3.9420  -41.3150 C.ar   11  TRP11       0.0001
     20  CH2      -24.7440   -4.3090  -41.6440 C.ar   11  TRP11       0.0015
     21  N        -18.7280    0.1390  -43.0010 N.3    14  THR14      -0.1218
     22  CA       -18.9970   -0.1260  -41.6050 C.3    14  THR14       0.1862
     23  C        -17.6860   -0.5850  -40.9670 C.2    14  THR14       0.2287
     24  O        -17.2900   -0.0930  -39.9220 O.2    14  THR14      -0.2866
     25  CB       -20.1680   -1.1150  -41.4810 C.3    14  THR14       0.1770
     26  OG1      -21.3080   -0.5740  -42.2090 O.3    14  THR14      -0.2211
     27  CG2      -20.5510   -1.3720  -39.9680 C.3    14  THR14       0.0375
     28  N        -15.5300    2.3790  -40.0990 N.3    17  ARG17      -0.1245
     29  CA       -16.0410    3.0790  -38.9340 C.3    17  ARG17       0.1563
     30  C        -15.7890    2.2870  -37.6510 C.2    17  ARG17       0.2260
     31  O        -15.3270    2.8620  -36.6580 O.2    17  ARG17      -0.2867
     32  CB       -17.5290    3.3640  -39.0680 C.3    17  ARG17       0.0307
     33  CG       -17.8580    4.3320  -40.1890 C.3    17  ARG17       0.0489
     34  CD       -19.3020    4.8410  -40.1220 C.3    17  ARG17       0.2205
     35  NE       -20.2460    3.7340  -40.3020 N.pl3  17  ARG17      -0.0865
     36  CZ       -20.6990    3.2910  -41.4770 C.cat  17  ARG17       0.5346
     37  NH1      -20.3070    3.8500  -42.6130 N.pl3  17  ARG17       0.1354
     38  NH2      -21.5340    2.2600  -41.5140 N.pl3  17  ARG17       0.1354
     39  N        -24.4220   -7.1350  -37.6220 N.3    71  GLY71      -0.1210
     40  CA       -23.7680   -6.8970  -38.9480 C.3    71  GLY71       0.1956
     41  C        -24.5870   -7.4140  -40.1440 C.2    71  GLY71       0.2612
     42  O        -24.0480   -7.7730  -41.1640 O.2    71  GLY71      -0.2717
     43  N        -25.8860   -7.4250  -40.0480 N.am   72  GLY72      -0.1942
     44  CA       -26.7160   -7.6960  -41.2240 C.3    72  GLY72       0.2014
     45  C        -26.5300   -9.0760  -41.8280 C.2    72  GLY72       0.2638
     46  O        -26.8500   -9.2850  -43.0240 O.2    72  GLY72      -0.2714
     47  N        -26.0850  -10.0390  -41.0020 N.am   73  TRP73      -0.1973
     48  CA       -25.8730  -11.4220  -41.4580 C.3    73  TRP73       0.1640
     49  C        -24.7590  -11.5730  -42.4840 C.2    73  TRP73       0.2290
     50  O        -24.3530  -12.7270  -42.7500 O.2    73  TRP73      -0.2864
     51  CB       -27.1470  -12.0240  -42.0520 C.3    73  TRP73       0.0576
     52  CG       -28.3130  -11.9730  -41.1640 C.ar   73  TRP73       0.0006
     53  CD1      -28.5770  -12.7980  -40.1480 C.ar   73  TRP73       0.0946
     54  CD2      -29.4100  -11.0710  -41.2570 C.ar   73  TRP73       0.0152
     55  NE1      -29.7580  -12.4230  -39.5330 N.ar   73  TRP73      -0.2442
     56  CE2      -30.2950  -11.3810  -40.2160 C.ar   73  TRP73       0.0810
     57  CE3      -29.6980   -9.9720  -42.0920 C.ar   73  TRP73       0.0012
     58  CZ2      -31.5000  -10.7040  -40.0160 C.ar   73  TRP73       0.0191
     59  CZ3      -30.8870   -9.2840  -41.8990 C.ar   73  TRP73       0.0001
     60  CH2      -31.7720   -9.6370  -40.8400 C.ar   73  TRP73       0.0015
     61  N        -29.1640   -6.3300  -33.3050 N.3   142  SER142     -0.1202
     62  CA       -29.5780   -6.1940  -34.7190 C.3   142  SER142      0.2020
     63  C        -29.8690   -7.6180  -35.3930 C.2   142  SER142      0.2618
     64  O        -30.7880   -8.3780  -34.9660 O.2   142  SER142     -0.2717
     65  CB       -28.5080   -5.3150  -35.4400 C.3   142  SER142      0.2103
     66  OG       -28.9560   -4.8050  -36.7210 O.3   142  SER142     -0.2182
     67  N        -29.0970   -7.9860  -36.4090 N.am  143  ALA143     -0.1979
     68  CA       -29.1210   -9.3450  -36.9360 C.3   143  ALA143      0.1597
     69  C        -28.7790  -10.3650  -35.8860 C.2   143  ALA143      0.2287
     70  O        -29.2960  -11.4740  -35.8920 O.2   143  ALA143     -0.2864
     71  CB       -28.1120   -9.4780  -38.1050 C.3   143  ALA143      0.0319
     72  N        -33.6580   -7.0910  -35.4360 N.3   182  VAL182     -0.1245
     73  CA       -34.4480   -7.1910  -36.6900 C.3   182  VAL182      0.1561
     74  C        -35.0740   -8.5720  -36.7050 C.2   182  VAL182      0.2260
     75  O        -34.5980   -9.4450  -37.3680 O.2   182  VAL182     -0.2867
     76  CB       -33.5410   -6.8750  -37.8890 C.3   182  VAL182      0.0252
     77  CG1      -34.2920   -6.9270  -39.2150 C.3   182  VAL182      0.0019
     78  CG2      -33.0800   -5.4450  -37.7330 C.3   182  VAL182      0.0019
     79  N        -38.7080   -6.0450  -43.8570 N.3   188  LEU188     -0.1245
     80  CA       -37.7240   -5.0770  -44.3210 C.3   188  LEU188      0.1561
     81  C        -38.0930   -4.3780  -45.6380 C.2   188  LEU188      0.2260
     82  O        -38.0410   -3.1460  -45.6860 O.2   188  LEU188     -0.2867
     83  CB       -36.3370   -5.6990  -44.4440 C.3   188  LEU188      0.0270
     84  CG       -35.5900   -5.8370  -43.1170 C.3   188  LEU188      0.0019
     85  CD1      -34.1740   -6.3360  -43.4020 C.3   188  LEU188      0.0001
     86  CD2      -35.5920   -4.5130  -42.3530 C.3   188  LEU188      0.0001
     87  N        -38.7280    0.9880  -43.8340 N.3   192  ALA192     -0.1245
     88  CA       -37.8320    2.1330  -44.0530 C.3   192  ALA192      0.1562
     89  C        -36.5710    1.7640  -44.7970 C.2   192  ALA192      0.2260
     90  O        -35.8260    2.6490  -45.2130 O.2   192  ALA192     -0.2867
     91  CB       -37.4780    2.7910  -42.7200 C.3   192  ALA192      0.0290
     92  N        -34.4410    0.6150  -52.1210 N.3   194  MET194     -0.1245
     93  CA       -33.6550   -0.2920  -51.2780 C.3   194  MET194      0.1570
     94  C        -34.3740   -1.6180  -51.1950 C.2   194  MET194      0.2261
     95  O        -33.7550   -2.6050  -50.8280 O.2   194  MET194     -0.2867
     96  CB       -33.3930    0.2450  -49.8620 C.3   194  MET194      0.0387
     97  CG       -33.0120    1.7190  -49.8060 C.3   194  MET194      0.0595
     98  SD       -31.3840    2.0290  -50.5020 S.3   194  MET194     -0.1393
     99  CE       -31.6000    3.5900  -51.3850 C.3   194  MET194      0.0692
    100  N        -32.5140   -4.3700  -52.6630 N.3   197  MET197     -0.1245
    101  CA       -31.5180   -4.8090  -51.7030 C.3   197  MET197      0.1570
    102  C        -32.1320   -5.6570  -50.5690 C.2   197  MET197      0.2261
    103  O        -31.5700   -6.6830  -50.2110 O.2   197  MET197     -0.2867
    104  CB       -30.7840   -3.6220  -51.1470 C.3   197  MET197      0.0387
    105  CG       -29.6010   -4.0280  -50.3160 C.3   197  MET197      0.0595
    106  SD       -28.4280   -2.6830  -50.1380 S.3   197  MET197     -0.1393
    107  CE       -27.7230   -2.7550  -51.7810 C.3   197  MET197      0.0692
    108  N        -31.2180   -9.6580  -49.3670 N.3   201  TYR201     -0.1241
    109  CA       -30.9410  -10.2360  -48.0510 C.3   201  TYR201      0.1605
    110  C        -31.8050  -11.4570  -47.7600 C.2   201  TYR201      0.2264
    111  O        -31.3350  -12.4430  -47.2410 O.2   201  TYR201     -0.2867
    112  CB       -31.1910   -9.2140  -46.9280 C.3   201  TYR201      0.0534
    113  CG       -30.0470   -8.2240  -46.7100 C.ar  201  TYR201     -0.0201
    114  CD1      -29.6510   -7.3500  -47.6980 C.ar  201  TYR201     -0.0009
    115  CD2      -29.3830   -8.1610  -45.4630 C.ar  201  TYR201     -0.0009
    116  CE1      -28.6130   -6.4360  -47.4780 C.ar  201  TYR201      0.0417
    117  CE2      -28.3600   -7.2520  -45.2240 C.ar  201  TYR201      0.0417
    118  CZ       -27.9740   -6.3870  -46.2330 C.ar  201  TYR201      0.1957
    119  OH       -26.9320   -5.5110  -45.9990 O.3   201  TYR201     -0.2866
    120  N        -32.5100    3.2690  -36.1050 N.3   239  SER239     -0.1202
    121  CA       -32.9850    3.2740  -37.4960 C.3   239  SER239      0.2020
    122  C        -33.9630    2.1280  -37.7880 C.2   239  SER239      0.2618
    123  O        -34.8160    2.2810  -38.6450 O.2   239  SER239     -0.2717
    124  CB       -31.8250    3.3420  -38.5070 C.3   239  SER239      0.2103
    125  OG       -30.7680    2.4510  -38.2160 O.3   239  SER239     -0.2182
    126  N        -33.8990    1.0220  -37.0330 N.am  240  PHE240     -0.1975
    127  CA       -34.9470   -0.0520  -37.0990 C.3   240  PHE240      0.1639
    128  C        -35.8420   -0.0700  -35.8880 C.2   240  PHE240      0.2290
    129  O        -36.2250   -1.1440  -35.3810 O.2   240  PHE240     -0.2864
    130  CB       -34.3490   -1.4560  -37.2470 C.3   240  PHE240      0.0560
    131  CG       -33.3860   -1.5760  -38.3640 C.ar  240  PHE240     -0.0200
    132  CD1      -32.0300   -1.3960  -38.1360 C.ar  240  PHE240     -0.0042
    133  CD2      -33.8280   -1.8240  -39.6490 C.ar  240  PHE240     -0.0042
    134  CE1      -31.1160   -1.5070  -39.1710 C.ar  240  PHE240     -0.0003
    135  CE2      -32.9220   -1.9310  -40.6870 C.ar  240  PHE240     -0.0003
    136  CZ       -31.5620   -1.7780  -40.4500 C.ar  240  PHE240     -0.0000
    137  N        -28.3090    3.3950  -33.4760 N.3   273  HIS273     -0.1241
    138  CA       -28.2150    1.9840  -33.6580 C.3   273  HIS273      0.1621
    139  C        -27.1200    1.2670  -32.7810 C.2   273  HIS273      0.2264
    140  O        -25.9180    1.5020  -32.8090 O.2   273  HIS273     -0.2867
    141  CB       -28.1690    1.6420  -35.1770 C.3   273  HIS273      0.0745
    142  CG       -28.6670    0.2640  -35.4810 C.ar  273  HIS273      0.0817
    143  ND1      -29.9220   -0.1630  -35.0990 N.ar  273  HIS273     -0.2268
    144  CD2      -28.0620   -0.8030  -36.0530 C.ar  273  HIS273      0.1154
    145  CE1      -30.0710   -1.4350  -35.4280 C.ar  273  HIS273      0.1986
    146  NE2      -28.9610   -1.8430  -36.0190 N.ar  273  HIS273     -0.2212
@<TRIPOS>BOND
     1   100   101    1
     2    92    93    1
     3   107   106    1
     4   101   104    1
     5   101   102    1
     6    99    98    1
     7    93    94    1
     8    93    96    1
     9    94    95    2
    10   104   105    1
    11   102   103    2
    12    98    97    1
    13   105   106    1
    14    96    97    1
    15   108   109    1
    16     1     2    1
    17   109   110    1
    18   109   112    1
    19   110   111    2
    20   114   116   ar
    21   114   113   ar
    22     5     2    1
    23     5     6    1
    24   116   118   ar
    25     2     3    1
    26   112   113    1
    27   113   115   ar
    28   118   119    1
    29   118   117   ar
    30     3     7   am
    31     3     4    2
    32     7     8    1
    33    82    81    2
    34    81    80    1
    35    13    15   ar
    36    13    12   ar
    37   115   117   ar
    38    90    89    2
    39    15    16   ar
    40     8    11    1
    41     8     9    1
    42    89    88    1
    43    11    12    1
    44     9    10    2
    45    12    14   ar
    46    83    80    1
    47    83    84    1
    48    80    79    1
    49    88    87    1
    50    88    91    1
    51    16    14   ar
    52    16    18   ar
    53    14    17   ar
    54    85    84    1
    55    84    86    1
    56    46    45    2
    57    21    22    1
    58    18    20   ar
    59    50    49    2
    60    37    36    1
    61    49    48    1
    62    26    25    1
    63    17    19   ar
    64    57    59   ar
    65    57    54   ar
    66    51    48    1
    67    51    52    1
    68    59    60   ar
    69    45    44    1
    70    45    47   am
    71    20    19   ar
    72    22    25    1
    73    22    23    1
    74    38    36    1
    75    25    27    1
    76    36    35    2
    77    48    47    1
    78    54    52   ar
    79    54    56   ar
    80    44    43    1
    81    42    41    2
    82    52    53   ar
    83    23    24    2
    84    60    58   ar
    85   135   136   ar
    86   135   133   ar
    87   136   134   ar
    88    35    34    1
    89    56    58   ar
    90    56    55   ar
    91    33    34    1
    92    33    32    1
    93    53    55   ar
    94    41    43   am
    95    41    40    1
    96    28    29    1
    97   133   131   ar
    98    77    76    1
    99   134   132   ar
   100    32    29    1
   101    40    39    1
   102    29    30    1
   103   123   122    2
   104   124   125    1
   105   124   121    1
   106   131   132   ar
   107   131   130    1
   108    71    68    1
   109    76    78    1
   110    76    73    1
   111   122   121    1
   112   122   126   am
   113    30    31    2
   114   121   120    1
   115    75    74    2
   116   130   127    1
   117   127   126    1
   118   127   128    1
   119    68    67    1
   120    68    69    1
   121    66    65    1
   122    74    73    1
   123    73    72    1
   124    67    63   am
   125   144   146   ar
   126   144   142   ar
   127   146   145   ar
   128    70    69    2
   129   128   129    2
   130   142   141    1
   131   142   143   ar
   132    65    62    1
   133   145   143   ar
   134    63    64    2
   135    63    62    1
   136   141   138    1
   137    62    61    1
   138   138   137    1
   139   138   139    1
   140   140   139    2
