@<TRIPOS>MOLECULE
tmp/4ourB00.pdb
 127 126 0 0 0
SMALL
GASTEIGER

@<TRIPOS>ATOM
      1  N         42.2750   69.4960  336.7610 N.3    88  TRP88      -0.1227
      2  CA        43.0770   68.4430  337.3760 C.3    88  TRP88       0.1737
      3  C         44.4820   68.9470  337.6890 C.2    88  TRP88       0.2595
      4  O         45.1240   69.5830  336.8530 O.2    88  TRP88      -0.2718
      5  CB        43.1310   67.2120  336.4680 C.3    88  TRP88       0.0564
      6  CG        41.7840   66.5830  336.2420 C.ar   88  TRP88       0.0003
      7  CD1       40.5960   66.9730  336.7910 C.ar   88  TRP88       0.0946
      8  CD2       41.4890   65.4560  335.4090 C.ar   88  TRP88       0.0152
      9  NE1       39.5810   66.1600  336.3500 N.ar   88  TRP88      -0.2442
     10  CE2       40.1020   65.2200  335.5010 C.ar   88  TRP88       0.0810
     11  CE3       42.2610   64.6220  334.5940 C.ar   88  TRP88       0.0012
     12  CZ2       39.4720   64.1870  334.8100 C.ar   88  TRP88       0.0191
     13  CZ3       41.6330   63.5970  333.9080 C.ar   88  TRP88       0.0001
     14  CH2       40.2530   63.3880  334.0210 C.ar   88  TRP88       0.0015
     15  N         44.9520   68.6640  338.9000 N.am   89  ILE89      -0.1966
     16  CA        46.2090   69.2270  339.3850 C.3    89  ILE89       0.1727
     17  C         47.0260   68.2160  340.1880 C.2    89  ILE89       0.2616
     18  O         46.4780   67.4680  340.9880 O.2    89  ILE89      -0.2715
     19  CB        45.9410   70.4790  340.2540 C.3    89  ILE89       0.0290
     20  CG1       45.7180   71.7050  339.3700 C.3    89  ILE89       0.0022
     21  CG2       47.0820   70.7400  341.2190 C.3    89  ILE89       0.0023
     22  CD1       45.5640   72.9860  340.1480 C.3    89  ILE89       0.0001
     23  N         48.3360   68.1860  339.9630 N.am   90  HIS90      -0.1973
     24  CA        49.2220   67.3620  340.7770 C.3    90  HIS90       0.1656
     25  C         50.1020   68.2280  341.6730 C.2    90  HIS90       0.2291
     26  O         50.5190   69.3180  341.2820 O.2    90  HIS90      -0.2864
     27  CB        50.0890   66.4640  339.8940 C.3    90  HIS90       0.0771
     28  CG        49.3400   65.3250  339.2750 C.ar   90  HIS90       0.0820
     29  ND1       48.3320   65.5110  338.3550 N.ar   90  HIS90      -0.2267
     30  CD2       49.4480   63.9870  339.4510 C.ar   90  HIS90       0.1154
     31  CE1       47.8530   64.3370  337.9870 C.ar   90  HIS90       0.1986
     32  NE2       48.5120   63.3950  338.6370 N.ar   90  HIS90      -0.2212
     33  N         47.0760   63.9600  343.7590 N.3    97  PRO97      -0.2102
     34  CA        46.0640   64.4490  342.8170 C.3    97  PRO97       0.1504
     35  C         44.9900   65.3040  343.4880 C.2    97  PRO97       0.2576
     36  O         44.5660   65.0080  344.6040 O.2    97  PRO97      -0.2718
     37  CB        45.4600   63.1600  342.2540 C.3    97  PRO97       0.0282
     38  CG        45.6730   62.1520  343.3260 C.3    97  PRO97       0.0208
     39  CD        46.9890   62.5020  343.9540 C.3    97  PRO97       0.0893
     40  N         44.5580   66.3510  342.7940 N.am   98  PHE98      -0.1963
     41  CA        43.5760   67.2910  343.3190 C.3    98  PHE98       0.1771
     42  C         42.6730   67.8430  342.2230 C.2    98  PHE98       0.2619
     43  O         43.1420   68.2310  341.1510 O.2    98  PHE98      -0.2715
     44  CB        44.2680   68.4570  344.0300 C.3    98  PHE98       0.0574
     45  CG        44.7820   68.1210  345.3990 C.ar   98  PHE98      -0.0200
     46  CD1       43.9280   68.1130  346.4890 C.ar   98  PHE98      -0.0042
     47  CD2       46.1200   67.8310  345.5990 C.ar   98  PHE98      -0.0042
     48  CE1       44.3980   67.8100  347.7520 C.ar   98  PHE98      -0.0003
     49  CE2       46.5970   67.5280  346.8590 C.ar   98  PHE98      -0.0003
     50  CZ        45.7350   67.5180  347.9370 C.ar   98  PHE98      -0.0000
     51  N         41.3740   67.8730  342.5030 N.am   99  TYR99      -0.1974
     52  CA        40.4220   68.5890  341.6690 C.3    99  TYR99       0.1639
     53  C         40.4140   70.0540  342.0830 C.2    99  TYR99       0.2290
     54  O         40.1510   70.3760  343.2450 O.2    99  TYR99      -0.2864
     55  CB        39.0190   67.9940  341.7960 C.3    99  TYR99       0.0560
     56  CG        38.8800   66.5930  341.2460 C.ar   99  TYR99      -0.0198
     57  CD1       37.8470   65.7640  341.6640 C.ar   99  TYR99      -0.0009
     58  CD2       39.7730   66.1000  340.3050 C.ar   99  TYR99      -0.0009
     59  CE1       37.7110   64.4840  341.1660 C.ar   99  TYR99       0.0417
     60  CE2       39.6450   64.8190  339.8000 C.ar   99  TYR99       0.0417
     61  CZ        38.6120   64.0160  340.2340 C.ar   99  TYR99       0.1957
     62  OH        38.4780   62.7410  339.7350 O.3    99  TYR99      -0.2866
     63  N         41.6410   63.9040  345.2960 N.3   116  ALA116     -0.1231
     64  CA        41.0610   62.9280  344.3820 C.3   116  ALA116      0.1694
     65  C         41.7610   61.5790  344.4970 C.2   116  ALA116      0.2591
     66  O         42.9170   61.5040  344.9110 O.2   116  ALA116     -0.2718
     67  CB        41.1280   63.4380  342.9530 C.3   116  ALA116      0.0304
     68  N         41.0520   60.5160  344.1300 N.am  117  ARG117     -0.1980
     69  CA        41.6130   59.1700  344.1770 C.3   117  ARG117      0.1597
     70  C         42.6500   58.9730  343.0780 C.2   117  ARG117      0.2287
     71  O         42.4360   59.3680  341.9320 O.2   117  ARG117     -0.2864
     72  CB        40.5060   58.1210  344.0540 C.3   117  ARG117      0.0334
     73  CG        39.5140   58.1260  345.2060 C.3   117  ARG117      0.0492
     74  CD        40.1930   57.7870  346.5250 C.3   117  ARG117      0.2205
     75  NE        39.2710   57.8660  347.6540 N.pl3 117  ARG117     -0.0865
     76  CZ        39.0950   58.9520  348.4010 C.cat 117  ARG117      0.5346
     77  NH1       39.7830   60.0550  348.1430 N.pl3 117  ARG117      0.1354
     78  NH2       38.2340   58.9330  349.4090 N.pl3 117  ARG117      0.1354
     79  N         44.1150   57.5390  340.2370 N.3   119  GLU119     -0.1231
     80  CA        43.7080   56.6520  339.1530 C.3   119  GLU119      0.1699
     81  C         44.8030   56.5140  338.1020 C.2   119  GLU119      0.2592
     82  O         45.6710   57.3770  337.9730 O.2   119  GLU119     -0.2718
     83  CB        42.4180   57.1550  338.4980 C.3   119  GLU119      0.0402
     84  CG        41.1570   56.8560  339.2930 C.3   119  GLU119      0.1161
     85  CD        40.7970   55.3810  339.2850 C.2   119  GLU119      0.3649
     86  OE1       39.7470   55.0220  339.8580 O.co2 119  GLU119     -0.2457
     87  OE2       41.5610   54.5810  338.7030 O.co2 119  GLU119     -0.2457
     88  N         44.7570   55.4140  337.3600 N.am  120  ASP120     -0.1974
     89  CA        45.6960   55.1790  336.2720 C.3   120  ASP120      0.1709
     90  C         45.4820   56.2050  335.1630 C.2   120  ASP120      0.2293
     91  O         44.3430   56.5310  334.8340 O.2   120  ASP120     -0.2864
     92  CB        45.5340   53.7550  335.7280 C.3   120  ASP120      0.1436
     93  CG        46.5640   53.4090  334.6640 C.2   120  ASP120      0.3671
     94  OD1       47.2440   52.3730  334.8120 O.co2 120  ASP120     -0.2456
     95  OD2       46.6890   54.1630  333.6760 O.co2 120  ASP120     -0.2456
     96  N         42.9030   55.7740  332.3950 N.3   123  LEU123     -0.1231
     97  CA        41.5060   56.1340  332.5870 C.3   123  LEU123      0.1693
     98  C         41.2630   57.6370  332.4270 C.2   123  LEU123      0.2592
     99  O         40.1180   58.0680  332.4110 O.2   123  LEU123     -0.2718
    100  CB        41.0200   55.6610  333.9640 C.3   123  LEU123      0.0284
    101  CG        40.8570   54.1450  334.1190 C.3   123  LEU123      0.0019
    102  CD1       40.3360   53.7930  335.5000 C.3   123  LEU123      0.0001
    103  CD2       39.9350   53.5920  333.0420 C.3   123  LEU123      0.0001
    104  N         42.3300   58.4270  332.3140 N.am  124  SER124     -0.1952
    105  CA        42.1900   59.8810  332.2370 C.3   124  SER124      0.1924
    106  C         41.2040   60.3070  331.1600 C.2   124  SER124      0.2314
    107  O         40.3050   61.1090  331.4230 O.2   124  SER124     -0.2863
    108  CB        43.5380   60.5540  331.9810 C.3   124  SER124      0.2116
    109  OG        43.3660   61.9600  331.8330 O.3   124  SER124     -0.2180
    110  N         38.8800   58.4190  329.8200 N.3   126  ALA126     -0.1231
    111  CA        37.6120   57.9310  330.3480 C.3   126  ALA126      0.1694
    112  C         37.1160   58.8060  331.4930 C.2   126  ALA126      0.2592
    113  O         35.9180   58.8890  331.7450 O.2   126  ALA126     -0.2718
    114  CB        37.7510   56.4850  330.8090 C.3   126  ALA126      0.0304
    115  N         38.0440   59.4620  332.1800 N.am  127  GLY127     -0.1957
    116  CA        37.6910   60.3450  333.2740 C.3   127  GLY127      0.1869
    117  C         37.1480   61.6770  332.7970 C.2   127  GLY127      0.2309
    118  O         36.3610   62.3170  333.4910 O.2   127  GLY127     -0.2863
    119  N         33.3610   61.4290  331.9930 N.3   130  GLN130     -0.1245
    120  CA        32.5610   60.8660  333.0810 C.3   130  GLN130      0.1566
    121  C         31.3210   61.6800  333.4430 C.2   130  GLN130      0.2260
    122  O         30.2150   61.1390  333.5040 O.2   130  GLN130     -0.2867
    123  CB        33.4220   60.6940  334.3290 C.3   130  GLN130      0.0367
    124  CG        32.6500   60.1470  335.5090 C.3   130  GLN130      0.0905
    125  CD        33.5470   59.6840  336.6310 C.2   130  GLN130      0.2608
    126  OE1       34.4200   60.4200  337.0880 O.2   130  GLN130     -0.2717
    127  NE2       33.3420   58.4500  337.0770 N.am  130  GLN130     -0.0878
@<TRIPOS>BOND
     1   110   111    1
     2   111   114    1
     3   111   112    1
     4   106   107    2
     5   106   105    1
     6   112   113    2
     7   112   115   am
     8   109   108    1
     9   108   105    1
    10   119   120    1
    11   115   116    1
    12   105   104    1
    13   104    98   am
    14    96    97    1
    15    99    98    2
    16    98    97    1
    17    97   100    1
    18   117   116    1
    19   117   118    2
    20   103   101    1
    21   120   121    1
    22   120   123    1
    23   121   122    2
    24    95    93   ar
    25    13    14   ar
    26    13    11   ar
    27   100   101    1
    28    14    12   ar
    29   101   102    1
    30   123   124    1
    31    11     8   ar
    32    93    94   ar
    33    93    92    1
    34    12    10   ar
    35    91    90    2
    36    90    89    1
    37     8    10   ar
    38     8     6   ar
    39    10     9   ar
    40   124   125    1
    41    92    89    1
    42     6     5    1
    43     6     7   ar
    44    89    88    1
    45     9     7   ar
    46     5     2    1
    47   125   127   am
    48   125   126    2
    49     1     2    1
    50     4     3    2
    51    88    81   am
    52     2     3    1
    53     3    15   am
    54    82    81    2
    55    31    29   ar
    56    31    32   ar
    57    81    80    1
    58    29    28   ar
    59    83    80    1
    60    83    84    1
    61    32    30   ar
    62    87    85   ar
    63    15    16    1
    64    80    79    1
    65    28    30   ar
    66    28    27    1
    67    85    84    1
    68    85    86   ar
    69    20    22    1
    70    20    19    1
    71    16    17    1
    72    16    19    1
    73    62    61    1
    74    60    61   ar
    75    60    58   ar
    76    27    24    1
    77    23    17   am
    78    23    24    1
    79    17    18    2
    80    61    59   ar
    81    19    21    1
    82    58    56   ar
    83    24    25    1
    84    43    42    2
    85    59    57   ar
    86    56    57   ar
    87    56    55    1
    88    26    25    2
    89    52    55    1
    90    52    53    1
    91    52    51    1
    92    71    70    2
    93    53    54    2
    94    42    51   am
    95    42    41    1
    96    37    34    1
    97    37    38    1
    98    40    41    1
    99    40    35   am
   100    34    35    1
   101    34    33    1
   102    67    64    1
   103    70    69    1
   104    41    44    1
   105    38    39    1
   106    35    36    2
   107    33    39    1
   108    44    45    1
   109    72    69    1
   110    72    73    1
   111    68    69    1
   112    68    65   am
   113    64    65    1
   114    64    63    1
   115    65    66    2
   116    73    74    1
   117    45    47   ar
   118    45    46   ar
   119    47    49   ar
   120    46    48   ar
   121    74    75    1
   122    49    50   ar
   123    75    76    2
   124    48    50   ar
   125    77    76    1
   126    76    78    1
