@<TRIPOS>MOLECULE
tmp/4ov4A00.pdb
 101 94 0 0 0
SMALL
GASTEIGER

@<TRIPOS>ATOM
      1  N         69.5660   64.7650    2.8130 N.3    12  ARG12      -0.1231
      2  CA        69.1470   63.9610    3.9530 C.3    12  ARG12       0.1694
      3  C         69.8700   64.4150    5.2180 C.2    12  ARG12       0.2592
      4  O         69.2800   65.1010    6.0500 O.2    12  ARG12      -0.2718
      5  CB        69.3640   62.4650    3.6790 C.3    12  ARG12       0.0321
      6  CG        68.5850   61.5270    4.6000 C.3    12  ARG12       0.0489
      7  CD        69.2900   61.2820    5.9290 C.3    12  ARG12       0.2205
      8  NE        70.5680   60.5920    5.7650 N.pl3  12  ARG12      -0.0865
      9  CZ        71.4730   60.4580    6.7280 C.cat  12  ARG12       0.5346
     10  NH1       71.2500   60.9730    7.9350 N.pl3  12  ARG12       0.1354
     11  NH2       72.6040   59.8080    6.4880 N.pl3  12  ARG12       0.1354
     12  N         71.1400   64.0300    5.3440 N.am   13  ASP13      -0.1974
     13  CA        71.9770   64.3490    6.5000 C.3    13  ASP13       0.1709
     14  C         72.1530   65.8690    6.5940 C.2    13  ASP13       0.2293
     15  O         72.1160   66.4440    7.6840 O.2    13  ASP13      -0.2864
     16  CB        73.3440   63.6450    6.3660 C.3    13  ASP13       0.1436
     17  CG        74.0020   63.3290    7.7140 C.2    13  ASP13       0.3671
     18  OD1       73.7100   64.0100    8.7230 O.co2  13  ASP13      -0.2456
     19  OD2       74.8460   62.4000    7.7590 O.co2  13  ASP13      -0.2456
     20  N         66.7010   56.7220    3.0490 N.3    73  LEU73      -0.1245
     21  CA        67.0590   56.0650    4.2920 C.3    73  LEU73       0.1561
     22  C         65.8490   55.5260    5.0480 C.2    73  LEU73       0.2260
     23  O         64.8110   56.1840    5.1310 O.2    73  LEU73      -0.2867
     24  CB        67.8370   57.0380    5.1880 C.3    73  LEU73       0.0270
     25  CG        68.3700   56.4730    6.5080 C.3    73  LEU73       0.0019
     26  CD1       69.3870   55.3630    6.2500 C.3    73  LEU73       0.0001
     27  CD2       68.9710   57.5850    7.3570 C.3    73  LEU73       0.0001
     28  N         68.2620   52.0430    1.4460 N.3    97  HIS97      -0.1241
     29  CA        69.3250   52.2430    2.4300 C.3    97  HIS97       0.1621
     30  C         68.7930   52.0190    3.8160 C.2    97  HIS97       0.2264
     31  O         67.9350   52.7540    4.2860 O.2    97  HIS97      -0.2867
     32  CB        69.9460   53.6420    2.2820 C.3    97  HIS97       0.0745
     33  CG        71.0560   53.9420    3.2760 C.ar   97  HIS97       0.0817
     34  ND1       71.5200   55.1910    3.4870 N.ar   97  HIS97      -0.2268
     35  CD2       71.7780   53.1070    4.1370 C.ar   97  HIS97       0.1154
     36  CE1       72.4940   55.1600    4.4240 C.ar   97  HIS97       0.1986
     37  NE2       72.6460   53.8870    4.8240 N.ar   97  HIS97      -0.2212
     38  N         69.6220   51.3470    7.9980 N.3    99  VAL99      -0.1245
     39  CA        70.6120   51.5780    9.0590 C.3    99  VAL99       0.1561
     40  C         70.2120   50.8170   10.3220 C.2    99  VAL99       0.2260
     41  O         69.0280   50.7220   10.6420 O.2    99  VAL99      -0.2867
     42  CB        70.8140   53.0970    9.3490 C.3    99  VAL99       0.0252
     43  CG1       69.5150   53.7730    9.7770 C.3    99  VAL99       0.0019
     44  CG2       71.9090   53.3390   10.3870 C.3    99  VAL99       0.0019
     45  N         73.8990   50.3280    6.4920 N.3   142  SER142     -0.1217
     46  CA        74.8150   51.0900    7.3570 C.3   142  SER142      0.1889
     47  C         74.8140   50.5380    8.7740 C.2   142  SER142      0.2288
     48  O         73.7530   50.3880    9.3920 O.2   142  SER142     -0.2866
     49  CB        74.4340   52.5850    7.4330 C.3   142  SER142      0.2089
     50  OG        74.5730   53.2420    6.1870 O.3   142  SER142     -0.2183
     51  N         75.2820   51.7360   12.0360 N.3   144  GLU144     -0.1245
     52  CA        75.3620   52.9840   12.7920 C.3   144  GLU144      0.1567
     53  C         76.3800   52.8710   13.9320 C.2   144  GLU144      0.2260
     54  O         76.4540   51.8410   14.5990 O.2   144  GLU144     -0.2867
     55  CB        73.9870   53.3800   13.3270 C.3   144  GLU144      0.0388
     56  CG        73.9010   54.8260   13.7890 C.3   144  GLU144      0.1160
     57  CD        72.5010   55.2290   14.2160 C.2   144  GLU144      0.3649
     58  OE1       72.2410   56.4430   14.2880 O.co2 144  GLU144     -0.2457
     59  OE2       71.6630   54.3410   14.4740 O.co2 144  GLU144     -0.2457
     60  N         77.9110   50.2080    4.2770 N.3   172  ASN172     -0.1240
     61  CA        78.3010   51.5770    4.5990 C.3   172  ASN172      0.1653
     62  C         78.8210   51.6580    6.0250 C.2   172  ASN172      0.2266
     63  O         78.1450   51.2380    6.9690 O.2   172  ASN172     -0.2867
     64  CB        77.1120   52.5280    4.4020 C.3   172  ASN172      0.1155
     65  CG        77.4920   54.0070    4.5260 C.2   172  ASN172      0.2627
     66  OD1       78.4910   54.4620    3.9760 O.2   172  ASN172     -0.2716
     67  ND2       76.6580   54.7690    5.2230 N.am  172  ASN172     -0.0877
     68  N         79.8630   54.1180    8.8350 N.3   174  PRO174     -0.2116
     69  CA        79.8940   55.5030    9.2850 C.3   174  PRO174      0.1372
     70  C         80.8090   55.7530   10.4800 C.2   174  PRO174      0.2244
     71  O         80.8930   54.9250   11.3910 O.2   174  PRO174     -0.2868
     72  CB        78.4340   55.8030    9.6450 C.3   174  PRO174      0.0268
     73  CG        77.8000   54.4740    9.9000 C.3   174  PRO174      0.0207
     74  CD        78.6680   53.3930    9.3120 C.3   174  PRO174      0.0892
     75  N         80.1350   58.0090   12.7710 N.3   176  THR176     -0.1218
     76  CA        78.9690   58.7780   13.2030 C.3   176  THR176      0.1862
     77  C         79.3590   60.0020   14.0330 C.2   176  THR176      0.2287
     78  O         78.8170   61.1030   13.8470 O.2   176  THR176     -0.2866
     79  CB        77.9980   57.8420   13.9590 C.3   176  THR176      0.1770
     80  OG1       77.7380   56.6830   13.1460 O.3   176  THR176     -0.2211
     81  CG2       76.6800   58.5380   14.2760 C.3   176  THR176      0.0375
     82  N         81.1560   56.8980    5.5440 N.3   205  HIS205     -0.1241
     83  CA        80.3020   58.0290    5.8630 C.3   205  HIS205      0.1621
     84  C         80.8370   58.6580    7.1300 C.2   205  HIS205      0.2264
     85  O         80.4510   58.2770    8.2370 O.2   205  HIS205     -0.2867
     86  CB        78.8820   57.4950    6.0610 C.3   205  HIS205      0.0745
     87  CG        77.8610   58.5440    6.3990 C.ar  205  HIS205      0.0817
     88  ND1       76.9050   58.9200    5.5360 N.ar  205  HIS205     -0.2268
     89  CD2       77.6520   59.2790    7.5650 C.ar  205  HIS205      0.1154
     90  CE1       76.1290   59.8550    6.1060 C.ar  205  HIS205      0.1986
     91  NE2       76.5910   60.0770    7.3470 N.ar  205  HIS205     -0.2212
     92  N         81.8580   61.9160    9.7940 N.3   207  HIS207     -0.1241
     93  CA        81.5530   63.2600   10.2540 C.3   207  HIS207      0.1621
     94  C         82.7900   64.0000   10.6870 C.2   207  HIS207      0.2264
     95  O         83.8520   63.4060   10.8270 O.2   207  HIS207     -0.2867
     96  CB        80.4980   63.2220   11.3430 C.3   207  HIS207      0.0745
     97  CG        79.1330   62.9240   10.8130 C.ar  207  HIS207      0.0817
     98  ND1       78.3100   63.8860   10.3660 N.ar  207  HIS207     -0.2268
     99  CD2       78.4780   61.7160   10.6090 C.ar  207  HIS207      0.1154
    100  CE1       77.1700   63.3250    9.9270 C.ar  207  HIS207      0.1986
    101  NE2       77.2730   61.9980   10.0850 N.ar  207  HIS207     -0.2212
@<TRIPOS>BOND
     1    28    29    1
     2    32    29    1
     3    32    33    1
     4    29    30    1
     5     1     2    1
     6    20    21    1
     7    33    34   ar
     8    33    35   ar
     9    34    36   ar
    10     5     2    1
    11     5     6    1
    12    30    31    2
    13     2     3    1
    14    66    65    2
    15    35    37   ar
    16    60    61    1
    17    21    22    1
    18    21    24    1
    19    64    65    1
    20    64    61    1
    21    36    37   ar
    22    65    67   am
    23    61    62    1
    24     6     7    1
    25    22    23    2
    26    24    25    1
    27     3    12   am
    28     3     4    2
    29    12    13    1
    30    88    90   ar
    31    88    87   ar
    32    82    83    1
    33     8     7    1
    34     8     9    2
    35    83    86    1
    36    83    84    1
    37    62    63    2
    38    86    87    1
    39    90    91   ar
    40    50    49    1
    41    26    25    1
    42    16    13    1
    43    16    17    1
    44    87    89   ar
    45    11     9    1
    46    45    46    1
    47    13    14    1
    48    25    27    1
    49    14    15    2
    50     9    10    1
    51    84    85    2
    52    91    89   ar
    53    46    49    1
    54    46    47    1
    55    17    19   ar
    56    17    18   ar
    57    38    39    1
    58    47    48    2
    59    68    69    1
    60    68    74    1
    61    39    42    1
    62    39    40    1
    63    69    72    1
    64    69    70    1
    65    74    73    1
    66    42    43    1
    67    42    44    1
    68    72    73    1
    69    92    93    1
    70   100   101   ar
    71   100    98   ar
    72   101    99   ar
    73    93    94    1
    74    93    96    1
    75    40    41    2
    76    98    97   ar
    77    70    71    2
    78    99    97   ar
    79    94    95    2
    80    97    96    1
    81    51    52    1
    82    75    76    1
    83    52    55    1
    84    52    53    1
    85    80    79    1
    86    76    79    1
    87    76    77    1
    88    55    56    1
    89    56    57    1
    90    78    77    2
    91    53    54    2
    92    79    81    1
    93    57    58   ar
    94    57    59   ar
