@<TRIPOS>MOLECULE
tmp/4ov5F00.pdb
 192 185 0 0 0
SMALL
GASTEIGER

@<TRIPOS>ATOM
      1  N         17.0960  -20.4820  -18.4930 N.3     8  TRP8       -0.1241
      2  CA        18.4720  -20.2520  -18.9110 C.3     8  TRP8        0.1605
      3  C         18.5380  -20.1910  -20.4300 C.2     8  TRP8        0.2264
      4  O         18.0010  -21.0590  -21.1140 O.2     8  TRP8       -0.2867
      5  CB        19.3780  -21.3690  -18.3910 C.3     8  TRP8        0.0550
      6  CG        20.8130  -21.2570  -18.8170 C.ar    8  TRP8        0.0003
      7  CD1       21.4820  -22.0840  -19.6740 C.ar    8  TRP8        0.0946
      8  CD2       21.7570  -20.2620  -18.4020 C.ar    8  TRP8        0.0152
      9  NE1       22.7820  -21.6660  -19.8170 N.ar    8  TRP8       -0.2442
     10  CE2       22.9770  -20.5490  -19.0480 C.ar    8  TRP8        0.0810
     11  CE3       21.6890  -19.1560  -17.5490 C.ar    8  TRP8        0.0012
     12  CZ2       24.1180  -19.7700  -18.8660 C.ar    8  TRP8        0.0191
     13  CZ3       22.8230  -18.3850  -17.3700 C.ar    8  TRP8        0.0001
     14  CH2       24.0210  -18.6950  -18.0250 C.ar    8  TRP8        0.0015
     15  N         21.2170  -19.4470  -23.8650 N.3    10  LEU10      -0.1245
     16  CA        22.5480  -19.2480  -24.4160 C.3    10  LEU10       0.1561
     17  C         22.4250  -18.8930  -25.8900 C.2    10  LEU10       0.2260
     18  O         21.8770  -19.6640  -26.6800 O.2    10  LEU10      -0.2867
     19  CB        23.3960  -20.5060  -24.2420 C.3    10  LEU10       0.0270
     20  CG        24.8010  -20.4520  -24.8420 C.3    10  LEU10       0.0019
     21  CD1       25.6380  -19.3730  -24.1690 C.3    10  LEU10       0.0001
     22  CD2       25.4720  -21.8090  -24.7310 C.3    10  LEU10       0.0001
     23  N         24.4460  -17.5200  -29.3910 N.3    12  PHE12      -0.1241
     24  CA        25.6120  -17.1610  -30.1840 C.3    12  PHE12       0.1605
     25  C         25.1430  -16.4040  -31.4140 C.2    12  PHE12       0.2264
     26  O         24.4990  -16.9730  -32.2960 O.2    12  PHE12      -0.2867
     27  CB        26.3950  -18.4030  -30.6070 C.3    12  PHE12       0.0534
     28  CG        26.9630  -19.1830  -29.4590 C.ar   12  PHE12      -0.0203
     29  CD1       28.1610  -18.8080  -28.8740 C.ar   12  PHE12      -0.0042
     30  CD2       26.3040  -20.2960  -28.9690 C.ar   12  PHE12      -0.0042
     31  CE1       28.6900  -19.5280  -27.8190 C.ar   12  PHE12      -0.0003
     32  CE2       26.8260  -21.0200  -27.9150 C.ar   12  PHE12      -0.0003
     33  CZ        28.0200  -20.6350  -27.3380 C.ar   12  PHE12      -0.0000
     34  N         31.0750  -11.6760  -33.4790 N.3    25  LEU25      -0.1245
     35  CA        30.4590  -12.7590  -32.7270 C.3    25  LEU25       0.1561
     36  C         30.0510  -12.2960  -31.3320 C.2    25  LEU25       0.2260
     37  O         30.8670  -11.7580  -30.5840 O.2    25  LEU25      -0.2867
     38  CB        31.4130  -13.9500  -32.6240 C.3    25  LEU25       0.0270
     39  CG        31.0020  -15.0330  -31.6240 C.3    25  LEU25       0.0019
     40  CD1       29.7790  -15.7970  -32.1140 C.3    25  LEU25       0.0001
     41  CD2       32.1600  -15.9770  -31.3420 C.3    25  LEU25       0.0001
     42  N         28.4720  -13.8610  -27.9390 N.3    27  GLU27      -0.1245
     43  CA        27.9660  -14.9230  -27.0790 C.3    27  GLU27       0.1567
     44  C         27.2430  -14.2980  -25.8970 C.2    27  GLU27       0.2260
     45  O         27.7840  -13.4180  -25.2380 O.2    27  GLU27      -0.2867
     46  CB        29.0980  -15.8140  -26.5760 C.3    27  GLU27       0.0388
     47  CG        28.6310  -16.8610  -25.5810 C.3    27  GLU27       0.1160
     48  CD        29.7590  -17.7270  -25.0730 C.2    27  GLU27       0.3649
     49  OE1       30.9320  -17.3590  -25.2870 O.co2  27  GLU27      -0.2457
     50  OE2       29.4730  -18.7770  -24.4610 O.co2  27  GLU27      -0.2457
     51  N         24.7440  -14.9660  -22.3590 N.3    29  CYS29      -0.1235
     52  CA        24.1170  -15.8150  -21.3540 C.3    29  CYS29       0.1677
     53  C         23.0130  -15.0400  -20.6450 C.2    29  CYS29       0.2270
     54  O         23.2550  -13.9690  -20.0870 O.2    29  CYS29      -0.2867
     55  CB        25.1510  -16.3040  -20.3410 C.3    29  CYS29       0.0956
     56  SG        26.4740  -17.3120  -21.0490 S.3    29  CYS29      -0.0801
     57  N         23.3770  -11.9410  -18.2000 N.3    36  SER36      -0.1202
     58  CA        24.3130  -11.9340  -17.0790 C.3    36  SER36       0.2020
     59  C         25.7610  -11.7130  -17.5100 C.2    36  SER36       0.2618
     60  O         26.5060  -10.9800  -16.8590 O.2    36  SER36      -0.2717
     61  CB        24.1990  -13.2360  -16.2800 C.3    36  SER36       0.2103
     62  OG        24.5510  -14.3560  -17.0740 O.3    36  SER36      -0.2182
     63  N         26.1570  -12.3490  -18.6070 N.am   37  VAL37      -0.1979
     64  CA        27.5350  -12.2700  -19.0770 C.3    37  VAL37       0.1595
     65  C         27.5620  -12.4250  -20.5960 C.2    37  VAL37       0.2287
     66  O         26.6270  -12.9690  -21.1850 O.2    37  VAL37      -0.2864
     67  CB        28.4150  -13.3480  -18.3990 C.3    37  VAL37       0.0276
     68  CG1       28.0500  -14.7310  -18.9040 C.3    37  VAL37       0.0022
     69  CG2       29.8980  -13.0650  -18.6130 C.3    37  VAL37       0.0022
     70  N         35.3410  -11.8960  -22.0090 N.3    46  TYR46      -0.1241
     71  CA        34.0420  -11.8520  -21.3500 C.3    46  TYR46       0.1605
     72  C         33.8740  -10.6220  -20.4680 C.2    46  TYR46       0.2264
     73  O         34.7990  -10.2090  -19.7670 O.2    46  TYR46      -0.2867
     74  CB        33.7940  -13.1250  -20.5390 C.3    46  TYR46       0.0534
     75  CG        33.5480  -14.3440  -21.3950 C.ar   46  TYR46      -0.0201
     76  CD1       32.2700  -14.6560  -21.8420 C.ar   46  TYR46      -0.0009
     77  CD2       34.5940  -15.1790  -21.7610 C.ar   46  TYR46      -0.0009
     78  CE1       32.0410  -15.7700  -22.6270 C.ar   46  TYR46       0.0417
     79  CE2       34.3760  -16.2940  -22.5450 C.ar   46  TYR46       0.0417
     80  CZ        33.0990  -16.5850  -22.9760 C.ar   46  TYR46       0.1957
     81  OH        32.8790  -17.6950  -23.7580 O.3    46  TYR46      -0.2866
     82  N         31.2020  -15.1640  -13.3540 N.3    56  ASP56      -0.1239
     83  CA        31.5440  -16.0270  -14.4880 C.3    56  ASP56       0.1674
     84  C         32.5280  -15.3720  -15.4700 C.2    56  ASP56       0.2266
     85  O         33.4000  -16.0390  -16.0240 O.2    56  ASP56      -0.2867
     86  CB        30.2720  -16.4820  -15.2120 C.3    56  ASP56       0.1410
     87  CG        29.4130  -17.4020  -14.3610 C.2    56  ASP56       0.3668
     88  OD1       29.9390  -18.4150  -13.8600 O.co2  56  ASP56      -0.2456
     89  OD2       28.2130  -17.1090  -14.1900 O.co2  56  ASP56      -0.2456
     90  N         36.0340  -15.6280  -14.1580 N.3    59  TYR59      -0.1227
     91  CA        36.4630  -17.0250  -14.1930 C.3    59  TYR59       0.1736
     92  C         36.8890  -17.4400  -15.5960 C.2    59  TYR59       0.2595
     93  O         38.0220  -17.8700  -15.7990 O.2    59  TYR59      -0.2718
     94  CB        35.3790  -17.9780  -13.6650 C.3    59  TYR59       0.0548
     95  CG        35.6570  -19.4440  -13.9680 C.ar   59  TYR59      -0.0200
     96  CD1       36.9000  -20.0090  -13.6980 C.ar   59  TYR59      -0.0009
     97  CD2       34.6750  -20.2630  -14.5160 C.ar   59  TYR59      -0.0009
     98  CE1       37.1620  -21.3370  -13.9770 C.ar   59  TYR59       0.0417
     99  CE2       34.9280  -21.5980  -14.7950 C.ar   59  TYR59       0.0417
    100  CZ        36.1740  -22.1280  -14.5220 C.ar   59  TYR59       0.1957
    101  OH        36.4400  -23.4500  -14.7930 O.3    59  TYR59      -0.2866
    102  N         35.9780  -17.3180  -16.5570 N.am   60  TRP60      -0.1976
    103  CA        36.2610  -17.7160  -17.9350 C.3    60  TRP60       0.1640
    104  C         37.4570  -16.9650  -18.5130 C.2    60  TRP60       0.2290
    105  O         38.2430  -17.5300  -19.2720 O.2    60  TRP60      -0.2864
    106  CB        35.0250  -17.5210  -18.8180 C.3    60  TRP60       0.0576
    107  CG        33.9590  -18.5490  -18.5810 C.ar   60  TRP60       0.0006
    108  CD1       34.1300  -19.7960  -18.0560 C.ar   60  TRP60       0.0946
    109  CD2       32.5560  -18.4140  -18.8490 C.ar   60  TRP60       0.0152
    110  NE1       32.9230  -20.4490  -17.9850 N.ar   60  TRP60      -0.2442
    111  CE2       31.9420  -19.6230  -18.4650 C.ar   60  TRP60       0.0810
    112  CE3       31.7620  -17.3920  -19.3780 C.ar   60  TRP60       0.0012
    113  CZ2       30.5700  -19.8370  -18.5920 C.ar   60  TRP60       0.0191
    114  CZ3       30.3990  -17.6070  -19.5040 C.ar   60  TRP60       0.0001
    115  CH2       29.8180  -18.8200  -19.1130 C.ar   60  TRP60       0.0015
    116  N         40.1120  -21.0060  -23.6320 N.3    66  LEU66      -0.1245
    117  CA        38.7220  -20.6890  -23.9490 C.3    66  LEU66       0.1561
    118  C         38.6010  -19.3780  -24.7230 C.2    66  LEU66       0.2260
    119  O         37.8200  -19.2750  -25.6690 O.2    66  LEU66      -0.2867
    120  CB        37.8830  -20.6130  -22.6720 C.3    66  LEU66       0.0270
    121  CG        37.8990  -21.8350  -21.7510 C.3    66  LEU66       0.0019
    122  CD1       36.8820  -21.6760  -20.6290 C.3    66  LEU66       0.0001
    123  CD2       37.6440  -23.1120  -22.5360 C.3    66  LEU66       0.0001
    124  N         39.8350  -19.7330  -28.6190 N.3    69  GLN69      -0.1231
    125  CA        38.9240  -20.3680  -29.5710 C.3    69  GLN69       0.1698
    126  C         37.7070  -19.4930  -29.8740 C.2    69  GLN69       0.2592
    127  O         37.2450  -19.4430  -31.0140 O.2    69  GLN69      -0.2718
    128  CB        38.5010  -21.7620  -29.0860 C.3    69  GLN69       0.0381
    129  CG        38.1490  -21.8300  -27.6090 C.3    69  GLN69       0.0905
    130  CD        38.0520  -23.2510  -27.0820 C.2    69  GLN69       0.2608
    131  OE1       38.9680  -23.7460  -26.4230 O.2    69  GLN69      -0.2717
    132  NE2       36.9310  -23.9090  -27.3550 N.am   69  GLN69      -0.0878
    133  N         37.1980  -18.8010  -28.8580 N.am   70  ARG70      -0.1980
    134  CA        36.1070  -17.8500  -29.0560 C.3    70  ARG70       0.1597
    135  C         36.5390  -16.7260  -29.9940 C.2    70  ARG70       0.2287
    136  O         35.7770  -16.3030  -30.8660 O.2    70  ARG70      -0.2864
    137  CB        35.6380  -17.2690  -27.7200 C.3    70  ARG70       0.0334
    138  CG        34.7720  -18.2070  -26.8900 C.3    70  ARG70       0.0492
    139  CD        33.4310  -18.4630  -27.5610 C.3    70  ARG70       0.2205
    140  NE        32.4650  -19.0760  -26.6530 N.pl3  70  ARG70      -0.0865
    141  CZ        32.3320  -20.3860  -26.4730 C.cat  70  ARG70       0.5346
    142  NH1       33.1060  -21.2320  -27.1400 N.pl3  70  ARG70       0.1354
    143  NH2       31.4240  -20.8520  -25.6260 N.pl3  70  ARG70       0.1354
    144  N         36.6090  -17.9720  -33.4040 N.3    73  ALA73      -0.1245
    145  CA        35.3000  -18.4370  -33.8560 C.3    73  ALA73       0.1562
    146  C         34.6760  -17.5770  -34.9600 C.2    73  ALA73       0.2260
    147  O         33.8570  -18.0650  -35.7320 O.2    73  ALA73      -0.2867
    148  CB        34.3450  -18.5740  -32.6710 C.3    73  ALA73       0.0290
    149  N         36.2420  -19.6290  -37.7860 N.3    76  THR76      -0.1203
    150  CA        35.9420  -21.0600  -37.7970 C.3    76  THR76       0.1994
    151  C         34.4650  -21.3990  -37.5970 C.2    76  THR76       0.2617
    152  O         34.0450  -22.5260  -37.8570 O.2    76  THR76      -0.2717
    153  CB        36.7620  -21.8140  -36.7300 C.3    76  THR76       0.1784
    154  OG1       36.4470  -21.3000  -35.4300 O.3    76  THR76      -0.2211
    155  CG2       38.2540  -21.6540  -36.9900 C.3    76  THR76       0.0376
    156  N         33.6810  -20.4310  -37.1350 N.am   77  TYR77      -0.1975
    157  CA        32.2730  -20.6720  -36.8300 C.3    77  TYR77       0.1639
    158  C         31.3500  -19.7850  -37.6630 C.2    77  TYR77       0.2290
    159  O         30.5690  -20.2820  -38.4740 O.2    77  TYR77      -0.2864
    160  CB        32.0240  -20.4820  -35.3300 C.3    77  TYR77       0.0560
    161  CG        30.5730  -20.4300  -34.9020 C.ar   77  TYR77      -0.0198
    162  CD1       29.7500  -21.5420  -35.0190 C.ar   77  TYR77      -0.0009
    163  CD2       30.0380  -19.2760  -34.3440 C.ar   77  TYR77      -0.0009
    164  CE1       28.4280  -21.4980  -34.6140 C.ar   77  TYR77       0.0417
    165  CE2       28.7190  -19.2250  -33.9320 C.ar   77  TYR77       0.0417
    166  CZ        27.9180  -20.3370  -34.0710 C.ar   77  TYR77       0.1957
    167  OH        26.6040  -20.2850  -33.6640 O.3    77  TYR77      -0.2866
    168  N         32.2410  -19.7850  -41.5370 N.3    80  HIS80      -0.1226
    169  CA        31.9430  -21.1180  -42.0470 C.3    80  HIS80       0.1752
    170  C         30.4440  -21.2860  -42.2680 C.2    80  HIS80       0.2596
    171  O         30.0100  -21.7020  -43.3410 O.2    80  HIS80      -0.2718
    172  CB        32.4550  -22.1980  -41.0930 C.3    80  HIS80       0.0759
    173  CG        32.0040  -23.5810  -41.4510 C.ar   80  HIS80       0.0818
    174  ND1       32.7000  -24.3900  -42.3250 N.ar   80  HIS80      -0.2268
    175  CD2       30.9230  -24.2960  -41.0580 C.ar   80  HIS80       0.1154
    176  CE1       32.0700  -25.5440  -42.4490 C.ar   80  HIS80       0.1986
    177  NE2       30.9890  -25.5140  -41.6900 N.ar   80  HIS80      -0.2212
    178  N         29.6570  -20.9530  -41.2490 N.am   81  ASN81      -0.1974
    179  CA        28.2060  -21.0910  -41.3330 C.3    81  ASN81       0.1688
    180  C         27.5710  -20.1720  -42.3670 C.2    81  ASN81       0.2292
    181  O         26.5910  -20.5430  -43.0130 O.2    81  ASN81      -0.2864
    182  CB        27.5560  -20.8870  -39.9650 C.3    81  ASN81       0.1181
    183  CG        27.7760  -22.0620  -39.0410 C.2    81  ASN81       0.2629
    184  OD1       28.1890  -23.1360  -39.4780 O.2    81  ASN81      -0.2716
    185  ND2       27.4920  -21.8700  -37.7590 N.am   81  ASN81      -0.0877
    186  N         28.2220  -21.9880  -45.6450 N.3    84  VAL84      -0.1245
    187  CA        27.3850  -23.1740  -45.7870 C.3    84  VAL84       0.1561
    188  C         25.9390  -22.8250  -46.1440 C.2    84  VAL84       0.2260
    189  O         25.3360  -23.4540  -47.0140 O.2    84  VAL84      -0.2867
    190  CB        27.4060  -24.0280  -44.5000 C.3    84  VAL84       0.0252
    191  CG1       26.4120  -25.1700  -44.5990 C.3    84  VAL84       0.0019
    192  CG2       28.8070  -24.5640  -44.2400 C.3    84  VAL84       0.0019
@<TRIPOS>BOND
     1   189   188    2
     2   188   187    1
     3   187   186    1
     4   187   190    1
     5   191   190    1
     6   190   192    1
     7   171   170    2
     8   181   180    2
     9   176   174   ar
    10   176   177   ar
    11   180   179    1
    12   174   173   ar
    13   170   169    1
    14   170   178   am
    15   169   168    1
    16   169   172    1
    17   177   175   ar
    18   173   172    1
    19   173   175   ar
    20   179   178    1
    21   179   182    1
    22   182   183    1
    23   184   183    2
    24   183   185   am
    25   159   158    2
    26   152   151    2
    27   150   149    1
    28   150   151    1
    29   150   153    1
    30   158   157    1
    31   151   156   am
    32   156   157    1
    33   155   153    1
    34   157   160    1
    35   153   154    1
    36   147   146    2
    37   160   161    1
    38   162   161   ar
    39   162   164   ar
    40   146   145    1
    41   161   163   ar
    42   164   166   ar
    43   163   165   ar
    44   166   165   ar
    45   166   167    1
    46   145   144    1
    47   145   148    1
    48    34    35    1
    49    35    38    1
    50    35    36    1
    51    38    39    1
    52    26    25    2
    53    40    39    1
    54    39    41    1
    55    25    24    1
    56    36    37    2
    57   127   126    2
    58   136   135    2
    59    27    24    1
    60    27    28    1
    61    24    23    1
    62   135   134    1
    63   126   125    1
    64   126   133   am
    65   125   128    1
    66   125   124    1
    67    28    30   ar
    68    28    29   ar
    69   128   129    1
    70   134   133    1
    71   134   137    1
    72    30    32   ar
    73    29    31   ar
    74    42    43    1
    75    32    33   ar
    76    31    33   ar
    77   137   138    1
    78   129   130    1
    79   139   138    1
    80   139   140    1
    81   132   130   am
    82   142   141    1
    83   130   131    2
    84    43    46    1
    85    43    44    1
    86    18    17    2
    87   140   141    2
    88    46    47    1
    89   141   143    1
    90    44    45    2
    91    17    16    1
    92   119   118    2
    93    47    48    1
    94    49    48   ar
    95    48    50   ar
    96    20    22    1
    97    20    19    1
    98    20    21    1
    99   118   117    1
   100    16    19    1
   101    16    15    1
   102   117   116    1
   103   117   120    1
   104    81    80    1
   105    80    78   ar
   106    80    79   ar
   107   120   121    1
   108    78    76   ar
   109    79    77   ar
   110   123   121    1
   111    51    52    1
   112    70    71    1
   113    76    75   ar
   114    77    75   ar
   115   121   122    1
   116    75    74    1
   117    52    53    1
   118    52    55    1
   119    71    74    1
   120    71    72    1
   121    66    65    2
   122     4     3    2
   123    56    55    1
   124    53    54    2
   125    65    64    1
   126    72    73    2
   127     3     2    1
   128     9     7   ar
   129     9    10   ar
   130     7     6   ar
   131   114   112   ar
   132   114   115   ar
   133   112   109   ar
   134   105   104    2
   135   115   113   ar
   136    64    63    1
   137    64    67    1
   138    10    12   ar
   139    10     8   ar
   140     2     1    1
   141     2     5    1
   142    68    67    1
   143    12    14   ar
   144   109   107   ar
   145   109   111   ar
   146   106   107    1
   147   106   103    1
   148     6     8   ar
   149     6     5    1
   150    69    67    1
   151    63    59   am
   152   113   111   ar
   153   107   108   ar
   154   104   103    1
   155   111   110   ar
   156     8    11   ar
   157    57    58    1
   158   108   110   ar
   159    14    13   ar
   160   103   102    1
   161    11    13   ar
   162    59    58    1
   163    59    60    2
   164    58    61    1
   165    62    61    1
   166   102    92   am
   167    85    84    2
   168    93    92    2
   169    92    91    1
   170    84    83    1
   171    86    83    1
   172    86    87    1
   173    99   100   ar
   174    99    97   ar
   175   101   100    1
   176   100    98   ar
   177    97    95   ar
   178    83    82    1
   179    87    89   ar
   180    87    88   ar
   181    91    90    1
   182    91    94    1
   183    98    96   ar
   184    95    96   ar
   185    95    94    1
