@<TRIPOS>MOLECULE
tmp/4ov5E00.pdb
 179 173 0 0 0
SMALL
GASTEIGER

@<TRIPOS>ATOM
      1  N         22.5550  -18.8550  -33.0480 N.3     7  GLN7       -0.1245
      2  CA        22.3860  -20.1650  -32.4420 C.3     7  GLN7        0.1566
      3  C         21.7830  -19.9530  -31.0620 C.2     7  GLN7        0.2260
      4  O         22.4770  -19.5490  -30.1290 O.2     7  GLN7       -0.2867
      5  CB        23.7270  -20.8890  -32.3300 C.3     7  GLN7        0.0367
      6  CG        23.6560  -22.2240  -31.6060 C.3     7  GLN7        0.0905
      7  CD        25.0240  -22.8530  -31.4100 C.2     7  GLN7        0.2608
      8  OE1       25.9490  -22.6120  -32.1860 O.2     7  GLN7       -0.2717
      9  NE2       25.1590  -23.6590  -30.3640 N.am    7  GLN7       -0.0878
     10  N         19.8180  -21.3370  -27.6830 N.3     9  GLU9       -0.1245
     11  CA        19.5410  -22.5020  -26.8600 C.3     9  GLU9        0.1567
     12  C         18.8190  -22.0610  -25.5970 C.2     9  GLU9        0.2260
     13  O         19.0680  -20.9700  -25.0870 O.2     9  GLU9       -0.2867
     14  CB        20.8440  -23.2080  -26.4800 C.3     9  GLU9        0.0388
     15  CG        21.7800  -23.4640  -27.6470 C.3     9  GLU9        0.1160
     16  CD        23.0950  -24.0830  -27.2160 C.2     9  GLU9        0.3649
     17  OE1       23.2230  -24.4400  -26.0290 O.co2   9  GLU9       -0.2457
     18  OE2       24.0030  -24.2080  -28.0620 O.co2   9  GLU9       -0.2457
     19  N         17.2440  -26.1910  -29.0670 N.3    20  PHE20      -0.1241
     20  CA        18.4590  -25.8350  -29.7780 C.3    20  PHE20       0.1605
     21  C         18.0550  -25.5070  -31.2050 C.2    20  PHE20       0.2264
     22  O         17.5390  -26.3670  -31.9160 O.2    20  PHE20      -0.2867
     23  CB        19.4420  -27.0080  -29.7630 C.3    20  PHE20       0.0534
     24  CG        20.7560  -26.7140  -30.4350 C.ar   20  PHE20      -0.0203
     25  CD1       20.8860  -26.8070  -31.8120 C.ar   20  PHE20      -0.0042
     26  CD2       21.8680  -26.3670  -29.6880 C.ar   20  PHE20      -0.0042
     27  CE1       22.0910  -26.5420  -32.4290 C.ar   20  PHE20      -0.0003
     28  CE2       23.0780  -26.1050  -30.3000 C.ar   20  PHE20      -0.0003
     29  CZ        23.1890  -26.1930  -31.6730 C.ar   20  PHE20      -0.0000
     30  N         18.8120  -22.7670  -34.9100 N.3    22  PHE22      -0.1241
     31  CA        19.5610  -21.7540  -35.6380 C.3    22  PHE22       0.1605
     32  C         18.5980  -20.7760  -36.2920 C.2    22  PHE22       0.2264
     33  O         17.5790  -21.1730  -36.8580 O.2    22  PHE22      -0.2867
     34  CB        20.4760  -22.3910  -36.6850 C.3    22  PHE22       0.0534
     35  CG        21.8880  -22.5920  -36.2120 C.ar   22  PHE22      -0.0203
     36  CD1       22.1950  -23.5960  -35.3110 C.ar   22  PHE22      -0.0042
     37  CD2       22.9080  -21.7760  -36.6700 C.ar   22  PHE22      -0.0042
     38  CE1       23.4920  -23.7850  -34.8750 C.ar   22  PHE22      -0.0003
     39  CE2       24.2070  -21.9580  -36.2380 C.ar   22  PHE22      -0.0003
     40  CZ        24.4990  -22.9640  -35.3390 C.ar   22  PHE22      -0.0000
     41  N         16.7550  -24.3690  -38.6480 N.3    30  PHE30      -0.1241
     42  CA        16.4410  -25.6940  -38.1390 C.3    30  PHE30       0.1605
     43  C         16.4420  -25.7040  -36.6210 C.2    30  PHE30       0.2264
     44  O         16.9420  -24.7780  -35.9810 O.2    30  PHE30      -0.2867
     45  CB        17.4390  -26.7330  -38.6640 C.3    30  PHE30       0.0534
     46  CG        18.8230  -26.6020  -38.0840 C.ar   30  PHE30      -0.0203
     47  CD1       19.1800  -27.2930  -36.9350 C.ar   30  PHE30      -0.0042
     48  CD2       19.7740  -25.8040  -38.6990 C.ar   30  PHE30      -0.0042
     49  CE1       20.4500  -27.1790  -36.4050 C.ar   30  PHE30      -0.0003
     50  CE2       21.0480  -25.6890  -38.1730 C.ar   30  PHE30      -0.0003
     51  CZ        21.3860  -26.3770  -37.0260 C.ar   30  PHE30      -0.0000
     52  N         14.7740  -29.5350  -40.2890 N.3    41  TRP41      -0.1241
     53  CA        14.9550  -28.3390  -41.1040 C.3    41  TRP41       0.1605
     54  C         13.6140  -27.6740  -41.4070 C.2    41  TRP41       0.2264
     55  O         12.6400  -28.3480  -41.7430 O.2    41  TRP41      -0.2867
     56  CB        15.7040  -28.6760  -42.3950 C.3    41  TRP41       0.0550
     57  CG        17.0810  -29.2210  -42.1530 C.ar   41  TRP41       0.0003
     58  CD1       17.4170  -30.5220  -41.9100 C.ar   41  TRP41       0.0946
     59  CD2       18.3080  -28.4790  -42.1240 C.ar   41  TRP41       0.0152
     60  NE1       18.7750  -30.6350  -41.7340 N.ar   41  TRP41      -0.2442
     61  CE2       19.3440  -29.3960  -41.8600 C.ar   41  TRP41       0.0810
     62  CE3       18.6280  -27.1300  -42.2950 C.ar   41  TRP41       0.0012
     63  CZ2       20.6790  -29.0060  -41.7650 C.ar   41  TRP41       0.0191
     64  CZ3       19.9540  -26.7450  -42.2020 C.ar   41  TRP41       0.0001
     65  CH2       20.9620  -27.6790  -41.9380 C.ar   41  TRP41       0.0015
     66  N         21.3410  -29.1920  -48.7700 N.3    49  PHE49      -0.1227
     67  CA        22.5980  -28.4970  -49.0230 C.3    49  PHE49       0.1736
     68  C         23.5280  -28.6400  -47.8240 C.2    49  PHE49       0.2595
     69  O         24.7500  -28.5960  -47.9640 O.2    49  PHE49      -0.2718
     70  CB        22.3590  -27.0070  -49.2870 C.3    49  PHE49       0.0547
     71  CG        21.8540  -26.6960  -50.6690 C.ar   49  PHE49      -0.0202
     72  CD1       22.5820  -27.0600  -51.7900 C.ar   49  PHE49      -0.0042
     73  CD2       20.6670  -26.0030  -50.8450 C.ar   49  PHE49      -0.0042
     74  CE1       22.1210  -26.7600  -53.0620 C.ar   49  PHE49      -0.0003
     75  CE2       20.2030  -25.7000  -52.1130 C.ar   49  PHE49      -0.0003
     76  CZ        20.9310  -26.0790  -53.2220 C.ar   49  PHE49      -0.0000
     77  N         22.9400  -28.8040  -46.6440 N.am   50  ALA50      -0.1966
     78  CA        23.7100  -28.8230  -45.4070 C.3    50  ALA50       0.1728
     79  C         23.2180  -29.8870  -44.4370 C.2    50  ALA50       0.2617
     80  O         22.1130  -30.4140  -44.5780 O.2    50  ALA50      -0.2715
     81  CB        23.6700  -27.4580  -44.7470 C.3    50  ALA50       0.0334
     82  N         24.0470  -30.1890  -43.4440 N.am   51  SER51      -0.1936
     83  CA        23.7080  -31.1810  -42.4360 C.3    51  SER51       0.2055
     84  C         24.1850  -30.7430  -41.0550 C.2    51  SER51       0.2643
     85  O         25.1000  -29.9290  -40.9320 O.2    51  SER51      -0.2714
     86  CB        24.3150  -32.5390  -42.7970 C.3    51  SER51       0.2130
     87  OG        25.7210  -32.4450  -42.9440 O.3    51  SER51      -0.2179
     88  N         23.5500  -31.2880  -40.0230 N.am   52  PHE52      -0.1959
     89  CA        23.9270  -31.0100  -38.6440 C.3    52  PHE52       0.1771
     90  C         23.6780  -32.2440  -37.7870 C.2    52  PHE52       0.2619
     91  O         22.5690  -32.7770  -37.7640 O.2    52  PHE52      -0.2715
     92  CB        23.1310  -29.8250  -38.0920 C.3    52  PHE52       0.0574
     93  CG        23.4280  -29.5140  -36.6520 C.ar   52  PHE52      -0.0200
     94  CD1       24.5020  -28.7080  -36.3130 C.ar   52  PHE52      -0.0042
     95  CD2       22.6380  -30.0310  -35.6380 C.ar   52  PHE52      -0.0042
     96  CE1       24.7820  -28.4220  -34.9900 C.ar   52  PHE52      -0.0003
     97  CE2       22.9140  -29.7500  -34.3130 C.ar   52  PHE52      -0.0003
     98  CZ        23.9870  -28.9450  -33.9890 C.ar   52  PHE52      -0.0000
     99  N         24.7080  -32.6960  -37.0810 N.am   53  GLU53      -0.1977
    100  CA        24.5710  -33.8560  -36.2100 C.3    53  GLU53       0.1602
    101  C         23.8490  -33.4780  -34.9250 C.2    53  GLU53       0.2287
    102  O         24.3360  -32.6630  -34.1420 O.2    53  GLU53      -0.2864
    103  CB        25.9380  -34.4630  -35.8990 C.3    53  GLU53       0.0415
    104  CG        26.6870  -34.9310  -37.1320 C.3    53  GLU53       0.1163
    105  CD        25.9780  -36.0640  -37.8520 C.2    53  GLU53       0.3649
    106  OE1       25.3580  -36.9090  -37.1730 O.co2  53  GLU53      -0.2457
    107  OE2       26.0410  -36.1080  -39.0980 O.co2  53  GLU53      -0.2457
    108  N         25.3250  -33.4120  -31.1090 N.3    56  GLY56      -0.1225
    109  CA        26.1030  -32.2780  -30.6490 C.3    56  GLY56       0.1811
    110  C         25.2560  -31.2830  -29.8790 C.2    56  GLY56       0.2280
    111  O         25.7120  -30.6880  -28.9040 O.2    56  GLY56      -0.2866
    112  N         24.3190  -32.5580  -26.3020 N.3    59  ALA59      -0.1231
    113  CA        25.3800  -32.3410  -25.3300 C.3    59  ALA59       0.1694
    114  C         25.3130  -30.9110  -24.8050 C.2    59  ALA59       0.2592
    115  O         25.4160  -30.6820  -23.6010 O.2    59  ALA59      -0.2718
    116  CB        26.7370  -32.6240  -25.9480 C.3    59  ALA59       0.0304
    117  N         25.1310  -29.9580  -25.7180 N.am   60  ASN60      -0.1974
    118  CA        24.9870  -28.5490  -25.3570 C.3    60  ASN60       0.1688
    119  C         23.8770  -28.3180  -24.3400 C.2    60  ASN60       0.2292
    120  O         24.0400  -27.5530  -23.3900 O.2    60  ASN60      -0.2864
    121  CB        24.7200  -27.6940  -26.6000 C.3    60  ASN60       0.1181
    122  CG        25.9890  -27.3280  -27.3420 C.2    60  ASN60       0.2629
    123  OD1       26.9630  -28.0800  -27.3410 O.2    60  ASN60      -0.2716
    124  ND2       25.9860  -26.1600  -27.9760 N.am   60  ASN60      -0.0877
    125  N         24.7910  -29.1590  -20.7230 N.3    63  VAL63      -0.1231
    126  CA        25.5680  -28.1230  -20.0460 C.3    63  VAL63       0.1692
    127  C         24.7110  -26.8900  -19.7590 C.2    63  VAL63       0.2592
    128  O         24.9630  -26.1670  -18.7960 O.2    63  VAL63      -0.2718
    129  CB        26.8630  -27.7410  -20.8200 C.3    63  VAL63       0.0266
    130  CG1       27.1940  -28.7930  -21.8610 C.3    63  VAL63       0.0020
    131  CG2       26.7450  -26.3640  -21.4630 C.3    63  VAL63       0.0020
    132  N         23.6930  -26.6610  -20.5870 N.am   64  ASP64      -0.1974
    133  CA        22.7410  -25.5840  -20.3400 C.3    64  ASP64       0.1709
    134  C         21.9530  -25.8990  -19.0820 C.2    64  ASP64       0.2293
    135  O         21.7010  -25.0240  -18.2550 O.2    64  ASP64      -0.2864
    136  CB        21.7670  -25.4290  -21.5090 C.3    64  ASP64       0.1436
    137  CG        22.4440  -24.9790  -22.7830 C.2    64  ASP64       0.3671
    138  OD1       23.5590  -24.4200  -22.7100 O.co2  64  ASP64      -0.2456
    139  OD2       21.8490  -25.1820  -23.8600 O.co2  64  ASP64      -0.2456
    140  N         22.9040  -27.8880  -16.5920 N.3    66  ALA66      -0.1231
    141  CA        23.8030  -27.7890  -15.4480 C.3    66  ALA66       0.1694
    142  C         24.1080  -26.3340  -15.1190 C.2    66  ALA66       0.2592
    143  O         24.2830  -25.9740  -13.9560 O.2    66  ALA66      -0.2718
    144  CB        25.0880  -28.5560  -15.7130 C.3    66  ALA66       0.0304
    145  N         24.1800  -25.4960  -16.1470 N.am   67  ASN67      -0.1974
    146  CA        24.4150  -24.0740  -15.9350 C.3    67  ASN67       0.1688
    147  C         23.1900  -23.3780  -15.3540 C.2    67  ASN67       0.2292
    148  O         23.3150  -22.3840  -14.6400 O.2    67  ASN67      -0.2864
    149  CB        24.8740  -23.3940  -17.2280 C.3    67  ASN67       0.1181
    150  CG        26.3280  -23.6830  -17.5520 C.2    67  ASN67       0.2629
    151  OD1       26.9980  -24.4260  -16.8350 O.2    67  ASN67      -0.2716
    152  ND2       26.8220  -23.0990  -18.6370 N.am   67  ASN67      -0.0877
    153  N         23.1200  -24.0030  -11.5130 N.3    70  ILE70      -0.1231
    154  CA        24.1490  -23.1730  -10.8940 C.3    70  ILE70       0.1692
    155  C         23.6670  -21.7330  -10.7420 C.2    70  ILE70       0.2591
    156  O         23.8190  -21.1240   -9.6820 O.2    70  ILE70      -0.2718
    157  CB        25.4580  -23.1940  -11.7070 C.3    70  ILE70       0.0266
    158  CG1       26.1200  -24.5700  -11.6110 C.3    70  ILE70       0.0019
    159  CG2       26.4130  -22.1160  -11.2160 C.3    70  ILE70       0.0020
    160  CD1       27.3290  -24.7290  -12.5040 C.3    70  ILE70       0.0001
    161  N         23.0750  -21.1970  -11.8040 N.am   71  MET71      -0.1979
    162  CA        22.5880  -19.8230  -11.7920 C.3    71  MET71       0.1605
    163  C         21.2970  -19.6960  -10.9840 C.2    71  MET71       0.2287
    164  O         20.9680  -18.6170  -10.4910 O.2    71  MET71      -0.2864
    165  CB        22.3810  -19.3150  -13.2230 C.3    71  MET71       0.0413
    166  CG        22.0840  -17.8250  -13.3230 C.3    71  MET71       0.0598
    167  SD        23.4440  -16.7730  -12.7750 S.3    71  MET71      -0.1393
    168  CE        24.6270  -17.0150  -14.0970 C.3    71  MET71       0.0692
    169  N         22.4140  -19.4150   -7.3350 N.3    74  ARG74      -0.1245
    170  CA        23.1380  -18.1540   -7.1960 C.3    74  ARG74       0.1563
    171  C         22.2050  -16.9440   -7.1250 C.2    74  ARG74       0.2260
    172  O         22.5090  -15.9520   -6.4590 O.2    74  ARG74      -0.2867
    173  CB        24.1250  -17.9810   -8.3520 C.3    74  ARG74       0.0307
    174  CG        25.0730  -16.8070   -8.1840 C.3    74  ARG74       0.0489
    175  CD        25.7510  -16.4390   -9.4950 C.3    74  ARG74       0.2205
    176  NE        26.6380  -17.4970   -9.9680 N.pl3  74  ARG74      -0.0865
    177  CZ        27.3080  -17.4580  -11.1150 C.cat  74  ARG74       0.5346
    178  NH1       27.1970  -16.4110  -11.9210 N.pl3  74  ARG74       0.1354
    179  NH2       28.0910  -18.4710  -11.4590 N.pl3  74  ARG74       0.1354
@<TRIPOS>BOND
     1    76    74   ar
     2    76    75   ar
     3    74    72   ar
     4    75    73   ar
     5    72    71   ar
     6    73    71   ar
     7    71    70    1
     8    70    67    1
     9    67    66    1
    10    67    68    1
    11    69    68    2
    12    68    77   am
    13    77    78    1
    14    78    81    1
    15    78    79    1
    16    80    79    2
    17    79    82   am
    18    82    83    1
    19    87    86    1
    20    86    83    1
    21    83    84    1
    22    56    57    1
    23    56    53    1
    24    62    64   ar
    25    62    59   ar
    26    64    65   ar
    27    57    59   ar
    28    57    58   ar
    29    59    61   ar
    30    65    63   ar
    31    58    60   ar
    32    61    63   ar
    33    61    60   ar
    34    55    54    2
    35    54    53    1
    36    53    52    1
    37    84    85    2
    38    84    88   am
    39    88    89    1
    40   107   105   ar
    41    48    50   ar
    42    48    46   ar
    43    45    42    1
    44    45    46    1
    45    41    42    1
    46    89    92    1
    47    89    90    1
    48    50    51   ar
    49    42    43    1
    50    92    93    1
    51    46    47   ar
    52   105   106   ar
    53   105   104    1
    54    90    91    2
    55    90    99   am
    56   104   103    1
    57    99   100    1
    58    51    49   ar
    59    47    49   ar
    60    33    32    2
    61    34    35    1
    62    34    31    1
    63    37    39   ar
    64    37    35   ar
    65    93    94   ar
    66    93    95   ar
    67    43    44    2
    68    94    96   ar
    69    32    31    1
    70    39    40   ar
    71    35    36   ar
    72   100   103    1
    73   100   101    1
    74    95    97   ar
    75    31    30    1
    76    40    38   ar
    77    36    38   ar
    78    96    98   ar
    79   101   102    2
    80    97    98   ar
    81     1     2    1
    82     2     5    1
    83     2     3    1
    84    27    25   ar
    85    27    29   ar
    86     5     6    1
    87     8     7    2
    88    22    21    2
    89    25    24   ar
    90    29    28   ar
    91     6     7    1
    92     7     9   am
    93    21    20    1
    94   108   109    1
    95     3     4    2
    96   109   110    1
    97    24    23    1
    98    24    26   ar
    99    28    26   ar
   100   110   111    2
   101    20    23    1
   102    20    19    1
   103    18    16   ar
   104   124   122   am
   105    10    11    1
   106    15    16    1
   107    15    14    1
   108   122   123    2
   109   122   121    1
   110    16    17   ar
   111    11    14    1
   112    11    12    1
   113   121   118    1
   114   112   113    1
   115   116   113    1
   116   117   118    1
   117   117   114   am
   118    12    13    2
   119   118   119    1
   120   113   114    1
   121   114   115    2
   122   119   120    2
   123   139   137   ar
   124   137   138   ar
   125   137   136    1
   126   130   129    1
   127   136   133    1
   128   131   129    1
   129   129   126    1
   130   125   126    1
   131   132   133    1
   132   132   127   am
   133   133   134    1
   134   126   127    1
   135   127   128    2
   136   134   135    2
   137   152   150   am
   138   150   149    1
   139   150   151    2
   140   149   146    1
   141   140   141    1
   142   145   146    1
   143   145   142   am
   144   146   147    1
   145   144   141    1
   146   141   142    1
   147   147   148    2
   148   142   143    2
   149   168   167    1
   150   166   165    1
   151   166   167    1
   152   165   162    1
   153   160   158    1
   154   178   177    1
   155   161   162    1
   156   161   155   am
   157   162   163    1
   158   157   158    1
   159   157   159    1
   160   157   154    1
   161   153   154    1
   162   179   177    1
   163   177   176    2
   164   163   164    2
   165   154   155    1
   166   155   156    2
   167   176   175    1
   168   175   174    1
   169   173   174    1
   170   173   170    1
   171   169   170    1
   172   170   171    1
   173   171   172    2
