@<TRIPOS>MOLECULE
tmp/4ov9A00.pdb
 130 121 0 0 0
SMALL
GASTEIGER

@<TRIPOS>ATOM
      1  N         71.1720   64.5460    3.0980 N.3    12  ARG12      -0.1231
      2  CA        70.7410   63.7960    4.2740 C.3    12  ARG12       0.1694
      3  C         71.5260   64.2510    5.4980 C.2    12  ARG12       0.2592
      4  O         70.9840   64.9380    6.3660 O.2    12  ARG12      -0.2718
      5  CB        70.8890   62.2860    4.0430 C.3    12  ARG12       0.0321
      6  CG        70.1720   61.3990    5.0670 C.3    12  ARG12       0.0489
      7  CD        70.9770   61.2150    6.3510 C.3    12  ARG12       0.2205
      8  NE        72.2470   60.5080    6.1550 N.pl3  12  ARG12      -0.0865
      9  CZ        73.1970   60.4070    7.0830 C.cat  12  ARG12       0.5346
     10  NH1       73.0330   60.9790    8.2730 N.pl3  12  ARG12       0.1354
     11  NH2       74.3160   59.7380    6.8260 N.pl3  12  ARG12       0.1354
     12  N         72.8040   63.8840    5.5540 N.am   13  ASP13      -0.1974
     13  CA        73.6640   64.2410    6.6850 C.3    13  ASP13       0.1709
     14  C         73.8550   65.7650    6.7750 C.2    13  ASP13       0.2293
     15  O         73.7580   66.3440    7.8600 O.2    13  ASP13      -0.2864
     16  CB        75.0100   63.4930    6.5930 C.3    13  ASP13       0.1436
     17  CG        75.6080   63.1640    7.9570 C.2    13  ASP13       0.3671
     18  OD1       75.3300   63.8880    8.9370 O.co2  13  ASP13      -0.2456
     19  OD2       76.3810   62.1860    8.0490 O.co2  13  ASP13      -0.2456
     20  N         70.1690   67.6240    7.5520 N.3    16  GLN16      -0.1245
     21  CA        69.6820   67.3370    8.9180 C.3    16  GLN16       0.1566
     22  C         70.3300   68.2120   10.0060 C.2    16  GLN16       0.2260
     23  O         69.7400   68.4280   11.0670 O.2    16  GLN16      -0.2867
     24  CB        69.8470   65.8370    9.2680 C.3    16  GLN16       0.0367
     25  CG        71.2480   65.4250    9.7540 C.3    16  GLN16       0.0905
     26  CD        71.4270   63.9250    9.9760 C.2    16  GLN16       0.2608
     27  OE1       70.7520   63.0960    9.3620 O.2    16  GLN16      -0.2717
     28  NE2       72.3730   63.5720   10.8420 N.am   16  GLN16      -0.0878
     29  N         66.1130   60.9080    4.3740 N.3    46  PHE46      -0.1241
     30  CA        65.7490   59.9580    5.4170 C.3    46  PHE46       0.1605
     31  C         64.2200   59.9450    5.3720 C.2    46  PHE46       0.2264
     32  O         63.5770   60.5860    6.1930 O.2    46  PHE46      -0.2867
     33  CB        66.2300   60.5120    6.7690 C.3    46  PHE46       0.0534
     34  CG        66.3470   59.4890    7.8720 C.ar   46  PHE46      -0.0203
     35  CD1       65.4140   58.4760    8.0310 C.ar   46  PHE46      -0.0042
     36  CD2       67.3840   59.5830    8.7910 C.ar   46  PHE46      -0.0042
     37  CE1       65.5280   57.5530    9.0600 C.ar   46  PHE46      -0.0003
     38  CE2       67.5060   58.6640    9.8280 C.ar   46  PHE46      -0.0003
     39  CZ        66.5760   57.6430    9.9600 C.ar   46  PHE46      -0.0000
     40  N         68.2670   56.7190    3.5770 N.3    73  LEU73      -0.1245
     41  CA        68.6290   56.0890    4.8450 C.3    73  LEU73       0.1561
     42  C         67.4120   55.6330    5.6380 C.2    73  LEU73       0.2260
     43  O         66.3930   56.3360    5.6970 O.2    73  LEU73      -0.2867
     44  CB        69.4850   57.0340    5.6920 C.3    73  LEU73       0.0270
     45  CG        69.9710   56.5580    7.0640 C.3    73  LEU73       0.0019
     46  CD1       71.0130   55.4480    6.9570 C.3    73  LEU73       0.0001
     47  CD2       70.5220   57.7580    7.8190 C.3    73  LEU73       0.0001
     48  N         69.7810   52.0240    2.2050 N.3    97  HIS97      -0.1241
     49  CA        70.8490   52.2310    3.1710 C.3    97  HIS97       0.1621
     50  C         70.2880   52.0610    4.5540 C.2    97  HIS97       0.2264
     51  O         69.3930   52.8000    4.9750 O.2    97  HIS97      -0.2867
     52  CB        71.5020   53.6060    2.9680 C.3    97  HIS97       0.0745
     53  CG        72.6290   53.9140    3.9390 C.ar   97  HIS97       0.0817
     54  ND1       73.1920   55.1330    4.0260 N.ar   97  HIS97      -0.2268
     55  CD2       73.2680   53.1200    4.8910 C.ar   97  HIS97       0.1154
     56  CE1       74.1530   55.1180    4.9700 C.ar   97  HIS97       0.1986
     57  NE2       74.1980   53.8880    5.4980 N.ar   97  HIS97      -0.2212
     58  N         71.2220   51.4300    8.7270 N.3    99  VAL99      -0.1245
     59  CA        72.2160   51.6950    9.7520 C.3    99  VAL99       0.1561
     60  C         71.8060   51.0020   11.0600 C.2    99  VAL99       0.2260
     61  O         70.6220   50.8790   11.3710 O.2    99  VAL99      -0.2867
     62  CB        72.4200   53.2240    9.9370 C.3    99  VAL99       0.0252
     63  CG1       71.1230   53.9070   10.3730 C.3    99  VAL99       0.0019
     64  CG2       73.5530   53.5230   10.9170 C.3    99  VAL99       0.0019
     65  N         75.4970   50.2780    7.1630 N.3   142  SER142     -0.1217
     66  CA        76.4510   51.0380    7.9760 C.3   142  SER142      0.1889
     67  C         76.4220   50.5510    9.4070 C.2   142  SER142      0.2288
     68  O         75.3470   50.4210    9.9990 O.2   142  SER142     -0.2866
     69  CB        76.1000   52.5260    7.9920 C.3   142  SER142      0.2089
     70  OG        76.1820   53.0830    6.7050 O.3   142  SER142     -0.2183
     71  N         76.9990   51.8840   12.7110 N.3   144  GLU144     -0.1245
     72  CA        77.1670   53.1860   13.3500 C.3   144  GLU144      0.1567
     73  C         78.1810   53.1110   14.4890 C.2   144  GLU144      0.2260
     74  O         78.2030   52.1340   15.2340 O.2   144  GLU144     -0.2867
     75  CB        75.8300   53.7360   13.8540 C.3   144  GLU144      0.0388
     76  CG        75.8160   55.2560   13.9660 C.3   144  GLU144      0.1160
     77  CD        74.7190   55.7960   14.8720 C.2   144  GLU144      0.3649
     78  OE1       74.5790   57.0370   14.9580 O.co2 144  GLU144     -0.2457
     79  OE2       73.9990   54.9920   15.5030 O.co2 144  GLU144     -0.2457
     80  N         79.3870   49.9760    4.7910 N.3   172  ASN172     -0.1240
     81  CA        79.8010   51.3540    5.0320 C.3   172  ASN172      0.1653
     82  C         80.3470   51.4560    6.4500 C.2   172  ASN172      0.2266
     83  O         79.7170   50.9910    7.3990 O.2   172  ASN172     -0.2867
     84  CB        78.6330   52.3240    4.7960 C.3   172  ASN172      0.1155
     85  CG        79.0430   53.7940    4.8820 C.2   172  ASN172      0.2627
     86  OD1       80.0710   54.2150    4.3290 O.2   172  ASN172     -0.2716
     87  ND2       78.2190   54.5920    5.5650 N.am  172  ASN172     -0.0877
     88  N         81.4550   53.9660    9.2040 N.3   174  PRO174     -0.2116
     89  CA        81.4750   55.3630    9.6180 C.3   174  PRO174      0.1372
     90  C         82.4010   55.6580   10.7890 C.2   174  PRO174      0.2244
     91  O         82.4900   54.8720   11.7410 O.2   174  PRO174     -0.2868
     92  CB        80.0180   55.6480   10.0070 C.3   174  PRO174      0.0268
     93  CG        79.4280   54.3240   10.3280 C.3   174  PRO174      0.0207
     94  CD        80.2210   53.2720    9.6120 C.3   174  PRO174      0.0892
     95  N         81.7020   57.9960   12.9420 N.3   176  THR176     -0.1218
     96  CA        80.5410   58.7950   13.3400 C.3   176  THR176      0.1862
     97  C         80.9350   60.0120   14.1660 C.2   176  THR176      0.2287
     98  O         80.4250   61.1120   13.9450 O.2   176  THR176     -0.2866
     99  CB        79.5530   57.9230   14.1310 C.3   176  THR176      0.1770
    100  OG1       79.2460   56.7570   13.3570 O.3   176  THR176     -0.2211
    101  CG2       78.2590   58.6840   14.4510 C.3   176  THR176      0.0375
    102  N         82.7380   56.6470    5.6830 N.3   205  HIS205     -0.1241
    103  CA        81.9090   57.8000    6.0370 C.3   205  HIS205      0.1621
    104  C         82.4860   58.4460    7.2800 C.2   205  HIS205      0.2264
    105  O         82.2930   57.9500    8.3770 O.2   205  HIS205     -0.2867
    106  CB        80.4840   57.2950    6.2800 C.3   205  HIS205      0.0745
    107  CG        79.5030   58.3600    6.6990 C.ar  205  HIS205      0.0817
    108  ND1       78.5790   58.8670    5.8560 N.ar  205  HIS205     -0.2268
    109  CD2       79.3030   58.9870    7.9230 C.ar  205  HIS205      0.1154
    110  CE1       77.8380   59.7810    6.5020 C.ar  205  HIS205      0.1986
    111  NE2       78.2820   59.8540    7.7690 N.ar  205  HIS205     -0.2212
    112  N         83.4250   61.8280    9.9500 N.3   207  HIS207     -0.1241
    113  CA        83.1040   63.1820   10.4050 C.3   207  HIS207      0.1621
    114  C         84.3490   63.9110   10.8340 C.2   207  HIS207      0.2264
    115  O         85.3960   63.2940   10.9670 O.2   207  HIS207     -0.2867
    116  CB        82.0190   63.1650   11.4860 C.3   207  HIS207      0.0745
    117  CG        80.6440   62.9190   10.9350 C.ar  207  HIS207      0.0817
    118  ND1       79.8800   63.9090   10.4390 N.ar  207  HIS207     -0.2268
    119  CD2       79.9140   61.7460   10.7800 C.ar  207  HIS207      0.1154
    120  CE1       78.7120   63.4000   10.0020 C.ar  207  HIS207      0.1986
    121  NE2       78.7350   62.0780   10.2050 N.ar  207  HIS207     -0.2212
    122  N         76.7110   66.6870   10.3130 N.3   237  GLU237     -0.1245
    123  CA        76.7390   66.7110   11.7800 C.3   237  GLU237      0.1567
    124  C         77.9850   67.3570   12.3810 C.2   237  GLU237      0.2260
    125  O         79.1140   66.9850   12.0460 O.2   237  GLU237     -0.2867
    126  CB        76.5830   65.3030   12.3430 C.3   237  GLU237      0.0388
    127  CG        75.1530   64.7940   12.3280 C.3   237  GLU237      0.1160
    128  CD        74.2180   65.6370   13.1730 C.2   237  GLU237      0.3649
    129  OE1       73.1800   66.0740   12.6470 O.co2 237  GLU237     -0.2457
    130  OE2       74.5230   65.8810   14.3590 O.co2 237  GLU237     -0.2457
@<TRIPOS>BOND
     1    48    49    1
     2    52    49    1
     3    52    53    1
     4     1     2    1
     5    49    50    1
     6    40    41    1
     7    53    54   ar
     8    53    55   ar
     9    54    56   ar
    10     5     2    1
    11     5     6    1
    12     2     3    1
    13    86    85    2
    14    29    30    1
    15    50    51    2
    16    80    81    1
    17    84    85    1
    18    84    81    1
    19    41    42    1
    20    41    44    1
    21    85    87   am
    22    55    57   ar
    23    56    57   ar
    24    81    82    1
    25     6     7    1
    26    31    30    1
    27    31    32    2
    28    30    33    1
    29     3    12   am
    30     3     4    2
    31    12    13    1
    32    42    43    2
    33   102   103    1
    34    44    45    1
    35   108   110   ar
    36   108   107   ar
    37   103   106    1
    38   103   104    1
    39     8     7    1
    40     8     9    2
    41   106   107    1
    42    82    83    2
    43   110   111   ar
    44    16    13    1
    45    16    17    1
    46    13    14    1
    47   107   109   ar
    48    70    69    1
    49    33    34    1
    50    14    15    2
    51    11     9    1
    52    46    45    1
    53    45    47    1
    54     9    10    1
    55    65    66    1
    56   104   105    2
    57    20    21    1
    58   111   109   ar
    59    34    35   ar
    60    34    36   ar
    61    17    19   ar
    62    17    18   ar
    63    66    69    1
    64    66    67    1
    65    35    37   ar
    66    58    59    1
    67    36    38   ar
    68    21    24    1
    69    21    22    1
    70    37    39   ar
    71    88    94    1
    72    88    89    1
    73    24    25    1
    74    27    26    2
    75    67    68    2
    76    94    93    1
    77    89    92    1
    78    89    90    1
    79    59    62    1
    80    59    60    1
    81    25    26    1
    82    38    39   ar
    83    62    63    1
    84    62    64    1
    85   112   113    1
    86    26    28   am
    87   120   121   ar
    88   120   118   ar
    89    22    23    2
    90    92    93    1
    91   121   119   ar
    92   122   123    1
    93   113   114    1
    94   113   116    1
    95   118   117   ar
    96   119   117   ar
    97    90    91    2
    98   114   115    2
    99   117   116    1
   100    60    61    2
   101   123   126    1
   102   123   124    1
   103   125   124    2
   104   127   126    1
   105   127   128    1
   106   129   128   ar
   107    71    72    1
   108    95    96    1
   109   128   130   ar
   110    96    99    1
   111    96    97    1
   112    72    75    1
   113    72    73    1
   114   100    99    1
   115    75    76    1
   116    98    97    2
   117    76    77    1
   118    99   101    1
   119    73    74    2
   120    77    78   ar
   121    77    79   ar
