@<TRIPOS>MOLECULE
tmp/4oveA01.pdb
 83 79 0 0 0
SMALL
GASTEIGER

@<TRIPOS>ATOM
      1  N         46.1620    9.0320  -28.8320 N.3    95  PRO95      -0.2102
      2  CA        45.1770    9.2210  -27.7810 C.3    95  PRO95       0.1504
      3  C         45.4900   10.4570  -26.9410 C.2    95  PRO95       0.2576
      4  O         46.6210   10.9630  -26.9890 O.2    95  PRO95      -0.2718
      5  CB        45.3840    7.9760  -26.9090 C.3    95  PRO95       0.0282
      6  CG        46.8680    7.7410  -26.9790 C.3    95  PRO95       0.0208
      7  CD        47.3660    8.3660  -28.2790 C.3    95  PRO95       0.0893
      8  N         44.5090   10.9160  -26.1640 N.am   96  HIS96      -0.1962
      9  CA        44.7420   12.0500  -25.2870 C.3    96  HIS96       0.1787
     10  C         43.7620   12.1020  -24.1390 C.2    96  HIS96       0.2620
     11  O         42.7590   11.3710  -24.1160 O.2    96  HIS96      -0.2715
     12  CB        44.6720   13.3470  -26.0720 C.3    96  HIS96       0.0785
     13  CG        43.3340   13.6010  -26.6660 C.ar   96  HIS96       0.0821
     14  ND1       43.0940   13.5220  -28.0170 N.ar   96  HIS96      -0.2267
     15  CD2       42.1500   13.9140  -26.0920 C.ar   96  HIS96       0.1154
     16  CE1       41.8150   13.7830  -28.2480 C.ar   96  HIS96       0.1986
     17  NE2       41.2200   14.0280  -27.0970 N.ar   96  HIS96      -0.2212
     18  N         44.0590   12.9650  -23.1730 N.am   97  ASN97      -0.1972
     19  CA        43.1340   13.2200  -22.0830 C.3    97  ASN97       0.1688
     20  C         43.2560   14.6520  -21.5830 C.2    97  ASN97       0.2292
     21  O         44.1470   14.9810  -20.8040 O.2    97  ASN97      -0.2864
     22  CB        43.3060   12.1770  -20.9570 C.3    97  ASN97       0.1181
     23  CG        42.3770   10.9880  -21.1290 C.2    97  ASN97       0.2629
     24  OD1       41.3080   11.1420  -21.6750 O.2    97  ASN97      -0.2716
     25  ND2       42.7660    9.8170  -20.6870 N.am   97  ASN97      -0.0877
     26  N         41.9380   17.3140  -19.3640 N.3    99  THR99      -0.1218
     27  CA        41.2060   17.2450  -18.1080 C.3    99  THR99       0.1862
     28  C         40.9350   18.5830  -17.5170 C.2    99  THR99       0.2287
     29  O         41.7540   19.5100  -17.5960 O.2    99  THR99      -0.2866
     30  CB        41.9740   16.4620  -17.0790 C.3    99  THR99       0.1770
     31  OG1       43.3400   16.8490  -17.1490 O.3    99  THR99      -0.2211
     32  CG2       41.8640   15.0180  -17.3970 C.3    99  THR99       0.0375
     33  N         34.6410   11.3870  -20.1520 N.3   126  ALA126     -0.1245
     34  CA        34.2320   10.7920  -18.8970 C.3   126  ALA126      0.1562
     35  C         34.2710   11.8310  -17.7850 C.2   126  ALA126      0.2260
     36  O         34.9620   12.8740  -17.8590 O.2   126  ALA126     -0.2867
     37  CB        35.1350    9.6220  -18.5200 C.3   126  ALA126      0.0290
     38  N         34.4550   11.9540  -13.4940 N.3   128  TYR128     -0.1241
     39  CA        34.9330   11.2380  -12.3570 C.3   128  TYR128      0.1605
     40  C         34.8410   12.1150  -11.1410 C.2   128  TYR128      0.2264
     41  O         34.9110   13.3310  -11.2600 O.2   128  TYR128     -0.2867
     42  CB        36.4030   10.9640  -12.5130 C.3   128  TYR128      0.0534
     43  CG        36.7950   10.0980  -13.6510 C.ar  128  TYR128     -0.0201
     44  CD1       37.1360   10.6490  -14.8820 C.ar  128  TYR128     -0.0009
     45  CD2       36.8860    8.7320  -13.4870 C.ar  128  TYR128     -0.0009
     46  CE1       37.5490    9.8530  -15.9290 C.ar  128  TYR128      0.0417
     47  CE2       37.2910    7.9150  -14.5240 C.ar  128  TYR128      0.0417
     48  CZ        37.6240    8.4820  -15.7480 C.ar  128  TYR128      0.1957
     49  OH        38.0160    7.6590  -16.7800 O.3   128  TYR128     -0.2866
     50  N         36.3880    2.7170  -23.2760 N.3   151  TYR151     -0.1241
     51  CA        36.3630    2.7390  -21.8260 C.3   151  TYR151      0.1605
     52  C         36.1820    1.3570  -21.2740 C.2   151  TYR151      0.2264
     53  O         36.0360    1.1800  -20.0800 O.2   151  TYR151     -0.2867
     54  CB        35.2240    3.6570  -21.3440 C.3   151  TYR151      0.0534
     55  CG        35.4730    5.1410  -21.6300 C.ar  151  TYR151     -0.0201
     56  CD1       36.6420    5.7440  -21.2160 C.ar  151  TYR151     -0.0009
     57  CD2       34.5400    5.9360  -22.3060 C.ar  151  TYR151     -0.0009
     58  CE1       36.8910    7.0900  -21.4510 C.ar  151  TYR151      0.0417
     59  CE2       34.7790    7.2980  -22.5430 C.ar  151  TYR151      0.0417
     60  CZ        35.9700    7.8630  -22.1100 C.ar  151  TYR151      0.1957
     61  OH        36.3140    9.1750  -22.3240 O.3   151  TYR151     -0.2866
     62  N         36.1990   15.6390  -11.9520 N.3   214  ARG214     -0.1245
     63  CA        37.0750   15.6360  -13.1250 C.3   214  ARG214      0.1563
     64  C         36.3320   15.2520  -14.3580 C.2   214  ARG214      0.2260
     65  O         35.6210   14.2480  -14.3740 O.2   214  ARG214     -0.2867
     66  CB        38.1950   14.6100  -12.9940 C.3   214  ARG214      0.0307
     67  CG        39.5430   15.2290  -13.2950 C.3   214  ARG214      0.0489
     68  CD        40.5070   14.3110  -14.0010 C.3   214  ARG214      0.2205
     69  NE        41.4000   13.5410  -13.1180 N.pl3 214  ARG214     -0.0865
     70  CZ        42.3420   14.0450  -12.3060 C.cat 214  ARG214      0.5346
     71  NH1       42.5370   15.3520  -12.1960 N.pl3 214  ARG214      0.1354
     72  NH2       43.0730   13.2180  -11.5570 N.pl3 214  ARG214      0.1354
     73  N         37.3070   14.4300  -18.2920 N.3   216  ALA216     -0.1245
     74  CA        38.3600   14.1560  -19.2230 C.3   216  ALA216      0.1562
     75  C         37.8030   13.8660  -20.6350 C.2   216  ALA216      0.2260
     76  O         36.8600   13.0970  -20.8190 O.2   216  ALA216     -0.2867
     77  CB        39.1740   13.0100  -18.6990 C.3   216  ALA216      0.0290
     78  N         38.6660   12.5180  -24.3960 N.3   218  SER218     -0.1217
     79  CA        39.6620   11.6300  -24.9770 C.3   218  SER218      0.1889
     80  C         39.5340   11.3170  -26.4640 C.2   218  SER218      0.2288
     81  O         40.3060   10.5040  -26.9530 O.2   218  SER218     -0.2866
     82  CB        39.7360   10.3380  -24.1810 C.3   218  SER218      0.2089
     83  OG        39.6620   10.6350  -22.8050 O.3   218  SER218     -0.2183
@<TRIPOS>BOND
     1     1     7    1
     2     1     2    1
     3     7     6    1
     4    16    14   ar
     5    16    17   ar
     6    14    13   ar
     7     2     3    1
     8     2     5    1
     9    17    15   ar
    10     4     3    2
    11     6     5    1
    12    81    80    2
    13     3     8   am
    14    13    15   ar
    15    13    12    1
    16    80    79    1
    17     8     9    1
    18    12     9    1
    19     9    10    1
    20    79    78    1
    21    79    82    1
    22    82    83    1
    23    10    11    2
    24    10    18   am
    25    50    51    1
    26    18    19    1
    27    59    57   ar
    28    59    60   ar
    29    61    60    1
    30    57    55   ar
    31    60    58   ar
    32    19    20    1
    33    19    22    1
    34    51    54    1
    35    51    52    1
    36    24    23    2
    37    55    54    1
    38    55    56   ar
    39    20    21    2
    40    58    56   ar
    41    52    53    2
    42    23    22    1
    43    23    25   am
    44    76    75    2
    45    75    74    1
    46    33    34    1
    47    26    27    1
    48    74    77    1
    49    74    73    1
    50    34    37    1
    51    34    35    1
    52    27    28    1
    53    27    30    1
    54    36    35    2
    55    29    28    2
    56    32    30    1
    57    31    30    1
    58    49    48    1
    59    46    48   ar
    60    46    44   ar
    61    48    47   ar
    62    44    43   ar
    63    47    45   ar
    64    65    64    2
    65    64    63    1
    66    68    67    1
    67    68    69    1
    68    43    45   ar
    69    43    42    1
    70    38    39    1
    71    67    66    1
    72    63    66    1
    73    63    62    1
    74    69    70    2
    75    42    39    1
    76    39    40    1
    77    70    71    1
    78    70    72    1
    79    41    40    2
