@<TRIPOS>MOLECULE
tmp/4ovfA04.pdb
 111 105 0 0 0
SMALL
GASTEIGER

@<TRIPOS>ATOM
      1  N         12.2440  -14.0040   -2.9000 N.3   148  ARG148     -0.1245
      2  CA        13.3430  -13.1730   -3.3800 C.3   148  ARG148      0.1563
      3  C         13.8260  -12.3630   -2.1860 C.2   148  ARG148      0.2260
      4  O         13.3460  -11.2590   -1.9300 O.2   148  ARG148     -0.2867
      5  CB        12.9070  -12.2720   -4.5410 C.3   148  ARG148      0.0307
      6  CG        12.4550  -13.0340   -5.7750 C.3   148  ARG148      0.0489
      7  CD        10.9550  -12.8990   -5.9570 C.3   148  ARG148      0.2205
      8  NE        10.6400  -11.9710   -7.0300 N.pl3 148  ARG148     -0.0865
      9  CZ         9.5210  -11.2570   -7.1290 C.cat 148  ARG148      0.5346
     10  NH1        8.5840  -11.3130   -6.1940 N.pl3 148  ARG148      0.1354
     11  NH2        9.3600  -10.4590   -8.1730 N.pl3 148  ARG148      0.1354
     12  N         16.3300  -10.6620   -1.4770 N.3   150  TYR150     -0.1227
     13  CA        16.8750   -9.3330   -1.7200 C.3   150  TYR150      0.1736
     14  C         15.8080   -8.2250   -1.7250 C.2   150  TYR150      0.2595
     15  O         16.1450   -7.0500   -1.6590 O.2   150  TYR150     -0.2718
     16  CB        17.7100   -9.3090   -3.0110 C.3   150  TYR150      0.0548
     17  CG        17.0090   -9.8680   -4.2360 C.ar  150  TYR150     -0.0200
     18  CD1       16.1750   -9.0640   -5.0180 C.ar  150  TYR150     -0.0009
     19  CD2       17.1930  -11.1950   -4.6160 C.ar  150  TYR150     -0.0009
     20  CE1       15.5360   -9.5730   -6.1400 C.ar  150  TYR150      0.0417
     21  CE2       16.5580  -11.7160   -5.7310 C.ar  150  TYR150      0.0417
     22  CZ        15.7360  -10.9050   -6.4900 C.ar  150  TYR150      0.1957
     23  OH        15.1150  -11.4280   -7.5930 O.3   150  TYR150     -0.2866
     24  N         14.5350   -8.6100   -1.7900 N.am  151  LEU151     -0.1980
     25  CA        13.4210   -7.6510   -1.7810 C.3   151  LEU151      0.1596
     26  C         12.8720   -7.3820   -0.3780 C.2   151  LEU151      0.2287
     27  O         12.1400   -6.4060   -0.1770 O.2   151  LEU151     -0.2864
     28  CB        12.2790   -8.1080   -2.7070 C.3   151  LEU151      0.0297
     29  CG        12.5160   -8.2620   -4.2140 C.3   151  LEU151      0.0022
     30  CD1       11.2040   -8.6080   -4.9100 C.3   151  LEU151      0.0001
     31  CD2       13.1480   -7.0260   -4.8520 C.3   151  LEU151      0.0001
     32  N         11.0200   -2.1810   -3.2250 N.3   168  THR168     -0.1218
     33  CA        10.0580   -2.7810   -4.1330 C.3   168  THR168      0.1862
     34  C          9.7170   -4.1990   -3.6740 C.2   168  THR168      0.2287
     35  O         10.5500   -4.8770   -3.0600 O.2   168  THR168     -0.2866
     36  CB        10.5650   -2.7570   -5.5980 C.3   168  THR168      0.1770
     37  OG1        9.5510   -3.2500   -6.4780 O.3   168  THR168     -0.2211
     38  CG2       11.8520   -3.5690   -5.7700 C.3   168  THR168      0.0375
     39  N          8.1410   -6.2380   -6.1030 N.3   170  GLY170     -0.1210
     40  CA         7.7920   -6.8200   -7.3960 C.3   170  GLY170      0.1956
     41  C          6.5130   -6.2860   -8.0280 C.2   170  GLY170      0.2612
     42  O          6.3130   -6.4460   -9.2320 O.2   170  GLY170     -0.2717
     43  N          5.6500   -5.6540   -7.2290 N.am  171  HIS171     -0.1961
     44  CA         4.3670   -5.1310   -7.7270 C.3   171  HIS171      0.1787
     45  C          4.3190   -3.6100   -7.7270 C.2   171  HIS171      0.2620
     46  O          3.6110   -2.9930   -8.5360 O.2   171  HIS171     -0.2715
     47  CB         3.2050   -5.6660   -6.8950 C.3   171  HIS171      0.0785
     48  CG         3.2250   -7.1500   -6.7090 C.ar  171  HIS171      0.0821
     49  ND1        2.9320   -8.0330   -7.7270 N.ar  171  HIS171     -0.2267
     50  CD2        3.5150   -7.9060   -5.6250 C.ar  171  HIS171      0.1154
     51  CE1        3.0360   -9.2710   -7.2750 C.ar  171  HIS171      0.1986
     52  NE2        3.3880   -9.2210   -6.0020 N.ar  171  HIS171     -0.2212
     53  N          5.0530   -3.0090   -6.7990 N.am  172  ARG172     -0.1963
     54  CA         5.1700   -1.5590   -6.7290 C.3   172  ARG172      0.1729
     55  C          6.5640   -1.1890   -6.2510 C.2   172  ARG172      0.2616
     56  O          7.2350   -2.0040   -5.6240 O.2   172  ARG172     -0.2715
     57  CB         4.0780   -0.9370   -5.8420 C.3   172  ARG172      0.0348
     58  CG         3.6940   -1.7280   -4.5980 C.3   172  ARG172      0.0492
     59  CD         4.6190   -1.4590   -3.4210 C.3   172  ARG172      0.2205
     60  NE         4.2060   -2.2330   -2.2550 N.pl3 172  ARG172     -0.0865
     61  CZ         3.2540   -1.8610   -1.3990 C.cat 172  ARG172      0.5346
     62  NH1        2.6040   -0.7130   -1.5660 N.pl3 172  ARG172      0.1354
     63  NH2        2.9460   -2.6480   -0.3770 N.pl3 172  ARG172      0.1354
     64  N          6.9880    0.0370   -6.5470 N.am  173  LEU173     -0.1977
     65  CA         8.3180    0.5070   -6.1930 C.3   173  LEU173      0.1596
     66  C          8.2620    1.9240   -5.6440 C.2   173  LEU173      0.2287
     67  O          7.4390    2.7300   -6.0690 O.2   173  LEU173     -0.2864
     68  CB         9.2480    0.4460   -7.4190 C.3   173  LEU173      0.0297
     69  CG        10.6760    1.0060   -7.3350 C.3   173  LEU173      0.0022
     70  CD1       11.6710    0.0870   -8.0320 C.3   173  LEU173      0.0001
     71  CD2       10.7740    2.4270   -7.8810 C.3   173  LEU173      0.0001
     72  N         21.0350   -9.5410   -6.2640 N.3   236  ARG236     -0.1245
     73  CA        21.0160   -8.4560   -7.2330 C.3   236  ARG236      0.1563
     74  C         19.6800   -7.7200   -7.1870 C.2   236  ARG236      0.2260
     75  O         18.6750   -8.1780   -7.7480 O.2   236  ARG236     -0.2867
     76  CB        21.2940   -8.9950   -8.6370 C.3   236  ARG236      0.0307
     77  CG        22.7750   -9.1270   -8.9670 C.3   236  ARG236      0.0489
     78  CD        23.1360  -10.4870   -9.5580 C.3   236  ARG236      0.2205
     79  NE        22.0660  -11.1090  -10.3460 N.pl3 236  ARG236     -0.0865
     80  CZ        21.7580  -10.7830  -11.6000 C.cat 236  ARG236      0.5346
     81  NH1       22.4300   -9.8230  -12.2220 N.pl3 236  ARG236      0.1354
     82  NH2       20.7690  -11.4120  -12.2290 N.pl3 236  ARG236      0.1354
     83  N         16.8200   -5.1510   -8.1130 N.3   238  PRO238     -0.2116
     84  CA        16.3810   -4.5790   -9.3880 C.3   238  PRO238      0.1372
     85  C         16.8380   -3.1280   -9.5750 C.2   238  PRO238      0.2244
     86  O         17.0440   -2.4060   -8.5950 O.2   238  PRO238     -0.2868
     87  CB        14.8480   -4.6400   -9.2930 C.3   238  PRO238      0.0268
     88  CG        14.5520   -4.8460   -7.8410 C.3   238  PRO238      0.0207
     89  CD        15.6830   -5.7000   -7.3570 C.3   238  PRO238      0.0892
     90  N         12.2890    0.2170  -13.9600 N.3   243  VAL243     -0.1245
     91  CA        10.9320    0.1910  -13.4410 C.3   243  VAL243      0.1561
     92  C         10.2120    1.5080  -13.7350 C.2   243  VAL243      0.2260
     93  O          9.0340    1.5000  -14.0900 O.2   243  VAL243     -0.2867
     94  CB        10.9080   -0.1160  -11.9260 C.3   243  VAL243      0.0252
     95  CG1        9.4760   -0.1910  -11.4170 C.3   243  VAL243      0.0019
     96  CG2       11.6460   -1.4180  -11.6300 C.3   243  VAL243      0.0019
     97  N          6.1500    3.8830   -8.3730 N.3   356  VAL356     -0.1245
     98  CA         5.6940    3.1850   -9.5690 C.3   356  VAL356      0.1561
     99  C          4.7460    2.0630   -9.1770 C.2   356  VAL356      0.2260
    100  O          5.0410    1.2680   -8.2720 O.2   356  VAL356     -0.2867
    101  CB         6.8690    2.6560  -10.4270 C.3   356  VAL356      0.0252
    102  CG1        6.3590    1.8320  -11.6060 C.3   356  VAL356      0.0019
    103  CG2        7.7250    3.8110  -10.9280 C.3   356  VAL356      0.0019
    104  N          2.2710   -1.0130  -10.9750 N.3   358  MET358     -0.1245
    105  CA         1.8950   -1.7940  -12.1550 C.3   358  MET358      0.1570
    106  C          0.3860   -1.8260  -12.3570 C.2   358  MET358      0.2261
    107  O         -0.3640   -1.7690  -11.3900 O.2   358  MET358     -0.2867
    108  CB         2.4290   -3.2270  -12.0460 C.3   358  MET358      0.0387
    109  CG         3.9290   -3.3350  -12.2340 C.3   358  MET358      0.0595
    110  SD         4.4550   -3.0510  -13.9370 S.3   358  MET358     -0.1393
    111  CE         4.3800   -4.7190  -14.5870 C.3   358  MET358      0.0692
@<TRIPOS>BOND
     1   111   110    1
     2    93    92    2
     3    90    91    1
     4   110   109    1
     5    92    91    1
     6    91    94    1
     7   106   105    1
     8   106   107    2
     9   109   108    1
    10    82    80    1
    11    81    80    1
    12   105   108    1
    13   105   104    1
    14    94    96    1
    15    94    95    1
    16   102   101    1
    17    80    79    2
    18   103   101    1
    19   101    98    1
    20    79    78    1
    21    85    84    1
    22    85    86    2
    23    98    99    1
    24    98    97    1
    25    78    77    1
    26    84    87    1
    27    84    83    1
    28    87    88    1
    29    42    41    2
    30    99   100    2
    31    77    76    1
    32    76    73    1
    33    46    45    2
    34    11     9    1
    35    83    89    1
    36    70    69    1
    37    41    40    1
    38    41    43   am
    39    71    69    1
    40    88    89    1
    41    75    74    2
    42    44    45    1
    43    44    43    1
    44    44    47    1
    45    45    53   am
    46    49    51   ar
    47    49    48   ar
    48    23    22    1
    49    68    69    1
    50    68    65    1
    51    40    39    1
    52    51    52   ar
    53    73    74    1
    54    73    72    1
    55     9     8    2
    56     9    10    1
    57     8     7    1
    58    47    48    1
    59    53    54    1
    60    54    55    1
    61    54    57    1
    62    48    50   ar
    63    64    55   am
    64    64    65    1
    65    22    20   ar
    66    22    21   ar
    67    37    36    1
    68    55    56    2
    69    65    66    1
    70    20    18   ar
    71    67    66    2
    72    52    50   ar
    73     7     6    1
    74    57    58    1
    75     6     5    1
    76    38    36    1
    77    21    19   ar
    78    36    33    1
    79    18    17   ar
    80    30    29    1
    81    31    29    1
    82    19    17   ar
    83    58    59    1
    84     5     2    1
    85    17    16    1
    86    29    28    1
    87    33    34    1
    88    33    32    1
    89    34    35    2
    90    59    60    1
    91     2     1    1
    92     2     3    1
    93    16    13    1
    94    28    25    1
    95    60    61    2
    96     3     4    2
    97    24    25    1
    98    24    14   am
    99    25    26    1
   100    14    13    1
   101    14    15    2
   102    13    12    1
   103    62    61    1
   104    61    63    1
   105    26    27    2
