@<TRIPOS>MOLECULE
tmp/4ovgB03.pdb
 101 95 0 0 0
SMALL
GASTEIGER

@<TRIPOS>ATOM
      1  N        -30.7620   -6.1130   19.9790 N.3    52  GLU52      -0.1245
      2  CA       -31.1080   -5.2580   18.8630 C.3    52  GLU52       0.1567
      3  C        -30.8950   -3.8200   19.2740 C.2    52  GLU52       0.2260
      4  O        -31.1690   -3.4690   20.3990 O.2    52  GLU52      -0.2867
      5  CB       -32.5740   -5.4940   18.5220 C.3    52  GLU52       0.0388
      6  CG       -33.3370   -4.3390   17.9560 C.3    52  GLU52       0.1160
      7  CD       -34.8410   -4.6040   17.9310 C.2    52  GLU52       0.3649
      8  OE1      -35.5720   -4.0030   18.7320 O.co2  52  GLU52      -0.2457
      9  OE2      -35.2680   -5.4170   17.0960 O.co2  52  GLU52      -0.2457
     10  N        -31.9140    0.1100   17.9010 N.3    54  VAL54      -0.1245
     11  CA       -32.6640    0.9290   17.0030 C.3    54  VAL54       0.1561
     12  C        -32.2450    2.3750   17.2280 C.2    54  VAL54       0.2260
     13  O        -32.1690    2.8260   18.3860 O.2    54  VAL54      -0.2867
     14  CB       -34.1820    0.7970   17.2640 C.3    54  VAL54       0.0252
     15  CG1      -34.9810    1.6250   16.2850 C.3    54  VAL54       0.0019
     16  CG2      -34.6190   -0.6610   17.2220 C.3    54  VAL54       0.0019
     17  N        -33.2170    6.4560   15.8420 N.3    56  ARG56      -0.1245
     18  CA       -34.1340    7.3190   15.1070 C.3    56  ARG56       0.1563
     19  C        -33.4600    8.6440   14.6960 C.2    56  ARG56       0.2260
     20  O        -32.6650    9.2170   15.4480 O.2    56  ARG56      -0.2867
     21  CB       -35.4090    7.5100   15.9260 C.3    56  ARG56       0.0307
     22  CG       -36.1510    6.1600   16.0210 C.3    56  ARG56       0.0489
     23  CD       -37.3920    6.1250   16.8870 C.3    56  ARG56       0.2205
     24  NE       -37.6240    4.7890   17.4880 N.pl3  56  ARG56      -0.0865
     25  CZ       -38.0090    3.6930   16.8330 C.cat  56  ARG56       0.5346
     26  NH1      -38.2180    3.6930   15.5150 N.pl3  56  ARG56       0.1354
     27  NH2      -38.1990    2.5720   17.5040 N.pl3  56  ARG56       0.1354
     28  N        -41.8750  -10.6920   21.4190 N.3   121  ASP121     -0.1225
     29  CA       -42.5760   -9.6800   22.1840 C.3   121  ASP121      0.1805
     30  C        -42.5370  -10.0230   23.6640 C.2   121  ASP121      0.2598
     31  O        -42.4160  -11.1950   24.0420 O.2   121  ASP121     -0.2718
     32  CB       -44.0260   -9.5500   21.7260 C.3   121  ASP121      0.1424
     33  CG       -44.4820   -8.1120   21.6980 C.2   121  ASP121      0.3668
     34  OD1      -44.5630   -7.4990   22.7730 O.co2 121  ASP121     -0.2456
     35  OD2      -44.7300   -7.5770   20.5940 O.co2 121  ASP121     -0.2456
     36  N        -42.6050   -8.9990   24.5080 N.am  122  TRP122     -0.1962
     37  CA       -42.5490   -9.2240   25.9420 C.3   122  TRP122      0.1771
     38  C        -43.1390   -8.0580   26.7200 C.2   122  TRP122      0.2620
     39  O        -43.3010   -6.9760   26.1900 O.2   122  TRP122     -0.2715
     40  CB       -41.1030   -9.4900   26.3850 C.3   122  TRP122      0.0590
     41  CG       -40.1090   -8.4150   25.9650 C.ar  122  TRP122      0.0006
     42  CD1      -39.5160   -8.2640   24.7540 C.ar  122  TRP122      0.0946
     43  CD2      -39.6190   -7.3340   26.7860 C.ar  122  TRP122      0.0152
     44  NE1      -38.6810   -7.1470   24.7610 N.ar  122  TRP122     -0.2442
     45  CE2      -38.7310   -6.5710   25.9990 C.ar  122  TRP122      0.0810
     46  CE3      -39.8540   -6.9410   28.0980 C.ar  122  TRP122      0.0012
     47  CZ2      -38.0570   -5.4480   26.4990 C.ar  122  TRP122      0.0191
     48  CZ3      -39.1760   -5.8360   28.5890 C.ar  122  TRP122      0.0001
     49  CH2      -38.2920   -5.1060   27.7920 C.ar  122  TRP122      0.0015
     50  N        -43.4400   -8.3050   27.9820 N.am  123  GLN123     -0.1963
     51  CA       -43.9870   -7.2910   28.8790 C.3   123  GLN123      0.1733
     52  C        -42.9730   -6.7800   29.9140 C.2   123  GLN123      0.2617
     53  O        -42.2340   -7.5450   30.5300 O.2   123  GLN123     -0.2715
     54  CB       -45.1890   -7.8450   29.6370 C.3   123  GLN123      0.0408
     55  CG       -46.2700   -8.4160   28.7410 C.3   123  GLN123      0.0908
     56  CD       -46.7580   -7.4230   27.7170 C.2   123  GLN123      0.2608
     57  OE1      -46.8480   -6.2090   27.9730 O.2   123  GLN123     -0.2717
     58  NE2      -47.0620   -7.9200   26.5370 N.am  123  GLN123     -0.0878
     59  N        -42.9840   -5.4680   30.1110 N.am  124  SER124     -0.1950
     60  CA       -42.1260   -4.8360   31.0780 C.3   124  SER124      0.1924
     61  C        -42.7260   -5.0780   32.4600 C.2   124  SER124      0.2314
     62  O        -43.9230   -4.8930   32.6490 O.2   124  SER124     -0.2863
     63  CB       -42.0430   -3.3400   30.7520 C.3   124  SER124      0.2116
     64  OG       -41.2900   -2.6620   31.7120 O.3   124  SER124     -0.2180
     65  N        -39.5260   -0.9340   35.8850 N.3   127  GLU127     -0.1245
     66  CA       -39.0750    0.2210   35.1390 C.3   127  GLU127      0.1567
     67  C        -38.5150    1.3180   36.0330 C.2   127  GLU127      0.2260
     68  O        -39.0190    1.6000   37.1380 O.2   127  GLU127     -0.2867
     69  CB       -40.2230    0.8350   34.3370 C.3   127  GLU127      0.0388
     70  CG       -40.8400   -0.1120   33.3600 C.3   127  GLU127      0.1160
     71  CD       -41.8850    0.5110   32.4500 C.2   127  GLU127      0.3649
     72  OE1      -42.2160    1.6940   32.6320 O.co2 127  GLU127     -0.2457
     73  OE2      -42.3770   -0.2400   31.5710 O.co2 127  GLU127     -0.2457
     74  N        -36.3450   -0.7300   31.1860 N.3   217  GLN217     -0.1245
     75  CA       -37.4900   -1.6040   31.3570 C.3   217  GLN217      0.1566
     76  C        -36.9860   -3.0290   31.3840 C.2   217  GLN217      0.2260
     77  O        -36.2480   -3.4340   30.4950 O.2   217  GLN217     -0.2867
     78  CB       -38.4580   -1.4390   30.1930 C.3   217  GLN217      0.0367
     79  CG       -39.0740   -0.0590   30.0760 C.3   217  GLN217      0.0905
     80  CD       -39.8510    0.0750   28.8030 C.2   217  GLN217      0.2608
     81  OE1      -39.2760    0.0390   27.7210 O.2   217  GLN217     -0.2717
     82  NE2      -41.1610    0.2350   28.9130 N.am  217  GLN217     -0.0878
     83  N        -34.6140   -3.6080   28.2050 N.3   224  ARG224     -0.1245
     84  CA       -34.5930   -2.5460   27.2330 C.3   224  ARG224      0.1563
     85  C        -34.0840   -1.2750   27.8870 C.2   224  ARG224      0.2260
     86  O        -34.4370   -0.9680   29.0500 O.2   224  ARG224     -0.2867
     87  CB       -36.0000   -2.2980   26.6630 C.3   224  ARG224      0.0307
     88  CG       -36.1010   -1.0550   25.7730 C.3   224  ARG224      0.0489
     89  CD       -37.3830   -1.0440   24.9580 C.3   224  ARG224      0.2205
     90  NE       -37.3950   -2.1610   24.0420 N.pl3 224  ARG224     -0.0865
     91  CZ       -38.4390   -2.5670   23.3590 C.cat 224  ARG224      0.5346
     92  NH1      -39.6260   -1.9330   23.4920 N.pl3 224  ARG224      0.1354
     93  NH2      -38.2860   -3.6440   22.5700 N.pl3 224  ARG224      0.1354
     94  N        -32.6070    3.0040   21.1600 N.3   231  ILE231     -0.1245
     95  CA       -33.3310    1.9920   21.9560 C.3   231  ILE231      0.1561
     96  C        -32.6420    0.6640   21.7870 C.2   231  ILE231      0.2260
     97  O        -32.5450    0.1680   20.6600 O.2   231  ILE231     -0.2867
     98  CB       -34.7830    1.8120   21.5370 C.3   231  ILE231      0.0252
     99  CG1      -35.5020    3.1560   21.5760 C.3   231  ILE231      0.0019
    100  CG2      -35.4910    0.7900   22.4270 C.3   231  ILE231      0.0019
    101  CD1      -36.9790    3.0440   21.2770 C.3   231  ILE231      0.0001
@<TRIPOS>BOND
     1    19    18    1
     2    19    20    2
     3    18    17    1
     4    18    21    1
     5    26    25    1
     6    21    22    1
     7    22    23    1
     8    15    14    1
     9    25    24    2
    10    25    27    1
    11    23    24    1
    12    11    12    1
    13    11    14    1
    14    11    10    1
    15     9     7   ar
    16    16    14    1
    17    12    13    2
    18     7     6    1
    19     7     8   ar
    20     6     5    1
    21     5     2    1
    22     2     3    1
    23     2     1    1
    24     3     4    2
    25    35    33   ar
    26    97    96    2
    27    94    95    1
    28   101    99    1
    29    28    29    1
    30    98    99    1
    31    98    95    1
    32    98   100    1
    33    33    32    1
    34    33    34   ar
    35    32    29    1
    36    96    95    1
    37    29    30    1
    38    93    91    1
    39    91    92    1
    40    91    90    2
    41    30    31    2
    42    30    36   am
    43    90    89    1
    44    36    37    1
    45    42    44   ar
    46    42    41   ar
    47    44    45   ar
    48    89    88    1
    49    88    87    1
    50    37    40    1
    51    37    38    1
    52    41    40    1
    53    41    43   ar
    54    45    47   ar
    55    45    43   ar
    56    39    38    2
    57    47    49   ar
    58    58    56   am
    59    87    84    1
    60    38    50   am
    61    43    46   ar
    62    84    85    1
    63    84    83    1
    64    56    57    2
    65    56    55    1
    66    81    80    2
    67    49    48   ar
    68    85    86    2
    69    50    51    1
    70    46    48   ar
    71    55    54    1
    72    80    82   am
    73    80    79    1
    74    51    54    1
    75    51    52    1
    76    52    59   am
    77    52    53    2
    78    79    78    1
    79    59    60    1
    80    78    75    1
    81    77    76    2
    82    63    60    1
    83    63    64    1
    84    60    61    1
    85    74    75    1
    86    75    76    1
    87    73    71   ar
    88    71    72   ar
    89    71    70    1
    90    61    62    2
    91    70    69    1
    92    69    66    1
    93    66    65    1
    94    66    67    1
    95    67    68    2
