@<TRIPOS>MOLECULE
tmp/4ovgB00.pdb
 111 105 0 0 0
SMALL
GASTEIGER

@<TRIPOS>ATOM
      1  N        -19.5490  -21.6650   32.7380 N.3   152  ARG152     -0.1245
      2  CA       -20.4320  -21.1190   33.7520 C.3   152  ARG152      0.1563
      3  C        -21.0360  -19.8310   33.1570 C.2   152  ARG152      0.2260
      4  O        -20.5760  -18.7120   33.3750 O.2   152  ARG152     -0.2867
      5  CB       -19.6700  -20.8480   35.0460 C.3   152  ARG152      0.0307
      6  CG       -19.2830  -22.1060   35.7910 C.3   152  ARG152      0.0489
      7  CD       -18.3630  -21.8190   36.9670 C.3   152  ARG152      0.2205
      8  NE       -17.1470  -21.1910   36.4970 N.pl3 152  ARG152     -0.0865
      9  CZ       -16.1510  -20.7650   37.2620 C.cat 152  ARG152      0.5346
     10  NH1      -16.1800  -20.8750   38.5840 N.pl3 152  ARG152      0.1354
     11  NH2      -15.1160  -20.2170   36.6660 N.pl3 152  ARG152      0.1354
     12  N        -23.5700  -18.0490   33.4090 N.3   154  TYR154     -0.1227
     13  CA       -24.1800  -17.0190   34.2340 C.3   154  TYR154      0.1736
     14  C        -23.1490  -15.9750   34.6880 C.2   154  TYR154      0.2595
     15  O        -23.5190  -14.9010   35.1090 O.2   154  TYR154     -0.2718
     16  CB       -24.8760  -17.6410   35.4400 C.3   154  TYR154      0.0548
     17  CG       -24.0140  -18.6310   36.1950 C.ar  154  TYR154     -0.0200
     18  CD1      -23.0710  -18.2020   37.1290 C.ar  154  TYR154     -0.0009
     19  CD2      -24.1310  -20.0060   35.9590 C.ar  154  TYR154     -0.0009
     20  CE1      -22.2840  -19.1230   37.8160 C.ar  154  TYR154      0.0417
     21  CE2      -23.3460  -20.9170   36.6300 C.ar  154  TYR154      0.0417
     22  CZ       -22.4270  -20.4810   37.5620 C.ar  154  TYR154      0.1957
     23  OH       -21.6240  -21.4310   38.1980 O.3   154  TYR154     -0.2866
     24  N        -21.8660  -16.2890   34.5550 N.am  155  LEU155     -0.1980
     25  CA       -20.7610  -15.3380   34.8430 C.3   155  LEU155      0.1596
     26  C        -20.3760  -14.4580   33.6550 C.2   155  LEU155      0.2287
     27  O        -19.6610  -13.4720   33.8440 O.2   155  LEU155     -0.2864
     28  CB       -19.5000  -16.0850   35.3180 C.3   155  LEU155      0.0297
     29  CG       -19.6290  -16.9360   36.5850 C.3   155  LEU155      0.0022
     30  CD1      -18.2870  -17.5340   36.9510 C.3   155  LEU155      0.0001
     31  CD2      -20.1550  -16.1140   37.7530 C.3   155  LEU155      0.0001
     32  N        -18.2580  -10.8960   38.3450 N.3   172  THR172     -0.1218
     33  CA       -17.1670  -11.7630   38.8110 C.3   172  THR172      0.1862
     34  C        -16.8550  -12.8040   37.7430 C.2   172  THR172      0.2287
     35  O        -17.7260  -13.2070   36.9730 O.2   172  THR172     -0.2866
     36  CB       -17.4690  -12.4540   40.1490 C.3   172  THR172      0.1770
     37  OG1      -16.3400  -13.2710   40.5370 O.3   172  THR172     -0.2211
     38  CG2      -18.7090  -13.3290   40.0620 C.3   172  THR172      0.0375
     39  N        -15.3230  -15.5770   38.7590 N.3   174  GLY174     -0.1210
     40  CA       -15.1020  -16.7220   39.6280 C.3   174  GLY174      0.1956
     41  C        -13.7580  -16.6850   40.3560 C.2   174  GLY174      0.2612
     42  O        -13.3700  -17.6660   40.9940 O.2   174  GLY174     -0.2717
     43  N        -13.0470  -15.5580   40.2570 N.am  175  HIS175     -0.1961
     44  CA       -11.7700  -15.3680   40.9310 C.3   175  HIS175      0.1787
     45  C        -11.7090  -14.0550   41.7120 C.2   175  HIS175      0.2620
     46  O        -11.2500  -14.0090   42.8360 O.2   175  HIS175     -0.2715
     47  CB       -10.6570  -15.4290   39.9100 C.3   175  HIS175      0.0785
     48  CG       -10.6210  -16.7320   39.1960 C.ar  175  HIS175      0.0821
     49  ND1      -10.5140  -17.9310   39.8690 N.ar  175  HIS175     -0.2267
     50  CD2      -10.7990  -17.0420   37.8930 C.ar  175  HIS175      0.1154
     51  CE1      -10.5580  -18.9250   39.0000 C.ar  175  HIS175      0.1986
     52  NE2      -10.7290  -18.4130   37.7920 N.ar  175  HIS175     -0.2212
     53  N        -12.1800  -12.9950   41.0900 N.am  176  ARG176     -0.1963
     54  CA       -12.2730  -11.6960   41.7250 C.3   176  ARG176      0.1729
     55  C        -13.6380  -11.0790   41.4450 C.2   176  ARG176      0.2616
     56  O        -14.3670  -11.5140   40.5210 O.2   176  ARG176     -0.2715
     57  CB       -11.1440  -10.7880   41.2730 C.3   176  ARG176      0.0348
     58  CG       -10.6630  -10.8580   39.8270 C.3   176  ARG176      0.0492
     59  CD       -11.5700  -10.2240   38.8170 C.3   176  ARG176      0.2205
     60  NE       -11.0820  -10.4620   37.4450 N.pl3 176  ARG176     -0.0865
     61  CZ       -10.1800   -9.7260   36.7960 C.cat 176  ARG176      0.5346
     62  NH1       -9.6110   -8.6900   37.3720 N.pl3 176  ARG176      0.1354
     63  NH2       -9.8420  -10.0370   35.5390 N.pl3 176  ARG176      0.1354
     64  N        -13.9780  -10.0750   42.2320 N.am  177  LEU177     -0.1977
     65  CA       -15.3290   -9.5270   42.2240 C.3   177  LEU177      0.1596
     66  C        -15.3020   -8.0090   42.2670 C.2   177  LEU177      0.2287
     67  O        -14.4110   -7.4240   42.8810 O.2   177  LEU177     -0.2864
     68  CB       -16.1580  -10.0880   43.3870 C.3   177  LEU177      0.0297
     69  CG       -17.6300   -9.6090   43.3450 C.3   177  LEU177      0.0022
     70  CD1      -18.6140  -10.7340   43.4830 C.3   177  LEU177      0.0001
     71  CD2      -17.7990   -8.5580   44.4030 C.3   177  LEU177      0.0001
     72  N        -28.6070  -18.4690   37.5830 N.3   240  ARG240     -0.1245
     73  CA       -28.5450  -17.9550   38.9240 C.3   240  ARG240      0.1563
     74  C        -27.1370  -17.3630   39.1390 C.2   240  ARG240      0.2260
     75  O        -26.1490  -18.0040   38.8820 O.2   240  ARG240     -0.2867
     76  CB       -28.8290  -19.0730   39.9210 C.3   240  ARG240      0.0307
     77  CG       -28.8840  -18.5850   41.3590 C.3   240  ARG240      0.0489
     78  CD       -28.3430  -19.6470   42.2710 C.3   240  ARG240      0.2205
     79  NE       -26.9470  -19.9690   41.9580 N.pl3 240  ARG240     -0.0865
     80  CZ       -25.9590  -20.0320   42.8560 C.cat 240  ARG240      0.5346
     81  NH1      -26.1920  -19.8000   44.1490 N.pl3 240  ARG240      0.1354
     82  NH2      -24.7240  -20.3130   42.4520 N.pl3 240  ARG240      0.1354
     83  N        -23.9800  -15.8690   41.5420 N.3   242  PRO242     -0.2116
     84  CA       -23.5520  -15.9920   42.9760 C.3   242  PRO242      0.1372
     85  C        -23.9900  -14.8260   43.8820 C.2   242  PRO242      0.2244
     86  O        -24.2620  -13.7410   43.3940 O.2   242  PRO242     -0.2868
     87  CB       -22.0150  -16.0670   42.8890 C.3   242  PRO242      0.0268
     88  CG       -21.6380  -15.7120   41.4750 C.3   242  PRO242      0.0207
     89  CD       -22.8450  -15.9460   40.6070 C.3   242  PRO242      0.0892
     90  N        -19.0680  -13.1300   49.6490 N.3   247  VAL247     -0.1245
     91  CA       -17.6290  -13.0530   49.3580 C.3   247  VAL247      0.1561
     92  C        -16.9710  -11.8240   50.0050 C.2   247  VAL247      0.2260
     93  O        -15.7790  -11.8170   50.2200 O.2   247  VAL247     -0.2867
     94  CB       -17.3020  -13.2260   47.8350 C.3   247  VAL247      0.0252
     95  CG1      -18.5460  -13.3790   46.9770 C.3   247  VAL247      0.0019
     96  CG2      -16.4130  -12.1400   47.2870 C.3   247  VAL247      0.0019
     97  N        -13.1460   -7.2300   45.5770 N.3   360  VAL360     -0.1245
     98  CA       -12.6100   -8.2640   46.4510 C.3   360  VAL360      0.1561
     99  C        -11.6280   -9.1420   45.6510 C.2   360  VAL360      0.2260
    100  O        -11.9370   -9.6340   44.5770 O.2   360  VAL360     -0.2867
    101  CB       -13.7220   -9.1540   47.0490 C.3   360  VAL360      0.0252
    102  CG1      -13.1460  -10.1950   47.9720 C.3   360  VAL360      0.0019
    103  CG2      -14.7100   -8.3250   47.8240 C.3   360  VAL360      0.0019
    104  N         -8.8440  -12.4200   46.3500 N.3   362  MET362     -0.1245
    105  CA        -8.5100  -13.5540   47.2470 C.3   362  MET362      0.1570
    106  C         -7.0300  -13.5300   47.7360 C.2   362  MET362      0.2261
    107  O         -6.1320  -12.9600   47.0680 O.2   362  MET362     -0.2867
    108  CB        -8.7460  -14.8660   46.5280 C.3   362  MET362      0.0387
    109  CG       -10.1320  -15.1040   45.9690 C.3   362  MET362      0.0595
    110  SD       -11.2820  -15.3320   47.2960 S.3   362  MET362     -0.1393
    111  CE       -12.0680  -13.7430   47.2830 C.3   362  MET362      0.0692
@<TRIPOS>BOND
     1     1     2    1
     2     3     4    2
     3     3     2    1
     4    12    13    1
     5    26    27    2
     6    26    25    1
     7     2     5    1
     8    13    14    1
     9    13    16    1
    10    24    14   am
    11    24    25    1
    12    14    15    2
    13    25    28    1
    14     5     6    1
    15    28    29    1
    16    16    17    1
    17    63    61    1
    18     6     7    1
    19    19    17   ar
    20    19    21   ar
    21    17    18   ar
    22     8     7    1
    23     8     9    2
    24    29    30    1
    25    29    31    1
    26    21    22   ar
    27    11     9    1
    28    61    62    1
    29    61    60    2
    30    35    34    2
    31    18    20   ar
    32     9    10    1
    33    60    59    1
    34    22    20   ar
    35    22    23    1
    36    72    73    1
    37    34    33    1
    38    52    50   ar
    39    52    51   ar
    40    50    48   ar
    41    32    33    1
    42    39    40    1
    43    33    36    1
    44    59    58    1
    45    75    74    2
    46    73    74    1
    47    73    76    1
    48    51    49   ar
    49    48    49   ar
    50    48    47    1
    51    40    41    1
    52    58    57    1
    53    47    44    1
    54    76    77    1
    55    38    36    1
    56    36    37    1
    57    43    41   am
    58    43    44    1
    59    41    42    2
    60    56    55    2
    61    89    88    1
    62    89    83    1
    63    44    45    1
    64    53    45   am
    65    53    54    1
    66    57    54    1
    67    77    78    1
    68    55    54    1
    69    55    64   am
    70    88    87    1
    71    83    84    1
    72    45    46    2
    73    79    78    1
    74    79    80    2
    75    65    64    1
    76    65    66    1
    77    65    68    1
    78    66    67    2
    79    82    80    1
    80    80    81    1
    81    87    84    1
    82    84    85    1
    83    69    68    1
    84    69    70    1
    85    69    71    1
    86    86    85    2
    87   100    99    2
    88    97    98    1
    89    99    98    1
    90   109   108    1
    91   109   110    1
    92   104   105    1
    93    98   101    1
    94   108   105    1
    95    95    94    1
    96   101   103    1
    97   101   102    1
    98   107   106    2
    99   105   106    1
   100   111   110    1
   101    96    94    1
   102    94    91    1
   103    91    90    1
   104    91    92    1
   105    92    93    2
