@<TRIPOS>MOLECULE
tmp/4ovhA04.pdb
 111 106 0 0 0
SMALL
GASTEIGER

@<TRIPOS>ATOM
      1  N        -27.5160  -13.6460   -3.1200 N.3   150  ARG150     -0.1245
      2  CA       -26.4150  -12.7950   -3.5560 C.3   150  ARG150      0.1563
      3  C        -25.9680  -11.9860   -2.3470 C.2   150  ARG150      0.2260
      4  O        -26.4700  -10.8970   -2.0990 O.2   150  ARG150     -0.2867
      5  CB       -26.8370  -11.8740   -4.7030 C.3   150  ARG150      0.0307
      6  CG       -27.1860  -12.6100   -5.9880 C.3   150  ARG150      0.0489
      7  CD       -28.6770  -12.5560   -6.2570 C.3   150  ARG150      0.2205
      8  NE       -29.0410  -11.4300   -7.1010 N.pl3 150  ARG150     -0.0865
      9  CZ       -30.2360  -10.8560   -7.1460 C.cat 150  ARG150      0.5346
     10  NH1      -31.2320  -11.2530   -6.3560 N.pl3 150  ARG150      0.1354
     11  NH2      -30.4270   -9.8510   -7.9860 N.pl3 150  ARG150      0.1354
     12  N        -23.4890  -10.2470   -1.7430 N.3   152  TYR152     -0.1227
     13  CA       -22.9650   -8.9000   -2.0480 C.3   152  TYR152      0.1736
     14  C        -24.0390   -7.7750   -2.0180 C.2   152  TYR152      0.2595
     15  O        -23.7040   -6.6030   -1.8400 O.2   152  TYR152     -0.2718
     16  CB       -22.1660   -8.8920   -3.3740 C.3   152  TYR152      0.0548
     17  CG       -22.9070   -9.3880   -4.6070 C.ar  152  TYR152     -0.0200
     18  CD1      -23.6230   -8.5010   -5.4230 C.ar  152  TYR152     -0.0009
     19  CD2      -22.8650  -10.7430   -4.9790 C.ar  152  TYR152     -0.0009
     20  CE1      -24.2970   -8.9550   -6.5550 C.ar  152  TYR152      0.0417
     21  CE2      -23.5390  -11.2020   -6.1030 C.ar  152  TYR152      0.0417
     22  CZ       -24.2580  -10.3110   -6.8850 C.ar  152  TYR152      0.1957
     23  OH       -24.9230  -10.7690   -8.0050 O.3   152  TYR152     -0.2866
     24  N        -25.3130   -8.1420   -2.1690 N.am  153  LEU153     -0.1980
     25  CA       -26.4350   -7.1890   -2.1160 C.3   153  LEU153      0.1596
     26  C        -26.9660   -6.9280   -0.7020 C.2   153  LEU153      0.2287
     27  O        -27.7430   -5.9850   -0.5040 O.2   153  LEU153     -0.2864
     28  CB       -27.6100   -7.6910   -2.9830 C.3   153  LEU153      0.0297
     29  CG       -27.3920   -7.8370   -4.4990 C.3   153  LEU153      0.0022
     30  CD1      -28.7130   -8.1720   -5.1720 C.3   153  LEU153      0.0001
     31  CD2      -26.7990   -6.5710   -5.1050 C.3   153  LEU153      0.0001
     32  N        -28.9710   -1.9080   -3.4980 N.3   170  THR170     -0.1203
     33  CA       -29.9900   -2.4380   -4.3880 C.3   170  THR170      0.1994
     34  C        -30.2860   -3.8460   -3.9300 C.2   170  THR170      0.2618
     35  O        -29.4220   -4.4990   -3.3390 O.2   170  THR170     -0.2717
     36  CB       -29.5340   -2.4400   -5.8650 C.3   170  THR170      0.1784
     37  OG1      -30.5690   -2.9680   -6.7080 O.3   170  THR170     -0.2211
     38  CG2      -28.2690   -3.2690   -6.0710 C.3   170  THR170      0.0376
     39  N        -31.5110   -4.3020   -4.1760 N.am  171  ASP171     -0.1959
     40  CA       -31.8920   -5.6780   -3.8690 C.3   171  ASP171      0.1840
     41  C        -32.2290   -6.4700   -5.1290 C.2   171  ASP171      0.2623
     42  O        -32.7020   -7.6030   -5.0430 O.2   171  ASP171     -0.2715
     43  CB       -33.0620   -5.7110   -2.8730 C.3   171  ASP171      0.1450
     44  CG       -34.2770   -4.9130   -3.3420 C.2   171  ASP171      0.3671
     45  OD1      -34.3640   -4.5170   -4.5270 O.co2 171  ASP171     -0.2456
     46  OD2      -35.1580   -4.6800   -2.4880 O.co2 171  ASP171     -0.2456
     47  N        -31.9830   -5.8650   -6.2910 N.am  172  GLY172     -0.1940
     48  CA       -32.3160   -6.4820   -7.5800 C.3   172  GLY172      0.2014
     49  C        -33.6320   -6.0030   -8.1720 C.2   172  GLY172      0.2639
     50  O        -33.8720   -6.1610   -9.3720 O.2   172  GLY172     -0.2714
     51  N        -34.4860   -5.4190   -7.3360 N.am  173  HIS173     -0.1959
     52  CA       -35.7790   -4.8910   -7.7860 C.3   173  HIS173      0.1787
     53  C        -35.7700   -3.3760   -7.8420 C.2   173  HIS173      0.2620
     54  O        -36.3820   -2.7820   -8.7310 O.2   173  HIS173     -0.2715
     55  CB       -36.8910   -5.3680   -6.8620 C.3   173  HIS173      0.0785
     56  CG       -36.9560   -6.8550   -6.7340 C.ar  173  HIS173      0.0821
     57  ND1      -36.6860   -7.5130   -5.5530 N.ar  173  HIS173     -0.2267
     58  CD2      -37.2160   -7.8170   -7.6520 C.ar  173  HIS173      0.1154
     59  CE1      -36.7980   -8.8160   -5.7430 C.ar  173  HIS173      0.1986
     60  NE2      -37.1170   -9.0280   -7.0080 N.ar  173  HIS173     -0.2212
     61  N        -35.0770   -2.7550   -6.8910 N.am  174  ARG174     -0.1977
     62  CA       -34.9270   -1.3020   -6.8500 C.3   174  ARG174      0.1597
     63  C        -33.5170   -0.9340   -6.3870 C.2   174  ARG174      0.2287
     64  O        -32.8010   -1.7850   -5.8600 O.2   174  ARG174     -0.2864
     65  CB       -36.0030   -0.6640   -5.9660 C.3   174  ARG174      0.0334
     66  CG       -36.4200   -1.4640   -4.7370 C.3   174  ARG174      0.0492
     67  CD       -35.4220   -1.3110   -3.6060 C.3   174  ARG174      0.2205
     68  NE       -35.8090   -2.0330   -2.3970 N.pl3 174  ARG174     -0.0865
     69  CZ       -36.6810   -1.5980   -1.4890 C.cat 174  ARG174      0.5346
     70  NH1      -37.3020   -0.4230   -1.6220 N.pl3 174  ARG174      0.1354
     71  NH2      -36.9330   -2.3530   -0.4310 N.pl3 174  ARG174      0.1354
     72  N        -18.7970   -9.2210   -6.8020 N.3   238  ARG238     -0.1245
     73  CA       -18.8970   -8.0580   -7.6790 C.3   238  ARG238      0.1563
     74  C        -20.2660   -7.3950   -7.5680 C.2   238  ARG238      0.2260
     75  O        -21.2760   -7.9400   -8.0200 O.2   238  ARG238     -0.2867
     76  CB       -18.6680   -8.4460   -9.1390 C.3   238  ARG238      0.0307
     77  CG       -17.2860   -8.9770   -9.4560 C.3   238  ARG238      0.0489
     78  CD       -17.0520   -8.9560  -10.9540 C.3   238  ARG238      0.2205
     79  NE       -18.1700   -9.5280  -11.7030 N.pl3 238  ARG238     -0.0865
     80  CZ       -18.4450  -10.8320  -11.7900 C.cat 238  ARG238      0.5346
     81  NH1      -17.7010  -11.7410  -11.1630 N.pl3 238  ARG238      0.1354
     82  NH2      -19.4860  -11.2330  -12.5030 N.pl3 238  ARG238      0.1354
     83  N        -23.1440   -4.7360   -8.4850 N.3   240  PRO240     -0.2116
     84  CA       -23.5830   -4.1670   -9.7600 C.3   240  PRO240      0.1372
     85  C        -23.1820   -2.7030   -9.9310 C.2   240  PRO240      0.2244
     86  O        -22.9280   -2.0040   -8.9470 O.2   240  PRO240     -0.2868
     87  CB       -25.1120   -4.2880   -9.6970 C.3   240  PRO240      0.0268
     88  CG       -25.4360   -4.4310   -8.2510 C.3   240  PRO240      0.0207
     89  CD       -24.2840   -5.1610   -7.6500 C.3   240  PRO240      0.0892
     90  N        -27.7830    0.4910  -14.1560 N.3   245  VAL245     -0.1245
     91  CA       -29.1330    0.4450  -13.6240 C.3   245  VAL245      0.1561
     92  C        -29.8510    1.7500  -13.9180 C.2   245  VAL245      0.2260
     93  O        -31.0090    1.7500  -14.3100 O.2   245  VAL245     -0.2867
     94  CB       -29.1010    0.2250  -12.1010 C.3   245  VAL245      0.0252
     95  CG1      -30.5060    0.2940  -11.5190 C.3   245  VAL245      0.0019
     96  CG2      -28.4060   -1.1000  -11.7670 C.3   245  VAL245      0.0019
     97  N        -33.8740    4.2590   -8.5030 N.3   358  VAL358     -0.1245
     98  CA       -34.3350    3.5520   -9.6930 C.3   358  VAL358      0.1561
     99  C        -35.2350    2.3840   -9.3110 C.2   358  VAL358      0.2260
    100  O        -34.8880    1.5860   -8.4330 O.2   358  VAL358     -0.2867
    101  CB       -33.1620    3.0290  -10.5440 C.3   358  VAL358      0.0252
    102  CG1      -33.6710    2.2940  -11.7860 C.3   358  VAL358      0.0019
    103  CG2      -32.2720    4.1800  -10.9510 C.3   358  VAL358      0.0019
    104  N        -37.8820   -0.7290  -11.1290 N.3   360  MET360     -0.1245
    105  CA       -38.3340   -1.4420  -12.3290 C.3   360  MET360      0.1570
    106  C        -39.8460   -1.4420  -12.4410 C.2   360  MET360      0.2261
    107  O        -40.5270   -1.4490  -11.4320 O.2   360  MET360     -0.2867
    108  CB       -37.8550   -2.8940  -12.3260 C.3   360  MET360      0.0387
    109  CG       -36.3690   -3.0350  -12.5670 C.3   360  MET360      0.0595
    110  SD       -35.8270   -2.2670  -14.1160 S.3   360  MET360     -0.1393
    111  CE       -36.4520   -3.4340  -15.3310 C.3   360  MET360      0.0692
@<TRIPOS>BOND
     1   111   110    1
     2    93    92    2
     3    90    91    1
     4   110   109    1
     5    92    91    1
     6    91    94    1
     7   109   108    1
     8    82    80    1
     9   106   105    1
    10   106   107    2
    11   105   108    1
    12   105   104    1
    13    94    96    1
    14    94    95    1
    15    80    79    2
    16    80    81    1
    17   102   101    1
    18    79    78    1
    19    78    77    1
    20   103   101    1
    21   101    98    1
    22    85    84    1
    23    85    86    2
    24    84    87    1
    25    84    83    1
    26    87    88    1
    27    98    99    1
    28    98    97    1
    29    77    76    1
    30    50    49    2
    31    99   100    2
    32    76    73    1
    33    54    53    2
    34    83    89    1
    35    88    89    1
    36    49    48    1
    37    49    51   am
    38    75    74    2
    39    23    22    1
    40    11     9    1
    41    53    52    1
    42    53    61   am
    43    52    51    1
    44    52    55    1
    45    73    74    1
    46    73    72    1
    47    58    60   ar
    48    58    56   ar
    49    48    47    1
    50     9     8    2
    51     9    10    1
    52     8     7    1
    53    60    59   ar
    54    61    62    1
    55    22    20   ar
    56    22    21   ar
    57    55    56    1
    58    62    63    1
    59    62    65    1
    60    56    57   ar
    61    37    36    1
    62    20    18   ar
    63    63    64    2
    64    47    41   am
    65     7     6    1
    66    21    19   ar
    67    38    36    1
    68     6     5    1
    69    65    66    1
    70    36    33    1
    71    59    57   ar
    72    18    17   ar
    73    30    29    1
    74    41    42    2
    75    41    40    1
    76    31    29    1
    77    19    17   ar
    78    66    67    1
    79     5     2    1
    80    17    16    1
    81    45    44   ar
    82    29    28    1
    83    33    34    1
    84    33    32    1
    85    39    34   am
    86    39    40    1
    87    34    35    2
    88    40    43    1
    89    67    68    1
    90     2     1    1
    91     2     3    1
    92    16    13    1
    93    44    43    1
    94    44    46   ar
    95    28    25    1
    96    68    69    2
    97     3     4    2
    98    24    25    1
    99    24    14   am
   100    25    26    1
   101    13    14    1
   102    13    12    1
   103    14    15    2
   104    70    69    1
   105    69    71    1
   106    26    27    2
