@<TRIPOS>MOLECULE
tmp/4ovpA00.pdb
 112 104 0 0 0
SMALL
GASTEIGER

@<TRIPOS>ATOM
      1  N         23.9250   27.6050   49.9350 N.3    15  PHE15      -0.1241
      2  CA        22.5920   27.5230   49.3320 C.3    15  PHE15       0.1605
      3  C         22.6310   27.3960   47.8260 C.2    15  PHE15       0.2264
      4  O         23.6970   27.5000   47.2070 O.2    15  PHE15      -0.2867
      5  CB        21.8140   28.7820   49.7070 C.3    15  PHE15       0.0534
      6  CG        21.7690   29.0720   51.1960 C.ar   15  PHE15      -0.0203
      7  CD1       20.8600   28.4300   52.0060 C.ar   15  PHE15      -0.0042
      8  CD2       22.6190   29.9990   51.7630 C.ar   15  PHE15      -0.0042
      9  CE1       20.8020   28.6860   53.3600 C.ar   15  PHE15      -0.0003
     10  CE2       22.5590   30.2890   53.1400 C.ar   15  PHE15      -0.0003
     11  CZ        21.6490   29.6140   53.9370 C.ar   15  PHE15      -0.0000
     12  N         21.8480   35.0630   49.7290 N.3    21  PHE21      -0.1241
     13  CA        23.3240   35.0530   49.8320 C.3    21  PHE21       0.1605
     14  C         24.0040   34.6600   48.5050 C.2    21  PHE21       0.2264
     15  O         24.9960   35.2690   48.1120 O.2    21  PHE21      -0.2867
     16  CB        23.8450   34.0770   50.8920 C.3    21  PHE21       0.0534
     17  CG        23.5400   34.4420   52.3300 C.ar   21  PHE21      -0.0203
     18  CD1       22.7890   35.5450   52.6970 C.ar   21  PHE21      -0.0042
     19  CD2       24.0520   33.6430   53.3340 C.ar   21  PHE21      -0.0042
     20  CE1       22.5330   35.8120   54.0460 C.ar   21  PHE21      -0.0003
     21  CE2       23.8140   33.9150   54.6770 C.ar   21  PHE21      -0.0003
     22  CZ        23.0420   35.0070   55.0310 C.ar   21  PHE21      -0.0000
     23  N         29.4960   27.5450   57.0720 N.3    53  GLU53      -0.1245
     24  CA        30.2410   28.7230   57.4830 C.3    53  GLU53       0.1567
     25  C         31.3710   28.4860   58.4600 C.2    53  GLU53       0.2260
     26  O         32.4110   29.1380   58.3820 O.2    53  GLU53      -0.2867
     27  CB        29.2990   29.7960   58.0470 C.3    53  GLU53       0.0388
     28  CG        28.4370   30.4120   56.9650 C.3    53  GLU53       0.1160
     29  CD        27.5330   31.5070   57.4780 C.2    53  GLU53       0.3649
     30  OE1       27.6870   31.9030   58.6530 O.co2  53  GLU53      -0.2457
     31  OE2       26.6930   32.0100   56.6760 O.co2  53  GLU53      -0.2457
     32  N         28.1050   34.7330   59.1400 N.3    72  ALA72      -0.1245
     33  CA        27.4420   35.2350   60.3250 C.3    72  ALA72       0.1562
     34  C         28.4610   35.5830   61.4160 C.2    72  ALA72       0.2260
     35  O         29.3530   34.7980   61.6930 O.2    72  ALA72      -0.2867
     36  CB        26.4680   34.2060   60.8430 C.3    72  ALA72       0.0290
     37  N         29.2840   32.9590   63.9390 N.3    75  ASN75      -0.1240
     38  CA        30.0970   31.8260   63.5250 C.3    75  ASN75       0.1653
     39  C         31.5920   32.1410   63.4840 C.2    75  ASN75       0.2266
     40  O         32.4120   31.2710   63.1410 O.2    75  ASN75      -0.2867
     41  CB        29.6170   31.2430   62.1720 C.3    75  ASN75       0.1155
     42  CG        28.2890   30.5150   62.2950 C.2    75  ASN75       0.2627
     43  OD1       27.9490   29.9860   63.3740 O.2    75  ASN75      -0.2716
     44  ND2       27.5010   30.5140   61.2110 N.am   75  ASN75      -0.0877
     45  N         15.3790   36.6190   62.5580 N.3   128  ARG128     -0.1245
     46  CA        15.4460   35.2650   63.1070 C.3   128  ARG128      0.1563
     47  C         14.3690   35.0880   64.1670 C.2   128  ARG128      0.2260
     48  O         14.1580   35.9540   65.0100 O.2   128  ARG128     -0.2867
     49  CB        16.8440   34.9310   63.6480 C.3   128  ARG128      0.0307
     50  CG        17.9240   35.1040   62.5830 C.3   128  ARG128      0.0489
     51  CD        19.3010   34.8240   63.0590 C.3   128  ARG128      0.2205
     52  NE        19.6350   33.4540   63.4830 N.pl3 128  ARG128     -0.0865
     53  CZ        20.3840   32.5980   62.7850 C.cat 128  ARG128      0.5346
     54  NH1       20.7290   32.8680   61.5340 N.pl3 128  ARG128      0.1354
     55  NH2       20.7330   31.4320   63.3130 N.pl3 128  ARG128      0.1354
     56  N         19.0760   24.4380   69.1800 N.3   147  ARG147     -0.1245
     57  CA        20.4020   24.6830   68.6440 C.3   147  ARG147      0.1563
     58  C         20.6560   26.1730   68.5070 C.2   147  ARG147      0.2260
     59  O         19.7570   26.9320   68.1490 O.2   147  ARG147     -0.2867
     60  CB        20.5800   23.9970   67.2830 C.3   147  ARG147      0.0307
     61  CG        21.8900   24.2860   66.5790 C.3   147  ARG147      0.0489
     62  CD        21.7860   25.5230   65.7140 C.3   147  ARG147      0.2205
     63  NE        22.9850   25.7350   64.9180 N.pl3 147  ARG147     -0.0865
     64  CZ        23.1510   26.7450   64.0540 C.cat 147  ARG147      0.5346
     65  NH1       24.2730   26.8430   63.3590 N.pl3 147  ARG147      0.1354
     66  NH2       22.1840   27.6240   63.8470 N.pl3 147  ARG147      0.1354
     67  N         25.3350   23.4550   61.8920 N.3   169  TYR169     -0.1241
     68  CA        24.1710   23.8410   61.0900 C.3   169  TYR169      0.1605
     69  C         23.7080   22.6860   60.2020 C.2   169  TYR169      0.2264
     70  O         22.5160   22.4750   60.0130 O.2   169  TYR169     -0.2867
     71  CB        24.5180   25.0750   60.2640 C.3   169  TYR169      0.0534
     72  CG        23.3360   25.7790   59.6110 C.ar  169  TYR169     -0.0201
     73  CD1       22.2380   26.1690   60.3600 C.ar  169  TYR169     -0.0009
     74  CD2       23.3210   26.0480   58.2420 C.ar  169  TYR169     -0.0009
     75  CE1       21.1590   26.8510   59.7760 C.ar  169  TYR169      0.0417
     76  CE2       22.2650   26.6910   57.6550 C.ar  169  TYR169      0.0417
     77  CZ        21.1800   27.0990   58.4080 C.ar  169  TYR169      0.1957
     78  OH        20.1290   27.7390   57.7810 O.3   169  TYR169     -0.2866
     79  N         16.1010   30.7700   63.1860 N.3   186  ASN186     -0.1225
     80  CA        16.6250   31.1210   61.8600 C.3   186  ASN186      0.1785
     81  C         15.6520   32.0930   61.2120 C.2   186  ASN186      0.2597
     82  O         14.4830   32.2510   61.6480 O.2   186  ASN186     -0.2718
     83  CB        16.7430   29.8640   60.9590 C.3   186  ASN186      0.1169
     84  CG        18.1630   29.5950   60.4100 C.2   186  ASN186      0.2627
     85  OD1       18.3150   29.2520   59.2320 O.2   186  ASN186     -0.2716
     86  ND2       19.2000   29.7260   61.2500 N.am  186  ASN186     -0.0877
     87  N         16.1390   32.7240   60.1460 N.am  187  GLU187     -0.1979
     88  CA        15.3350   33.6240   59.3480 C.3   187  GLU187      0.1602
     89  C         14.6190   32.8980   58.1980 C.2   187  GLU187      0.2287
     90  O         14.9450   31.7570   57.8810 O.2   187  GLU187     -0.2864
     91  CB        16.2150   34.7790   58.8420 C.3   187  GLU187      0.0415
     92  CG        17.3270   34.4070   57.8630 C.3   187  GLU187      0.1163
     93  CD        18.6720   34.0410   58.5030 C.2   187  GLU187      0.3649
     94  OE1       18.7200   33.5170   59.6520 O.co2 187  GLU187     -0.2457
     95  OE2       19.7130   34.2360   57.8330 O.co2 187  GLU187     -0.2457
     96  N         16.4410   31.1640   54.7630 N.3   190  SER190     -0.1217
     97  CA        17.2010   29.9460   54.9550 C.3   190  SER190      0.1889
     98  C         16.3220   28.7590   55.3730 C.2   190  SER190      0.2288
     99  O         16.5760   27.6100   54.9880 O.2   190  SER190     -0.2866
    100  CB        18.3360   30.2020   55.9710 C.3   190  SER190      0.2089
    101  OG        17.8940   30.9700   57.0920 O.3   190  SER190     -0.2183
    102  N         25.2580   40.3680   57.9190 N.3   213  ARG213     -0.1245
    103  CA        26.0140   39.3110   57.2480 C.3   213  ARG213      0.1563
    104  C         27.1350   39.8820   56.3700 C.2   213  ARG213      0.2260
    105  O         26.9620   40.1280   55.1770 O.2   213  ARG213     -0.2867
    106  CB        25.0550   38.4470   56.4480 C.3   213  ARG213      0.0307
    107  CG        24.0910   37.6500   57.3300 C.3   213  ARG213      0.0489
    108  CD        24.7960   36.4770   57.9060 C.3   213  ARG213      0.2205
    109  NE        23.9670   35.6950   58.8280 N.pl3 213  ARG213     -0.0865
    110  CZ        23.7150   36.0440   60.0940 C.cat 213  ARG213      0.5346
    111  NH1       24.1800   37.1770   60.6190 N.pl3 213  ARG213      0.1354
    112  NH2       22.9850   35.2290   60.8600 N.pl3 213  ARG213      0.1354
@<TRIPOS>BOND
     1     4     3    2
     2     3     2    1
     3    15    14    2
     4    14    13    1
     5     2     5    1
     6     2     1    1
     7     5     6    1
     8    12    13    1
     9    13    16    1
    10    16    17    1
    11     6     8   ar
    12     6     7   ar
    13     8    10   ar
    14     7     9   ar
    15    17    18   ar
    16    17    19   ar
    17    18    20   ar
    18    10    11   ar
    19    19    21   ar
    20     9    11   ar
    21    20    22   ar
    22    21    22   ar
    23    96    97    1
    24    97    98    1
    25    97   100    1
    26    99    98    2
    27   105   104    2
    28   100   101    1
    29   104   103    1
    30   106   103    1
    31   106   107    1
    32    31    29   ar
    33    28    29    1
    34    28    27    1
    35    23    24    1
    36   103   102    1
    37   107   108    1
    38    29    30   ar
    39    24    27    1
    40    24    25    1
    41    76    74   ar
    42    76    77   ar
    43    78    77    1
    44    95    93   ar
    45    92    93    1
    46    92    91    1
    47    90    89    2
    48   108   109    1
    49    89    88    1
    50    74    72   ar
    51    26    25    2
    52    77    75   ar
    53    93    94   ar
    54   109   110    2
    55    91    88    1
    56    32    33    1
    57    85    84    2
    58    88    87    1
    59    72    71    1
    60    72    73   ar
    61    75    73   ar
    62    70    69    2
    63   110   111    1
    64   110   112    1
    65    87    81   am
    66    69    68    1
    67    71    68    1
    68    33    36    1
    69    33    34    1
    70    84    83    1
    71    84    86   am
    72    83    80    1
    73    68    67    1
    74    44    42   am
    75    81    82    2
    76    81    80    1
    77    34    35    2
    78    54    53    1
    79    80    79    1
    80    41    42    1
    81    41    38    1
    82    42    43    2
    83    45    46    1
    84    50    51    1
    85    50    49    1
    86    53    55    1
    87    53    52    2
    88    51    52    1
    89    46    49    1
    90    46    47    1
    91    40    39    2
    92    65    64    1
    93    39    38    1
    94    38    37    1
    95    66    64    1
    96    64    63    2
    97    47    48    2
    98    63    62    1
    99    62    61    1
   100    61    60    1
   101    60    57    1
   102    59    58    2
   103    58    57    1
   104    57    56    1
