@<TRIPOS>MOLECULE
tmp/4ovqA00.pdb
 153 144 0 0 0
SMALL
GASTEIGER

@<TRIPOS>ATOM
      1  N         11.9720    1.9520   -4.5140 N.3     6  TRP6       -0.1241
      2  CA        12.1840    0.7640   -3.6870 C.3     6  TRP6        0.1605
      3  C         12.5180    1.0870   -2.2490 C.2     6  TRP6        0.2264
      4  O         13.3140    2.0100   -1.9730 O.2     6  TRP6       -0.2867
      5  CB        13.3240   -0.0650   -4.3040 C.3     6  TRP6        0.0550
      6  CG        13.7070   -1.3490   -3.6700 C.ar    6  TRP6        0.0003
      7  CD1       13.3280   -2.6050   -4.0840 C.ar    6  TRP6        0.0946
      8  CD2       14.6050   -1.5470   -2.5650 C.ar    6  TRP6        0.0152
      9  NE1       13.9030   -3.5450   -3.2830 N.ar    6  TRP6       -0.2442
     10  CE2       14.6910   -2.9360   -2.3430 C.ar    6  TRP6        0.0810
     11  CE3       15.3200   -0.6830   -1.7240 C.ar    6  TRP6        0.0012
     12  CZ2       15.4760   -3.4930   -1.3110 C.ar    6  TRP6        0.0191
     13  CZ3       16.0720   -1.2220   -0.6890 C.ar    6  TRP6        0.0001
     14  CH2       16.1940   -2.6210   -0.5260 C.ar    6  TRP6        0.0015
     15  N         13.0030   -1.5360    1.4430 N.3     8  ILE8       -0.1231
     16  CA        12.9170   -2.9130    1.9330 C.3     8  ILE8        0.1692
     17  C         12.0140   -3.0790    3.1540 C.2     8  ILE8        0.2592
     18  O         11.6430   -4.2070    3.4860 O.2     8  ILE8       -0.2718
     19  CB        14.3330   -3.4850    2.2280 C.3     8  ILE8        0.0266
     20  CG1       14.3950   -5.0210    2.1700 C.3     8  ILE8        0.0019
     21  CG2       14.8960   -2.9340    3.5220 C.3     8  ILE8        0.0020
     22  CD1       15.8550   -5.5240    1.9150 C.3     8  ILE8        0.0001
     23  N         11.6240   -1.9740    3.7990 N.am    9  HIS9       -0.1976
     24  CA        11.0500   -2.0170    5.1470 C.3     9  HIS9        0.1656
     25  C          9.5320   -2.1870    5.1860 C.2     9  HIS9        0.2291
     26  O          8.8500   -2.0070    4.1800 O.2     9  HIS9       -0.2864
     27  CB        11.5200   -0.8230    5.9880 C.3     9  HIS9        0.0771
     28  CG        12.9740   -0.8990    6.3080 C.ar    9  HIS9        0.0820
     29  ND1       13.4710   -1.7770    7.2470 N.ar    9  HIS9       -0.2267
     30  CD2       14.0480   -0.2620    5.7750 C.ar    9  HIS9        0.1154
     31  CE1       14.7870   -1.6760    7.2840 C.ar    9  HIS9        0.1986
     32  NE2       15.1650   -0.7600    6.4080 N.ar    9  HIS9       -0.2212
     33  N          7.7070    1.6840    9.6270 N.3    13  TYR13      -0.1241
     34  CA         9.1300    1.8490    9.8080 C.3    13  TYR13       0.1605
     35  C          9.4870    3.2620    9.3880 C.2    13  TYR13       0.2264
     36  O          8.8840    3.7880    8.4370 O.2    13  TYR13      -0.2867
     37  CB         9.8900    0.8370    8.9460 C.3    13  TYR13       0.0534
     38  CG        11.2950    0.5470    9.3830 C.ar   13  TYR13      -0.0201
     39  CD1       11.5510   -0.3660   10.4070 C.ar   13  TYR13      -0.0009
     40  CD2       12.3820    1.1500    8.7460 C.ar   13  TYR13      -0.0009
     41  CE1       12.8570   -0.6330   10.7920 C.ar   13  TYR13       0.0417
     42  CE2       13.6830    0.8820    9.1140 C.ar   13  TYR13       0.0417
     43  CZ        13.9160   -0.0160   10.1410 C.ar   13  TYR13       0.1957
     44  OH        15.1970   -0.3100   10.5120 O.3    13  TYR13      -0.2866
     45  N         11.8430    4.6350    7.7410 N.3    15  ASN15      -0.1240
     46  CA        12.1390    4.8110    6.3220 C.3    15  ASN15       0.1653
     47  C         10.9210    4.7300    5.4100 C.2    15  ASN15       0.2266
     48  O         10.8350    5.3690    4.3470 O.2    15  ASN15      -0.2867
     49  CB        13.1190    3.7300    5.8540 C.3    15  ASN15       0.1155
     50  CG        14.4230    3.7570    6.5810 C.2    15  ASN15       0.2627
     51  OD1       14.4910    3.9980    7.7800 O.2    15  ASN15      -0.2716
     52  ND2       15.4930    3.4570    5.8600 N.am   15  ASN15      -0.0877
     53  N         18.1780   -6.0090   -2.0370 N.3    45  GLN45      -0.1245
     54  CA        18.7980   -4.7080   -2.1290 C.3    45  GLN45       0.1566
     55  C         19.8520   -4.6520   -3.2650 C.2    45  GLN45       0.2260
     56  O         19.8600   -3.6910   -4.0440 O.2    45  GLN45      -0.2867
     57  CB        19.3270   -4.2460   -0.7610 C.3    45  GLN45       0.0367
     58  CG        19.7830   -2.8060   -0.7800 C.3    45  GLN45       0.0905
     59  CD        19.6890   -2.0410    0.5220 C.2    45  GLN45       0.2608
     60  OE1       19.6860   -0.8220    0.4910 O.2    45  GLN45      -0.2717
     61  NE2       19.5760   -2.7410    1.6580 N.am   45  GLN45      -0.0878
     62  N         15.5580    3.9250   -1.5290 N.3    61  ASN61      -0.1240
     63  CA        16.1870    4.1870   -0.2530 C.3    61  ASN61       0.1653
     64  C         17.1370    3.0160   -0.0170 C.2    61  ASN61       0.2266
     65  O         16.7010    1.9100    0.2970 O.2    61  ASN61      -0.2867
     66  CB        15.1290    4.3090    0.8580 C.3    61  ASN61       0.1155
     67  CG        15.6770    4.0120    2.2520 C.2    61  ASN61       0.2627
     68  OD1       15.0120    3.3800    3.0720 O.2    61  ASN61      -0.2716
     69  ND2       16.8960    4.4440    2.5150 N.am   61  ASN61      -0.0877
     70  N         20.5630    1.4500    1.9020 N.3    63  ASN63      -0.1240
     71  CA        21.6680    1.4110    2.8640 C.3    63  ASN63       0.1653
     72  C         22.9900    1.4420    2.0980 C.2    63  ASN63       0.2266
     73  O         23.1110    0.8120    1.0420 O.2    63  ASN63      -0.2867
     74  CB        21.5760    0.1010    3.6120 C.3    63  ASN63       0.1155
     75  CG        22.5210    0.0020    4.8020 C.2    63  ASN63       0.2627
     76  OD1       23.6240   -0.5590    4.6850 O.2    63  ASN63      -0.2716
     77  ND2       22.0610    0.4390    5.9650 N.am   63  ASN63      -0.0877
     78  N         25.4090   -2.2960    0.9060 N.3    66  PRO66      -0.2116
     79  CA        25.4040   -2.9840   -0.4010 C.3    66  PRO66       0.1372
     80  C         25.8070   -2.1030   -1.5890 C.2    66  PRO66       0.2244
     81  O         26.0450   -2.6310   -2.6800 O.2    66  PRO66      -0.2868
     82  CB        23.9580   -3.4810   -0.5230 C.3    66  PRO66       0.0268
     83  CG        23.3820   -3.3710    0.8720 C.3    66  PRO66       0.0207
     84  CD        24.0650   -2.2100    1.4830 C.3    66  PRO66       0.0892
     85  N         20.3260    5.0980   10.1260 N.3   116  ALA116     -0.1245
     86  CA        20.0380    3.6820   10.4030 C.3   116  ALA116      0.1562
     87  C         20.7630    3.2310   11.6520 C.2   116  ALA116      0.2260
     88  O         20.9630    2.0300   11.8690 O.2   116  ALA116     -0.2867
     89  CB        20.4130    2.7830    9.2220 C.3   116  ALA116      0.0290
     90  N         24.6810   -0.7990   14.1350 N.3   119  ARG119     -0.1245
     91  CA        24.4160   -2.2220   14.0450 C.3   119  ARG119      0.1563
     92  C         25.1820   -2.9960   15.1290 C.2   119  ARG119      0.2260
     93  O         26.3650   -2.7540   15.3430 O.2   119  ARG119     -0.2867
     94  CB        24.8300   -2.7400   12.6480 C.3   119  ARG119      0.0307
     95  CG        24.1990   -1.9980   11.5110 C.3   119  ARG119      0.0489
     96  CD        24.7380   -2.4420   10.1540 C.3   119  ARG119      0.2205
     97  NE        24.4020   -3.8080    9.7920 N.pl3 119  ARG119     -0.0865
     98  CZ        23.4140   -4.1490    8.9630 C.cat 119  ARG119      0.5346
     99  NH1       22.5610   -3.2360    8.5160 N.pl3 119  ARG119      0.1354
    100  NH2       23.2320   -5.4130    8.6760 N.pl3 119  ARG119      0.1354
    101  N         25.2310  -14.1090    9.7560 N.3   139  ARG139     -0.1245
    102  CA        24.7830  -13.5120    8.5160 C.3   139  ARG139      0.1563
    103  C         25.2310  -12.0630    8.4630 C.2   139  ARG139      0.2260
    104  O         25.1610  -11.3240    9.4590 O.2   139  ARG139     -0.2867
    105  CB        23.2630  -13.5680    8.4030 C.3   139  ARG139      0.0307
    106  CG        22.6850  -12.9320    7.1010 C.3   139  ARG139      0.0489
    107  CD        22.4120  -11.4480    7.2810 C.3   139  ARG139      0.2205
    108  NE        21.9410  -10.7850    6.0690 N.pl3 139  ARG139     -0.0865
    109  CZ        21.5800   -9.5100    6.0300 C.cat 139  ARG139      0.5346
    110  NH1       21.6240   -8.7940    7.1440 N.pl3 139  ARG139      0.1354
    111  NH2       21.1630   -8.9770    4.8850 N.pl3 139  ARG139      0.1354
    112  N         18.4960   -9.9630    3.1420 N.3   159  PHE159     -0.1241
    113  CA        17.8250   -9.6020    4.3720 C.3   159  PHE159      0.1605
    114  C         16.5460  -10.3950    4.5680 C.2   159  PHE159      0.2264
    115  O         16.2420  -10.8000    5.6800 O.2   159  PHE159     -0.2867
    116  CB        17.5310   -8.1020    4.3130 C.3   159  PHE159      0.0534
    117  CG        17.1230   -7.4710    5.6120 C.ar  159  PHE159     -0.0203
    118  CD1       17.7710   -7.7500    6.7970 C.ar  159  PHE159     -0.0042
    119  CD2       16.0720   -6.5490    5.6200 C.ar  159  PHE159     -0.0042
    120  CE1       17.3820   -7.0700    7.9830 C.ar  159  PHE159     -0.0003
    121  CE2       15.6930   -5.9060    6.8010 C.ar  159  PHE159     -0.0003
    122  CZ        16.3410   -6.1880    7.9490 C.ar  159  PHE159     -0.0000
    123  N         22.3780   -5.9400   13.3780 N.3   176  ASN176     -0.1225
    124  CA        21.5590   -4.8780   12.8510 C.3   176  ASN176      0.1785
    125  C         21.2060   -3.8680   13.9140 C.2   176  ASN176      0.2597
    126  O         21.5690   -4.0270   15.0600 O.2   176  ASN176     -0.2718
    127  CB        20.2870   -5.4210   12.1990 C.3   176  ASN176      0.1169
    128  CG        19.9710   -4.6980   10.9120 C.2   176  ASN176      0.2627
    129  OD1       19.8770   -3.4700   10.9200 O.2   176  ASN176     -0.2716
    130  ND2       19.8600   -5.4250    9.8010 N.am  176  ASN176     -0.0877
    131  N         20.5190   -2.8080   13.5080 N.am  177  ASN177     -0.1974
    132  CA        20.0430   -1.8070   14.4680 C.3   177  ASN177      0.1688
    133  C         18.7910   -2.3150   15.2150 C.2   177  ASN177      0.2292
    134  O         18.2080   -3.3430   14.8730 O.2   177  ASN177     -0.2864
    135  CB        19.7590   -0.5060   13.7310 C.3   177  ASN177      0.1181
    136  CG        18.8390   -0.6920   12.5320 C.2   177  ASN177      0.2629
    137  OD1       17.8070   -1.3400   12.6070 O.2   177  ASN177     -0.2716
    138  ND2       19.2280   -0.1040   11.3860 N.am  177  ASN177     -0.0877
    139  N         15.3540   -2.8050   13.0090 N.3   180  SER180     -0.1217
    140  CA        15.3640   -3.9560   12.0990 C.3   180  SER180      0.1889
    141  C         15.2660   -5.2580   12.8830 C.2   180  SER180      0.2288
    142  O         14.5630   -6.1670   12.4900 O.2   180  SER180     -0.2866
    143  CB        16.6420   -3.9890   11.2670 C.3   180  SER180      0.2089
    144  OG        16.6310   -3.0440   10.2110 O.3   180  SER180     -0.2183
    145  N         22.1210    5.6540    5.2620 N.3   203  GLU203     -0.1245
    146  CA        21.3940    5.3180    4.0640 C.3   203  GLU203      0.1567
    147  C         21.1740    6.5750    3.2820 C.2   203  GLU203      0.2260
    148  O         21.4530    7.6790    3.7490 O.2   203  GLU203     -0.2867
    149  CB        20.0580    4.6370    4.4010 C.3   203  GLU203      0.0388
    150  CG        20.1690    3.5720    5.4940 C.3   203  GLU203      0.1160
    151  CD        19.1110    2.5120    5.4030 C.2   203  GLU203      0.3649
    152  OE1       18.0440    2.7880    4.8200 O.co2 203  GLU203     -0.2457
    153  OE2       19.3850    1.4210    5.9470 O.co2 203  GLU203     -0.2457
@<TRIPOS>BOND
     1     1     2    1
     2     5     2    1
     3     5     6    1
     4     7     6   ar
     5     7     9   ar
     6    56    55    2
     7     2     3    1
     8     6     8   ar
     9     9    10   ar
    10    55    54    1
    11    81    80    2
    12     8    10   ar
    13     8    11   ar
    14    10    12   ar
    15     3     4    2
    16    54    53    1
    17    54    57    1
    18    11    13   ar
    19    80    79    1
    20    62    63    1
    21    12    14   ar
    22    58    57    1
    23    58    59    1
    24    13    14   ar
    25    82    79    1
    26    82    83    1
    27    79    78    1
    28    63    64    1
    29    63    66    1
    30    64    65    2
    31    60    59    2
    32    59    61   am
    33    66    67    1
    34    83    84    1
    35    78    84    1
    36    73    72    2
    37    15    16    1
    38    70    71    1
    39    22    20    1
    40    16    19    1
    41    16    17    1
    42    72    71    1
    43    20    19    1
    44    19    21    1
    45    67    69   am
    46    67    68    2
    47    71    74    1
    48   112   113    1
    49    17    18    2
    50    17    23   am
    51   147   148    2
    52   147   146    1
    53    74    75    1
    54    23    24    1
    55   146   149    1
    56   146   145    1
    57    26    25    2
    58   116   113    1
    59   116   117    1
    60    48    47    2
    61   113   114    1
    62   149   150    1
    63   114   115    2
    64    76    75    2
    65    75    77   am
    66   152   151   ar
    67   111   109    1
    68    24    25    1
    69    24    27    1
    70   151   150    1
    71   151   153   ar
    72    47    46    1
    73   117   119   ar
    74   117   118   ar
    75   119   121   ar
    76    30    28   ar
    77    30    32   ar
    78    49    46    1
    79    49    50    1
    80    52    50   am
    81    27    28    1
    82   109   108    2
    83   109   110    1
    84   108   107    1
    85    28    29   ar
    86    46    45    1
    87    32    31   ar
    88    50    51    2
    89   118   120   ar
    90   121   122   ar
    91   106   107    1
    92   106   105    1
    93    29    31   ar
    94   122   120   ar
    95   105   102    1
    96    36    35    2
    97   103   102    1
    98   103   104    2
    99    99    98    1
   100   102   101    1
   101   100    98    1
   102    40    42   ar
   103    40    38   ar
   104    37    38    1
   105    37    34    1
   106    98    97    2
   107    42    43   ar
   108    89    86    1
   109    38    39   ar
   110    35    34    1
   111    33    34    1
   112    97    96    1
   113   130   128   am
   114    85    86    1
   115    43    44    1
   116    43    41   ar
   117    96    95    1
   118   144   143    1
   119    86    87    1
   120    39    41   ar
   121   128   129    2
   122   128   127    1
   123   143   140    1
   124   138   136   am
   125    95    94    1
   126    87    88    2
   127   140   141    1
   128   140   139    1
   129   127   124    1
   130   142   141    2
   131   136   137    2
   132   136   135    1
   133    94    91    1
   134   124   123    1
   135   124   125    1
   136   131   125   am
   137   131   132    1
   138   135   132    1
   139   125   126    2
   140    91    90    1
   141    91    92    1
   142   132   133    1
   143   134   133    2
   144    92    93    2
