@<TRIPOS>MOLECULE
tmp/4ovrA00.pdb
 140 128 0 0 0
SMALL
GASTEIGER

@<TRIPOS>ATOM
      1  N         10.6460   58.6330   54.1150 N.3     8  VAL8       -0.1231
      2  CA        10.2930   59.4460   55.2920 C.3     8  VAL8        0.1692
      3  C         11.0650   60.7770   55.3820 C.2     8  VAL8        0.2591
      4  O         10.7020   61.6890   56.1750 O.2     8  VAL8       -0.2718
      5  CB        10.4910   58.6670   56.6020 C.3     8  VAL8        0.0266
      6  CG1        9.5860   57.4390   56.6410 C.3     8  VAL8        0.0020
      7  CG2       11.9610   58.3130   56.8350 C.3     8  VAL8        0.0020
      8  N         12.1320   60.9010   54.5930 N.am    9  GLN9       -0.1979
      9  CA        13.0120   62.0620   54.6510 C.3     9  GLN9        0.1601
     10  C         12.4890   63.2120   53.8210 C.2     9  GLN9        0.2287
     11  O         11.6700   63.0050   52.9310 O.2     9  GLN9       -0.2864
     12  CB        14.4220   61.6730   54.2090 C.3     9  GLN9        0.0394
     13  CG        15.1050   60.6480   55.1440 C.3     9  GLN9        0.0908
     14  CD        15.6440   61.2580   56.4180 C.2     9  GLN9        0.2608
     15  OE1       15.4260   62.4440   56.7050 O.2     9  GLN9       -0.2717
     16  NE2       16.3610   60.4540   57.1970 N.am    9  GLN9       -0.0878
     17  N         16.5200   65.9320   50.8040 N.3    13  TYR13      -0.1241
     18  CA        17.4560   65.0330   51.4820 C.3    13  TYR13       0.1605
     19  C         18.2020   64.1800   50.4650 C.2    13  TYR13       0.2264
     20  O         17.6560   63.8530   49.4090 O.2    13  TYR13      -0.2867
     21  CB        16.6890   64.0890   52.3790 C.3    13  TYR13       0.0534
     22  CG        17.4490   63.5340   53.5600 C.ar   13  TYR13      -0.0201
     23  CD1       17.7990   64.3440   54.6200 C.ar   13  TYR13      -0.0009
     24  CD2       17.7750   62.1810   53.6290 C.ar   13  TYR13      -0.0009
     25  CE1       18.4570   63.8340   55.7220 C.ar   13  TYR13       0.0417
     26  CE2       18.4340   61.6540   54.7290 C.ar   13  TYR13       0.0417
     27  CZ        18.7710   62.4930   55.7850 C.ar   13  TYR13       0.1957
     28  OH        19.4010   62.0010   56.9020 O.3    13  TYR13      -0.2866
     29  N          7.7410   53.7660   57.6300 N.3    46  GLU46      -0.1245
     30  CA         8.5140   52.6850   57.0100 C.3    46  GLU46       0.1567
     31  C          7.8220   51.3360   57.1410 C.2    46  GLU46       0.2260
     32  O          7.7670   50.5700   56.1700 O.2    46  GLU46      -0.2867
     33  CB         9.9530   52.6570   57.5520 C.3    46  GLU46       0.0388
     34  CG        10.6910   53.8760   57.0990 C.3    46  GLU46       0.1160
     35  CD        12.1990   53.8510   57.2250 C.2    46  GLU46       0.3649
     36  OE1       12.7130   53.2470   58.1820 O.co2  46  GLU46      -0.2457
     37  OE2       12.8540   54.5070   56.3700 O.co2  46  GLU46      -0.2457
     38  N         12.4560   53.6230   49.5930 N.3    62  ARG62      -0.1245
     39  CA        13.7940   53.8630   50.1390 C.3    62  ARG62       0.1563
     40  C         13.6120   53.8360   51.6550 C.2    62  ARG62       0.2260
     41  O         12.9460   54.7160   52.2030 O.2    62  ARG62      -0.2867
     42  CB        14.3450   55.2180   49.6640 C.3    62  ARG62       0.0307
     43  CG        15.8390   55.4200   49.8350 C.3    62  ARG62       0.0489
     44  CD        16.3010   55.4090   51.2690 C.3    62  ARG62       0.2205
     45  NE        15.6190   56.3900   52.1020 N.pl3  62  ARG62      -0.0865
     46  CZ        15.5500   56.3160   53.4340 C.cat  62  ARG62       0.5346
     47  NH1       16.0940   55.2850   54.0710 N.pl3  62  ARG62       0.1354
     48  NH2       14.9210   57.2550   54.1320 N.pl3  62  ARG62       0.1354
     49  N         15.1920   52.2180   55.7470 N.3    64  ASN64      -0.1240
     50  CA        16.3710   51.7810   56.4900 C.3    64  ASN64       0.1653
     51  C         16.3700   50.2690   56.6620 C.2    64  ASN64       0.2266
     52  O         15.3220   49.6630   56.9160 O.2    64  ASN64      -0.2867
     53  CB        16.4350   52.4470   57.8600 C.3    64  ASN64       0.1155
     54  CG        17.7860   52.2630   58.5610 C.2    64  ASN64       0.2627
     55  OD1       17.8980   51.5110   59.5250 O.2    64  ASN64      -0.2716
     56  ND2       18.8000   53.0010   58.1070 N.am   64  ASN64      -0.0877
     57  N         24.0560   55.7200   55.5020 N.3   117  SER117     -0.1217
     58  CA        23.2940   56.3400   56.5790 C.3   117  SER117      0.1889
     59  C         24.1900   56.7190   57.7740 C.2   117  SER117      0.2288
     60  O         23.7250   56.8490   58.9080 O.2   117  SER117     -0.2866
     61  CB        22.1610   55.4000   57.0100 C.3   117  SER117      0.2089
     62  OG        21.1340   56.1210   57.6710 O.3   117  SER117     -0.2183
     63  N         24.6380   55.7520   63.6720 N.3   120  ARG120     -0.1245
     64  CA        23.6130   56.1980   64.5860 C.3   120  ARG120      0.1563
     65  C         24.1930   56.3540   66.0050 C.2   120  ARG120      0.2260
     66  O         24.9050   55.4720   66.4980 O.2   120  ARG120     -0.2867
     67  CB        22.4830   55.1730   64.5690 C.3   120  ARG120      0.0307
     68  CG        21.8810   54.9430   63.1860 C.3   120  ARG120      0.0489
     69  CD        20.8250   53.8520   63.2440 C.3   120  ARG120      0.2205
     70  NE        19.5710   54.2480   63.8770 N.pl3 120  ARG120     -0.0865
     71  CZ        18.5290   54.7880   63.2370 C.cat 120  ARG120      0.5346
     72  NH1       18.5710   55.0590   61.9250 N.pl3 120  ARG120      0.1354
     73  NH2       17.4210   55.0700   63.9140 N.pl3 120  ARG120      0.1354
     74  N         13.3850   56.3270   71.9850 N.3   140  ARG140     -0.1245
     75  CA        12.6890   55.8900   70.7820 C.3   140  ARG140      0.1563
     76  C         13.6100   55.0630   69.8870 C.2   140  ARG140      0.2260
     77  O         14.7960   55.3820   69.7300 O.2   140  ARG140     -0.2867
     78  CB        12.1810   57.0840   69.9910 C.3   140  ARG140      0.0307
     79  CG        11.4860   56.7210   68.7060 C.3   140  ARG140      0.0489
     80  CD        12.4610   56.6970   67.5350 C.3   140  ARG140      0.2205
     81  NE        11.8100   56.2660   66.3160 N.pl3 140  ARG140     -0.0865
     82  CZ        12.4130   56.1590   65.1460 C.cat 140  ARG140      0.5346
     83  NH1       13.7030   56.4680   65.0450 N.pl3 140  ARG140      0.1354
     84  NH2       11.7460   55.7450   64.0890 N.pl3 140  ARG140      0.1354
     85  N         13.3080   52.5890   65.9410 N.3   142  GLN142     -0.1245
     86  CA        12.5390   52.1180   64.7980 C.3   142  GLN142      0.1566
     87  C         11.6110   50.9900   65.2000 C.2   142  GLN142      0.2260
     88  O         11.8350   50.2990   66.2240 O.2   142  GLN142     -0.2867
     89  CB        13.5050   51.6380   63.7130 C.3   142  GLN142      0.0367
     90  CG        14.2700   52.7380   62.9930 C.3   142  GLN142      0.0905
     91  CD        15.1640   52.1820   61.9360 C.2   142  GLN142      0.2608
     92  OE1       14.7060   51.5470   60.9840 O.2   142  GLN142     -0.2717
     93  NE2       16.4390   52.3720   62.1070 N.am  142  GLN142     -0.0878
     94  N          9.1410   57.4120   62.3480 N.3   160  ALA160     -0.1245
     95  CA        10.0130   58.5750   62.2850 C.3   160  ALA160      0.1562
     96  C          9.2700   59.9140   62.4530 C.2   160  ALA160      0.2260
     97  O          9.7130   60.7900   63.1950 O.2   160  ALA160     -0.2867
     98  CB        10.7820   58.5660   60.9650 C.3   160  ALA160      0.0290
     99  N         20.2780   58.4000   66.0220 N.3   177  ASN177     -0.1225
    100  CA        20.3400   58.5930   64.5830 C.3   177  ASN177      0.1785
    101  C         21.6210   59.2600   64.1650 C.2   177  ASN177      0.2597
    102  O         22.4420   59.6400   65.0070 O.2   177  ASN177     -0.2718
    103  CB        19.1430   59.4020   64.1080 C.3   177  ASN177      0.1169
    104  CG        18.5370   58.8160   62.8600 C.2   177  ASN177      0.2627
    105  OD1       19.2410   58.5510   61.8730 O.2   177  ASN177     -0.2716
    106  ND2       17.2320   58.5840   62.8940 N.am  177  ASN177     -0.0877
    107  N         21.7630   59.3870   62.8540 N.am  178  ASN178     -0.1974
    108  CA        22.9100   60.0290   62.2350 C.3   178  ASN178      0.1688
    109  C         22.7740   61.5560   62.2930 C.2   178  ASN178      0.2292
    110  O         21.7480   62.0880   62.7560 O.2   178  ASN178     -0.2864
    111  CB        23.0970   59.4970   60.8140 C.3   178  ASN178      0.1181
    112  CG        21.8510   59.6480   59.9580 C.2   178  ASN178      0.2629
    113  OD1       21.2200   60.7080   59.9670 O.2   178  ASN178     -0.2716
    114  ND2       21.4940   58.5960   59.2140 N.am  178  ASN178     -0.0877
    115  N         19.8730   63.2910   60.0780 N.3   181  SER181     -0.1217
    116  CA        18.5170   63.0470   60.5840 C.3   181  SER181      0.1889
    117  C         18.2660   63.8420   61.8610 C.2   181  SER181      0.2288
    118  O         17.2030   64.4070   62.0350 O.2   181  SER181     -0.2866
    119  CB        18.2810   61.5560   60.8450 C.3   181  SER181      0.2089
    120  OG        18.3240   60.7780   59.6760 O.3   181  SER181     -0.2183
    121  N         15.0450   66.2200   60.9940 N.3   185  PHE185     -0.1241
    122  CA        13.7930   65.8960   61.7070 C.3   185  PHE185      0.1605
    123  C         13.5490   66.9230   62.8440 C.2   185  PHE185      0.2264
    124  O         12.5640   66.8290   63.5810 O.2   185  PHE185     -0.2867
    125  CB        13.8340   64.4800   62.3330 C.3   185  PHE185      0.0534
    126  CG        13.6900   63.3480   61.3490 C.ar  185  PHE185     -0.0203
    127  CD1       12.5920   63.2530   60.5000 C.ar  185  PHE185     -0.0042
    128  CD2       14.6220   62.3400   61.3090 C.ar  185  PHE185     -0.0042
    129  CE1       12.4730   62.1770   59.6180 C.ar  185  PHE185     -0.0003
    130  CE2       14.4990   61.2790   60.4020 C.ar  185  PHE185     -0.0003
    131  CZ        13.4190   61.2160   59.5710 C.ar  185  PHE185     -0.0000
    132  N         20.7680   52.3260   54.3360 N.3   203  GLU203     -0.1245
    133  CA        19.4850   52.4010   53.6580 C.3   203  GLU203      0.1567
    134  C         19.4350   51.3950   52.5140 C.2   203  GLU203      0.2260
    135  O         20.4780   50.9420   52.0160 O.2   203  GLU203     -0.2867
    136  CB        19.2350   53.7840   53.0160 C.3   203  GLU203      0.0388
    137  CG        19.6650   55.0020   53.7980 C.3   203  GLU203      0.1160
    138  CD        18.9690   55.2000   55.1280 C.2   203  GLU203      0.3649
    139  OE1       18.2560   54.3040   55.6140 O.co2 203  GLU203     -0.2457
    140  OE2       19.1830   56.2800   55.7030 O.co2 203  GLU203     -0.2457
@<TRIPOS>BOND
     1    20    19    2
     2    38    39    1
     3    42    43    1
     4    42    39    1
     5    43    44    1
     6    39    40    1
     7    19    18    1
     8    17    18    1
     9    44    45    1
    10    18    21    1
    11    40    41    2
    12   135   134    2
    13    45    46    2
    14    21    22    1
    15   134   133    1
    16    11    10    2
    17   136   133    1
    18   136   137    1
    19    46    47    1
    20    46    48    1
    21    22    24   ar
    22    22    23   ar
    23    24    26   ar
    24   133   132    1
    25   137   138    1
    26    10     9    1
    27     1     2    1
    28    12     9    1
    29    12    13    1
    30     8     9    1
    31     8     3   am
    32    23    25   ar
    33    26    27   ar
    34   138   139   ar
    35   138   140   ar
    36    13    14    1
    37     2     3    1
    38     2     5    1
    39     3     4    2
    40    57    58    1
    41    25    27   ar
    42    49    50    1
    43    27    28    1
    44    32    31    2
    45    37    35   ar
    46    14    15    2
    47    14    16   am
    48    50    51    1
    49    50    53    1
    50    58    61    1
    51    58    59    1
    52     5     6    1
    53     5     7    1
    54    51    52    2
    55    30    31    1
    56    30    33    1
    57    30    29    1
    58    61    62    1
    59    34    35    1
    60    34    33    1
    61    35    36   ar
    62    59    60    2
    63    53    54    1
    64    56    54   am
    65    54    55    2
    66   114   112   am
    67   131   129   ar
    68   131   130   ar
    69   129   127   ar
    70   120   119    1
    71   112   113    2
    72   112   111    1
    73   115   116    1
    74   130   128   ar
    75   127   126   ar
    76   116   119    1
    77   116   117    1
    78   111   108    1
    79    98    95    1
    80    92    91    2
    81   121   122    1
    82   128   126   ar
    83   126   125    1
    84   122   125    1
    85   122   123    1
    86   117   118    2
    87   105   104    2
    88    72    71    1
    89    91    93   am
    90    91    90    1
    91   108   109    1
    92   108   107    1
    93    95    94    1
    94    95    96    1
    95   109   110    2
    96    96    97    2
    97   123   124    2
    98   107   101   am
    99   104   106   am
   100   104   103    1
   101    90    89    1
   102    68    69    1
   103    68    67    1
   104    71    70    2
   105    71    73    1
   106    69    70    1
   107    63    64    1
   108    89    86    1
   109    84    82    1
   110   103   100    1
   111   101   100    1
   112   101   102    2
   113    67    64    1
   114   100    99    1
   115    64    65    1
   116    86    87    1
   117    86    85    1
   118    83    82    1
   119    82    81    2
   120    87    88    2
   121    65    66    2
   122    81    80    1
   123    80    79    1
   124    79    78    1
   125    77    76    2
   126    76    75    1
   127    78    75    1
   128    75    74    1
