@<TRIPOS>MOLECULE
tmp/4ovsA00.pdb
 112 105 0 0 0
SMALL
GASTEIGER

@<TRIPOS>ATOM
      1  N         43.8410   28.0510   86.0250 N.3    10  VAL10      -0.1231
      2  CA        42.8530   28.7870   86.7510 C.3    10  VAL10       0.1692
      3  C         42.4160   28.1670   88.0940 C.2    10  VAL10       0.2591
      4  O         41.5680   28.7470   88.7970 O.2    10  VAL10      -0.2718
      5  CB        41.5750   29.0160   85.8700 C.3    10  VAL10       0.0266
      6  CG1       41.9080   29.7130   84.5180 C.3    10  VAL10       0.0020
      7  CG2       40.8700   27.7080   85.5990 C.3    10  VAL10       0.0020
      8  N         42.9380   26.9890   88.4190 N.am   11  VAL11      -0.1980
      9  CA        42.6260   26.2720   89.6480 C.3    11  VAL11       0.1595
     10  C         43.6400   26.3980   90.7960 C.2    11  VAL11       0.2287
     11  O         44.7210   26.9930   90.6670 O.2    11  VAL11      -0.2864
     12  CB        42.4120   24.7150   89.4000 C.3    11  VAL11       0.0276
     13  CG1       41.3220   24.4430   88.3900 C.3    11  VAL11       0.0022
     14  CG2       43.6900   24.0130   89.0560 C.3    11  VAL11       0.0022
     15  N         44.8890   18.6410   89.4430 N.3    17  LYS17      -0.1245
     16  CA        45.3950   19.4430   88.3120 C.3    17  LYS17       0.1561
     17  C         46.5070   20.3850   88.7080 C.2    17  LYS17       0.2260
     18  O         47.4640   20.5580   87.9960 O.2    17  LYS17      -0.2867
     19  CB        44.2560   20.2390   87.7120 C.3    17  LYS17       0.0271
     20  CG        44.6800   21.2180   86.7130 C.3    17  LYS17       0.0035
     21  CD        43.4730   21.8950   86.0300 C.3    17  LYS17       0.0206
     22  CE        43.8570   23.1490   85.2900 C.3    17  LYS17       0.1093
     23  NZ        42.6950   23.6880   84.5450 N.3    17  LYS17      -0.1314
     24  N         43.3860   23.5600   79.8250 N.3    64  PRO64      -0.2102
     25  CA        41.9930   24.0270   79.8220 C.3    64  PRO64       0.1504
     26  C         41.0020   22.9070   79.8930 C.2    64  PRO64       0.2576
     27  O         41.2880   21.8390   79.3900 O.2    64  PRO64      -0.2718
     28  CB        41.8720   24.7440   78.4750 C.3    64  PRO64       0.0282
     29  CG        43.2580   25.0850   78.1250 C.3    64  PRO64       0.0208
     30  CD        44.0930   23.9770   78.6120 C.3    64  PRO64       0.0893
     31  N         39.8450   23.1160   80.5230 N.am   65  SER65      -0.1953
     32  CA        38.8110   22.0800   80.5080 C.3    65  SER65       0.1924
     33  C         38.2280   21.9610   79.0810 C.2    65  SER65       0.2314
     34  O         38.3610   22.8700   78.2720 O.2    65  SER65      -0.2863
     35  CB        37.7030   22.3820   81.4870 C.3    65  SER65       0.2116
     36  OG        36.9350   23.4610   81.0190 O.3    65  SER65      -0.2180
     37  N         36.3270   24.7410   77.3740 N.3    68  LYS68      -0.1245
     38  CA        37.0870   25.9090   77.0250 C.3    68  LYS68       0.1561
     39  C         37.5390   25.8520   75.5530 C.2    68  LYS68       0.2260
     40  O         37.8720   26.8660   74.9790 O.2    68  LYS68      -0.2867
     41  CB        38.2910   26.0460   77.9540 C.3    68  LYS68       0.0271
     42  CG        37.9690   26.0590   79.4400 C.3    68  LYS68       0.0035
     43  CD        37.3520   27.3570   79.9250 C.3    68  LYS68       0.0206
     44  CE        36.5270   27.1550   81.2070 C.3    68  LYS68       0.1093
     45  NZ        37.3170   26.8780   82.4200 N.3    68  LYS68      -0.1314
     46  N         25.7870   29.7200   87.0160 N.3   143  ARG143     -0.1245
     47  CA        27.0230   29.9090   86.2610 C.3   143  ARG143      0.1563
     48  C         27.3230   28.6590   85.4180 C.2   143  ARG143      0.2260
     49  O         27.1350   27.5390   85.8840 O.2   143  ARG143     -0.2867
     50  CB        28.1940   30.1560   87.2180 C.3   143  ARG143      0.0307
     51  CG        29.5130   30.5170   86.5310 C.3   143  ARG143      0.0489
     52  CD        30.3700   29.2860   86.3760 C.3   143  ARG143      0.2205
     53  NE        31.5570   29.4980   85.5560 N.pl3 143  ARG143     -0.0865
     54  CZ        32.5840   28.6490   85.5210 C.cat 143  ARG143      0.5346
     55  NH1       32.5580   27.5670   86.2960 N.pl3 143  ARG143      0.1354
     56  NH2       33.6370   28.8790   84.7150 N.pl3 143  ARG143      0.1354
     57  N         36.0500   31.2590   85.4220 N.3   165  PHE165     -0.1241
     58  CA        36.2420   30.5580   86.6910 C.3   165  PHE165      0.1605
     59  C         36.6070   31.5390   87.8510 C.2   165  PHE165      0.2264
     60  O         36.1250   31.3950   88.9740 O.2   165  PHE165     -0.2867
     61  CB        37.2800   29.4250   86.5290 C.3   165  PHE165      0.0534
     62  CG        37.3200   28.4320   87.6720 C.ar  165  PHE165     -0.0203
     63  CD1       36.2160   27.6280   87.9750 C.ar  165  PHE165     -0.0042
     64  CD2       38.4870   28.2510   88.4060 C.ar  165  PHE165     -0.0042
     65  CE1       36.2490   26.6860   89.0680 C.ar  165  PHE165     -0.0003
     66  CE2       38.5160   27.3620   89.4740 C.ar  165  PHE165     -0.0003
     67  CZ        37.4000   26.5420   89.7850 C.ar  165  PHE165     -0.0000
     68  N         27.6710   24.1640   88.8230 N.3   181  GLU181     -0.1231
     69  CA        27.9960   22.7430   88.7430 C.3   181  GLU181      0.1699
     70  C         29.5120   22.6190   88.7990 C.2   181  GLU181      0.2592
     71  O         30.2140   23.3260   88.0860 O.2   181  GLU181     -0.2718
     72  CB        27.4600   22.1580   87.4540 C.3   181  GLU181      0.0402
     73  CG        27.8290   22.9540   86.1980 C.3   181  GLU181      0.1161
     74  CD        27.6410   22.1470   84.8610 C.2   181  GLU181      0.3649
     75  OE1       26.8690   21.1690   84.8190 O.co2 181  GLU181     -0.2457
     76  OE2       28.2860   22.4950   83.8620 O.co2 181  GLU181     -0.2457
     77  N         30.0120   21.7620   89.6810 N.am  182  ASN182     -0.1974
     78  CA        31.4450   21.5980   89.8680 C.3   182  ASN182      0.1688
     79  C         31.8170   20.1920   90.2710 C.2   182  ASN182      0.2292
     80  O         31.0330   19.4930   90.9000 O.2   182  ASN182     -0.2864
     81  CB        31.9760   22.5040   90.9630 C.3   182  ASN182      0.1181
     82  CG        31.7890   23.9680   90.6490 C.2   182  ASN182      0.2629
     83  OD1       30.7950   24.5600   91.0390 O.2   182  ASN182     -0.2716
     84  ND2       32.6920   24.5290   89.8930 N.am  182  ASN182     -0.0877
     85  N         37.1210   21.3700   92.7660 N.3   186  ASN186     -0.1240
     86  CA        36.9580   22.8160   92.6860 C.3   186  ASN186      0.1653
     87  C         35.9760   23.3770   93.7350 C.2   186  ASN186      0.2266
     88  O         36.1830   24.4680   94.2670 O.2   186  ASN186     -0.2867
     89  CB        36.4990   23.2080   91.2950 C.3   186  ASN186      0.1155
     90  CG        37.5860   23.0510   90.2580 C.2   186  ASN186      0.2627
     91  OD1       38.7860   23.0110   90.5640 O.2   186  ASN186     -0.2716
     92  ND2       37.1780   23.0010   89.0110 N.am  186  ASN186     -0.0877
     93  N         33.9400   16.6380   83.8670 N.3   207  LEU207     -0.1245
     94  CA        34.8540   17.7330   83.6230 C.3   207  LEU207      0.1561
     95  C         36.2810   17.1780   83.6600 C.2   207  LEU207      0.2260
     96  O         36.7000   16.5300   84.6380 O.2   207  LEU207     -0.2867
     97  CB        34.6690   18.8330   84.6630 C.3   207  LEU207      0.0270
     98  CG        35.2040   20.2460   84.3480 C.3   207  LEU207      0.0019
     99  CD1       34.5680   21.2710   85.3130 C.3   207  LEU207      0.0001
    100  CD2       36.7140   20.3250   84.5030 C.3   207  LEU207      0.0001
    101  N         40.4350   17.7870   81.3450 N.3   209  TYR209     -0.1241
    102  CA        41.3290   18.7480   80.7180 C.3   209  TYR209      0.1605
    103  C         42.1600   18.1220   79.5690 C.2   209  TYR209      0.2264
    104  O         42.4300   16.9300   79.5620 O.2   209  TYR209     -0.2867
    105  CB        42.3010   19.2450   81.7760 C.3   209  TYR209      0.0534
    106  CG        41.6910   19.6240   83.1160 C.ar  209  TYR209     -0.0201
    107  CD1       41.0100   20.8240   83.2570 C.ar  209  TYR209     -0.0009
    108  CD2       41.8180   18.8050   84.2460 C.ar  209  TYR209     -0.0009
    109  CE1       40.4450   21.2180   84.4620 C.ar  209  TYR209      0.0417
    110  CE2       41.2600   19.2070   85.4870 C.ar  209  TYR209      0.0417
    111  CZ        40.5930   20.4220   85.5740 C.ar  209  TYR209      0.1957
    112  OH        39.9940   20.8560   86.7240 O.3   209  TYR209     -0.2866
@<TRIPOS>BOND
     1    40    39    2
     2    39    38    1
     3    38    37    1
     4    38    41    1
     5    41    42    1
     6    29    28    1
     7    29    30    1
     8    34    33    2
     9    28    25    1
    10    30    24    1
    11    33    32    1
    12    27    26    2
    13    42    43    1
    14   104   103    2
    15   103   102    1
    16    25    24    1
    17    25    26    1
    18    26    31   am
    19    43    44    1
    20    32    31    1
    21    32    35    1
    22   102   101    1
    23   102   105    1
    24    36    35    1
    25    44    45    1
    26   105   106    1
    27   106   107   ar
    28   106   108   ar
    29   107   109   ar
    30    94    95    1
    31    94    93    1
    32    94    97    1
    33    95    96    2
    34    76    74   ar
    35   108   110   ar
    36    98   100    1
    37    98    97    1
    38    98    99    1
    39   109   111   ar
    40     6     5    1
    41    23    22    1
    42    56    54    1
    43    75    74   ar
    44    74    73    1
    45    22    21    1
    46    48    49    2
    47    48    47    1
    48    57    58    1
    49   110   111   ar
    50    54    53    2
    51    54    55    1
    52    53    52    1
    53   111   112    1
    54     7     5    1
    55     5     2    1
    56     1     2    1
    57    21    20    1
    58    73    72    1
    59    47    46    1
    60    47    50    1
    61    52    51    1
    62    61    58    1
    63    61    62    1
    64    51    50    1
    65    58    59    1
    66    20    19    1
    67     2     3    1
    68    72    69    1
    69    62    63   ar
    70    62    64   ar
    71    19    16    1
    72    59    60    2
    73    63    65   ar
    74    18    17    2
    75    71    70    2
    76     3     8   am
    77     3     4    2
    78    16    17    1
    79    16    15    1
    80    13    12    1
    81    64    66   ar
    82     8     9    1
    83    69    70    1
    84    69    68    1
    85    70    77   am
    86    92    90   am
    87    14    12    1
    88    65    67   ar
    89    12     9    1
    90    66    67   ar
    91     9    10    1
    92    77    78    1
    93    78    79    1
    94    78    81    1
    95    84    82   am
    96    90    91    2
    97    90    89    1
    98    79    80    2
    99    82    81    1
   100    82    83    2
   101    11    10    2
   102    89    86    1
   103    86    85    1
   104    86    87    1
   105    87    88    2
