@<TRIPOS>MOLECULE
tmp/4ovtA00.pdb
 138 127 0 0 0
SMALL
GASTEIGER

@<TRIPOS>ATOM
      1  N         32.6980   77.5260   74.0560 N.3    10  GLU10      -0.1245
      2  CA        33.3830   77.7730   75.3220 C.3    10  GLU10       0.1567
      3  C         33.3090   76.5670   76.2720 C.2    10  GLU10       0.2260
      4  O         34.0950   76.4490   77.2260 O.2    10  GLU10      -0.2867
      5  CB        32.7620   79.0010   76.0190 C.3    10  GLU10       0.0388
      6  CG        32.8360   80.3390   75.2470 C.3    10  GLU10       0.1160
      7  CD        31.7210   80.5240   74.2040 C.2    10  GLU10       0.3649
      8  OE1       30.8940   79.6130   74.0190 O.co2  10  GLU10      -0.2457
      9  OE2       31.6790   81.5960   73.5750 O.co2  10  GLU10      -0.2457
     10  N         33.5810   84.5180   71.6990 N.3    48  LYS48      -0.1245
     11  CA        32.3900   84.3770   70.8670 C.3    48  LYS48       0.1561
     12  C         32.2220   85.5270   69.8640 C.2    48  LYS48       0.2260
     13  O         31.9360   85.2930   68.6750 O.2    48  LYS48      -0.2867
     14  CB        31.1580   84.2910   71.7850 C.3    48  LYS48       0.0271
     15  CG        29.8730   83.9280   71.0670 C.3    48  LYS48       0.0035
     16  CD        28.6140   84.1270   71.9150 C.3    48  LYS48       0.0206
     17  CE        28.6300   83.3300   73.2410 C.3    48  LYS48       0.1093
     18  NZ        28.7980   81.8670   73.0390 N.3    48  LYS48      -0.1314
     19  N         28.6060   78.6570   68.9600 N.3    62  ILE62      -0.1231
     20  CA        27.4140   78.7190   69.7770 C.3    62  ILE62       0.1692
     21  C         27.1870   80.2020   70.1030 C.2    62  ILE62       0.2593
     22  O         28.1590   80.9540   70.3350 O.2    62  ILE62      -0.2718
     23  CB        27.5740   77.8260   71.0310 C.3    62  ILE62       0.0266
     24  CG1       26.2500   77.6550   71.7500 C.3    62  ILE62       0.0019
     25  CG2       28.6760   78.4010   71.9760 C.3    62  ILE62       0.0020
     26  CD1       26.3960   77.0770   73.1740 C.3    62  ILE62       0.0001
     27  N         25.9240   80.6220   70.0860 N.am   63  SER63      -0.1938
     28  CA        25.5420   81.9980   70.4070 C.3    63  SER63       0.2055
     29  C         24.0630   82.0390   70.8030 C.2    63  SER63       0.2643
     30  O         23.4550   81.0070   71.0650 O.2    63  SER63      -0.2714
     31  CB        25.8180   82.9320   69.2060 C.3    63  SER63       0.2130
     32  OG        25.7190   84.3010   69.5620 O.3    63  SER63      -0.2179
     33  N         23.4950   83.2270   70.8630 N.am   64  ASP64      -0.1971
     34  CA        22.1020   83.3730   71.2830 C.3    64  ASP64       0.1709
     35  C         21.5590   84.6810   70.7540 C.2    64  ASP64       0.2293
     36  O         22.3040   85.4940   70.2710 O.2    64  ASP64      -0.2864
     37  CB        21.9770   83.3280   72.8210 C.3    64  ASP64       0.1436
     38  CG        22.7520   84.4300   73.4950 C.2    64  ASP64       0.3671
     39  OD1       22.3990   85.6180   73.2910 O.co2  64  ASP64      -0.2456
     40  OD2       23.7320   84.1110   74.2300 O.co2  64  ASP64      -0.2456
     41  N         15.6860   87.3540   74.4170 N.3    79  TYR79      -0.1241
     42  CA        16.6030   86.9180   75.4790 C.3    79  TYR79       0.1605
     43  C         16.2640   87.5620   76.8340 C.2    79  TYR79       0.2264
     44  O         17.0800   87.5570   77.7630 O.2    79  TYR79      -0.2867
     45  CB        18.0460   87.2660   75.1050 C.3    79  TYR79       0.0534
     46  CG        19.0350   86.1990   75.5090 C.ar   79  TYR79      -0.0201
     47  CD1       18.8580   84.8790   75.1190 C.ar   79  TYR79      -0.0009
     48  CD2       20.1550   86.5110   76.2520 C.ar   79  TYR79      -0.0009
     49  CE1       19.7830   83.8930   75.4660 C.ar   79  TYR79       0.0417
     50  CE2       21.0710   85.5340   76.6080 C.ar   79  TYR79       0.0417
     51  CZ        20.8750   84.2390   76.2260 C.ar   79  TYR79       0.1957
     52  OH        21.8050   83.2920   76.5890 O.3    79  TYR79      -0.2866
     53  N         19.7930   75.0290   75.8980 N.3   119  TYR119     -0.1241
     54  CA        21.0290   75.2330   76.6700 C.3   119  TYR119      0.1605
     55  C         20.8030   74.9520   78.1540 C.2   119  TYR119      0.2264
     56  O         21.7010   74.4630   78.8320 O.2   119  TYR119     -0.2867
     57  CB        21.5710   76.6560   76.4480 C.3   119  TYR119      0.0534
     58  CG        23.0480   76.8620   76.7860 C.ar  119  TYR119     -0.0201
     59  CD1       24.0140   76.1090   76.1650 C.ar  119  TYR119     -0.0009
     60  CD2       23.4550   77.8400   77.6890 C.ar  119  TYR119     -0.0009
     61  CE1       25.3560   76.2780   76.4420 C.ar  119  TYR119      0.0417
     62  CE2       24.7960   78.0270   77.9810 C.ar  119  TYR119      0.0417
     63  CZ        25.7430   77.2320   77.3290 C.ar  119  TYR119      0.1957
     64  OH        27.0780   77.4040   77.5570 O.3   119  TYR119     -0.2866
     65  N         19.2330   79.0500   83.3920 N.3   122  ARG122     -0.1245
     66  CA        20.3970   79.6880   84.0070 C.3   122  ARG122      0.1563
     67  C         20.1920   79.9560   85.5070 C.2   122  ARG122      0.2260
     68  O         19.2170   80.5880   85.9150 O.2   122  ARG122     -0.2867
     69  CB        20.7550   80.9780   83.2570 C.3   122  ARG122      0.0307
     70  CG        21.0820   80.7490   81.7930 C.3   122  ARG122      0.0489
     71  CD        21.5580   81.9990   81.0840 C.3   122  ARG122      0.2205
     72  NE        22.9600   82.4130   81.2940 N.pl3 122  ARG122     -0.0865
     73  CZ        23.9560   82.1700   80.4360 C.cat 122  ARG122      0.5346
     74  NH1       23.7450   81.4500   79.3430 N.pl3 122  ARG122      0.1354
     75  NH2       25.1640   82.6440   80.6540 N.pl3 122  ARG122      0.1354
     76  N         29.6480   87.8260   87.1580 N.3   141  ARG141     -0.1245
     77  CA        30.0960   87.7620   85.7750 C.3   141  ARG141      0.1563
     78  C         28.8910   87.4360   84.9060 C.2   141  ARG141      0.2260
     79  O         28.0510   86.5950   85.2760 O.2   141  ARG141     -0.2867
     80  CB        31.1820   86.7020   85.5710 C.3   141  ARG141      0.0307
     81  CG        31.6390   86.5260   84.1150 C.3   141  ARG141      0.0489
     82  CD        30.8030   85.5150   83.3770 C.3   141  ARG141      0.2205
     83  NE        31.0810   85.4610   81.9400 N.pl3 141  ARG141     -0.0865
     84  CZ        30.4180   84.6780   81.0900 C.cat 141  ARG141      0.5346
     85  NH1       30.7400   84.6580   79.8020 N.pl3 141  ARG141      0.1354
     86  NH2       29.4410   83.9070   81.5390 N.pl3 141  ARG141      0.1354
     87  N         28.0910   87.2140   80.3450 N.3   143  PRO143     -0.2116
     88  CA        28.7540   87.3620   79.0450 C.3   143  PRO143      0.1372
     89  C         28.6200   88.8020   78.5310 C.2   143  PRO143      0.2244
     90  O         27.9120   89.6390   79.1030 O.2   143  PRO143     -0.2868
     91  CB        27.9950   86.3740   78.1360 C.3   143  PRO143      0.0268
     92  CG        27.1320   85.5300   79.0660 C.3   143  PRO143      0.0207
     93  CD        26.8800   86.3850   80.2690 C.3   143  PRO143      0.0892
     94  N         21.6840   90.5670   79.1460 N.3   147  GLN147     -0.1245
     95  CA        22.0950   89.9910   80.4220 C.3   147  GLN147      0.1566
     96  C         22.6810   91.0490   81.3490 C.2   147  GLN147      0.2260
     97  O         22.4240   91.0270   82.5560 O.2   147  GLN147     -0.2867
     98  CB        23.0330   88.8280   80.2180 C.3   147  GLN147      0.0367
     99  CG        22.3240   87.6420   79.6130 C.3   147  GLN147      0.0905
    100  CD        23.2650   86.4770   79.3550 C.2   147  GLN147      0.2608
    101  OE1       24.0280   86.4780   78.3910 O.2   147  GLN147     -0.2717
    102  NE2       23.2080   85.4740   80.2230 N.am  147  GLN147     -0.0878
    103  N         33.5450   83.7100   78.7240 N.3   161  LEU161     -0.1245
    104  CA        33.5210   82.6030   79.6750 C.3   161  LEU161      0.1561
    105  C         34.9420   82.0480   79.9480 C.2   161  LEU161      0.2260
    106  O         35.2710   81.6520   81.0830 O.2   161  LEU161     -0.2867
    107  CB        32.5710   81.5100   79.1850 C.3   161  LEU161      0.0270
    108  CG        32.3290   80.3440   80.1460 C.3   161  LEU161      0.0019
    109  CD1       31.7460   80.8640   81.4680 C.3   161  LEU161      0.0001
    110  CD2       31.3840   79.3160   79.5130 C.3   161  LEU161      0.0001
    111  N         24.6620   80.6490   84.6920 N.3   178  ASN178     -0.1240
    112  CA        24.6900   79.6860   83.5690 C.3   178  ASN178      0.1653
    113  C         23.8600   78.4760   83.9750 C.2   178  ASN178      0.2266
    114  O         23.5380   78.3000   85.1560 O.2   178  ASN178     -0.2867
    115  CB        26.1370   79.2200   83.2860 C.3   178  ASN178      0.1155
    116  CG        26.7470   79.8120   81.9910 C.2   178  ASN178      0.2627
    117  OD1       26.1430   79.7860   80.9360 O.2   178  ASN178     -0.2716
    118  ND2       27.9870   80.3120   82.0920 N.am  178  ASN178     -0.0877
    119  N         26.8160   73.6770   82.7640 N.3   182  VAL182     -0.1245
    120  CA        27.9100   74.5380   82.3300 C.3   182  VAL182      0.1561
    121  C         28.7140   75.0250   83.5120 C.2   182  VAL182      0.2260
    122  O         29.9440   75.0060   83.5010 O.2   182  VAL182     -0.2867
    123  CB        27.3550   75.7470   81.5810 C.3   182  VAL182      0.0252
    124  CG1       28.4700   76.6670   81.1100 C.3   182  VAL182      0.0019
    125  CG2       26.5070   75.2610   80.3900 C.3   182  VAL182      0.0019
    126  N         16.8800   79.0590   78.6050 N.3   203  ASN203     -0.1240
    127  CA        17.9050   79.4500   77.6470 C.3   203  ASN203      0.1653
    128  C         17.9010   78.6140   76.3560 C.2   203  ASN203      0.2266
    129  O         18.1810   77.4150   76.3800 O.2   203  ASN203     -0.2867
    130  CB        19.2430   79.2630   78.3670 C.3   203  ASN203      0.1155
    131  CG        20.3760   80.0960   77.8000 C.2   203  ASN203      0.2627
    132  OD1       21.3720   80.3180   78.4930 O.2   203  ASN203     -0.2716
    133  ND2       20.2650   80.5330   76.5550 N.am  203  ASN203     -0.0877
    134  N         19.8890   78.2410   72.7000 N.3   205  ALA205     -0.1245
    135  CA        21.1260   78.6220   72.0490 C.3   205  ALA205      0.1562
    136  C         21.0390   78.3330   70.5600 C.2   205  ALA205      0.2260
    137  O         20.2140   77.5170   70.1080 O.2   205  ALA205     -0.2867
    138  CB        22.3070   77.8740   72.6690 C.3   205  ALA205      0.0290
@<TRIPOS>BOND
     1    13    12    2
     2    19    20    1
     3    31    32    1
     4    31    28    1
     5    20    21    1
     6    20    23    1
     7    12    11    1
     8    27    21   am
     9    27    28    1
    10    21    22    2
    11   137   136    2
    12    36    35    2
    13    28    29    1
    14   136   135    1
    15    35    34    1
    16    29    33   am
    17    29    30    2
    18    33    34    1
    19    11    10    1
    20    11    14    1
    21    23    24    1
    22    23    25    1
    23    15    14    1
    24    15    16    1
    25    34    37    1
    26    24    26    1
    27    16    17    1
    28   135   138    1
    29   135   134    1
    30    37    38    1
    31    18    17    1
    32    39    38   ar
    33    38    40   ar
    34     9     7   ar
    35     8     7   ar
    36     1     2    1
    37     7     6    1
    38    41    42    1
    39    45    42    1
    40    45    46    1
    41    47    49   ar
    42    47    46   ar
    43     6     5    1
    44     2     5    1
    45     2     3    1
    46    49    51   ar
    47    42    43    1
    48    46    48   ar
    49    53    54    1
    50    59    61   ar
    51    59    58   ar
    52    51    52    1
    53    51    50   ar
    54    48    50   ar
    55     3     4    2
    56   128   129    2
    57   128   127    1
    58    61    63   ar
    59    57    54    1
    60    57    58    1
    61   133   131   am
    62    54    55    1
    63    58    60   ar
    64    43    44    2
    65    63    64    1
    66    63    62   ar
    67   127   130    1
    68   127   126    1
    69    60    62   ar
    70   131   130    1
    71   131   132    2
    72    91    88    1
    73    91    92    1
    74    55    56    2
    75   101   100    2
    76    89    88    1
    77    89    90    2
    78   103   104    1
    79    88    87    1
    80    92    93    1
    81    94    95    1
    82   107   104    1
    83   107   108    1
    84    74    73    1
    85   100    99    1
    86   100   102   am
    87   110   108    1
    88    99    98    1
    89   104   105    1
    90    85    84    1
    91   105   106    2
    92   108   109    1
    93    98    95    1
    94    93    87    1
    95   125   123    1
    96    95    96    1
    97    73    75    1
    98    73    72    2
    99   117   116    2
   100    71    72    1
   101    71    70    1
   102    84    86    1
   103    84    83    2
   104   124   123    1
   105    96    97    2
   106   123   120    1
   107    70    69    1
   108    83    82    1
   109   116   118   am
   110   116   115    1
   111   120   119    1
   112   120   121    1
   113    69    66    1
   114   115   112    1
   115    82    81    1
   116    65    66    1
   117   122   121    2
   118   112   113    1
   119   112   111    1
   120   113   114    2
   121    66    67    1
   122    81    80    1
   123    78    79    2
   124    78    77    1
   125    67    68    2
   126    80    77    1
   127    77    76    1
