@<TRIPOS>MOLECULE
tmp/4ovwA01.pdb
 193 189 0 0 0
SMALL
GASTEIGER

@<TRIPOS>ATOM
      1  N         25.7430   -7.7410   22.8080 N.3    50  TRP50      -0.1241
      2  CA        24.7280   -8.1300   23.7620 C.3    50  TRP50       0.1605
      3  C         24.5050   -9.6120   23.6140 C.2    50  TRP50       0.2264
      4  O         24.3380  -10.0290   22.4580 O.2    50  TRP50      -0.2867
      5  CB        23.4470   -7.3250   23.4970 C.3    50  TRP50       0.0550
      6  CG        22.3380   -7.6460   24.4680 C.ar   50  TRP50       0.0003
      7  CD1       22.2600   -7.2710   25.7880 C.ar   50  TRP50       0.0946
      8  CD2       21.1900   -8.4550   24.2100 C.ar   50  TRP50       0.0152
      9  NE1       21.1130   -7.7890   26.3340 N.ar   50  TRP50      -0.2442
     10  CE2       20.4310   -8.5050   25.3950 C.ar   50  TRP50       0.0810
     11  CE3       20.7350   -9.1420   23.0830 C.ar   50  TRP50       0.0012
     12  CZ2       19.2260   -9.1950   25.4940 C.ar   50  TRP50       0.0191
     13  CZ3       19.5280   -9.8090   23.1720 C.ar   50  TRP50       0.0001
     14  CH2       18.7790   -9.8510   24.3770 C.ar   50  TRP50       0.0015
     15  N         16.8200    3.6640   20.5490 N.3   103  SER103     -0.1217
     16  CA        16.1680    2.9450   21.6000 C.3   103  SER103      0.1889
     17  C         16.8370    3.0920   22.9570 C.2   103  SER103      0.2288
     18  O         17.4870    2.2240   23.5220 O.2   103  SER103     -0.2866
     19  CB        16.1340    1.4690   21.1330 C.3   103  SER103      0.2089
     20  OG        15.4960    0.6170   22.0340 O.3   103  SER103     -0.2183
     21  N         17.9770    3.6750   26.8720 N.3   105  ARG105     -0.1245
     22  CA        17.6700    3.1630   28.1970 C.3   105  ARG105      0.1563
     23  C         18.4690    4.0530   29.1170 C.2   105  ARG105      0.2260
     24  O         19.6800    4.1890   28.9570 O.2   105  ARG105     -0.2867
     25  CB        17.9630    1.6240   28.2860 C.3   105  ARG105      0.0307
     26  CG        17.8880    1.1780   29.7720 C.3   105  ARG105      0.0489
     27  CD        17.9970   -0.3510   29.7540 C.3   105  ARG105      0.2205
     28  NE        19.4030   -0.7900   29.9760 N.pl3 105  ARG105     -0.0865
     29  CZ        20.0470   -1.5990   29.1090 C.cat 105  ARG105      0.5346
     30  NH1       19.3780   -2.0310   28.0280 N.pl3 105  ARG105      0.1354
     31  NH2       21.3140   -1.9300   29.3070 N.pl3 105  ARG105      0.1354
     32  N          8.9850    1.9300   28.6760 N.3   142  ALA142     -0.1245
     33  CA         9.0970    1.3210   30.0100 C.3   142  ALA142      0.1562
     34  C          9.6520    2.1420   31.1640 C.2   142  ALA142      0.2260
     35  O         10.6630    2.8080   30.9920 O.2   142  ALA142     -0.2867
     36  CB         9.9300    0.0270   29.8390 C.3   142  ALA142      0.0290
     37  N         10.8440    1.1810   35.1120 N.3   144  TYR144     -0.1227
     38  CA        11.0180    0.0540   36.0120 C.3   144  TYR144      0.1736
     39  C         12.2010    0.2360   36.9400 C.2   144  TYR144      0.2595
     40  O         12.9720    1.1860   36.7550 O.2   144  TYR144     -0.2718
     41  CB        11.1310   -1.2960   35.2930 C.3   144  TYR144      0.0548
     42  CG        12.2800   -1.4950   34.3420 C.ar  144  TYR144     -0.0200
     43  CD1       12.2650   -0.8190   33.1150 C.ar  144  TYR144     -0.0009
     44  CD2       13.3840   -2.2650   34.6270 C.ar  144  TYR144     -0.0009
     45  CE1       13.2980   -0.9300   32.2110 C.ar  144  TYR144      0.0417
     46  CE2       14.4320   -2.4020   33.7330 C.ar  144  TYR144      0.0417
     47  CZ        14.3950   -1.7190   32.5300 C.ar  144  TYR144      0.1957
     48  OH        15.4060   -1.7740   31.6030 O.3   144  TYR144     -0.2866
     49  N         12.2790   -0.6920   37.9370 N.am  145  LEU145     -0.1966
     50  CA        13.4460   -0.6250   38.8150 C.3   145  LEU145      0.1728
     51  C         14.2110   -1.9450   38.7610 C.2   145  LEU145      0.2616
     52  O         13.6430   -3.0060   38.4680 O.2   145  LEU145     -0.2715
     53  CB        13.0640   -0.2300   40.2260 C.3   145  LEU145      0.0311
     54  CG        12.4720    1.1970   40.3510 C.3   145  LEU145      0.0022
     55  CD1       10.9640    1.1470   40.3640 C.3   145  LEU145      0.0001
     56  CD2       12.9860    1.9390   41.5780 C.3   145  LEU145      0.0001
     57  N         15.5070   -1.9010   39.0250 N.am  146  SER146     -0.1950
     58  CA        16.3940   -3.0690   39.0650 C.3   146  SER146      0.1924
     59  C         17.3160   -2.9160   40.2840 C.2   146  SER146      0.2314
     60  O         17.7770   -1.7960   40.5510 O.2   146  SER146     -0.2863
     61  CB        17.2600   -3.1630   37.8160 C.3   146  SER146      0.2116
     62  OG        16.6000   -3.4650   36.6070 O.3   146  SER146     -0.2180
     63  N         24.2500   -2.2670   34.9150 N.3   170  TYR170     -0.1241
     64  CA        22.9150   -2.7040   34.6300 C.3   170  TYR170      0.1605
     65  C         22.7320   -4.2140   34.8430 C.2   170  TYR170      0.2264
     66  O         23.6130   -5.0770   34.6650 O.2   170  TYR170     -0.2867
     67  CB        22.4950   -2.2190   33.2500 C.3   170  TYR170      0.0534
     68  CG        21.0900   -2.7190   32.9330 C.ar  170  TYR170     -0.0201
     69  CD1       20.0170   -1.9960   33.3820 C.ar  170  TYR170     -0.0009
     70  CD2       20.8700   -3.8870   32.2070 C.ar  170  TYR170     -0.0009
     71  CE1       18.7530   -2.4560   33.1100 C.ar  170  TYR170      0.0417
     72  CE2       19.5920   -4.3410   31.9280 C.ar  170  TYR170      0.0417
     73  CZ        18.5240   -3.6310   32.4330 C.ar  170  TYR170      0.1957
     74  OH        17.2220   -3.9950   32.2600 O.3   170  TYR170     -0.2866
     75  N         19.0530   -7.2770   35.3750 N.3   172  ASP172     -0.1225
     76  CA        17.6110   -7.4290   35.4210 C.3   172  ASP172      0.1805
     77  C         17.3990   -8.9230   35.6470 C.2   172  ASP172      0.2598
     78  O         18.3200   -9.6940   35.8680 O.2   172  ASP172     -0.2718
     79  CB        16.7040   -6.8130   34.3350 C.3   172  ASP172      0.1424
     80  CG        16.9570   -7.3550   32.9620 C.2   172  ASP172      0.3668
     81  OD1       17.1950   -8.5790   32.8410 O.co2 172  ASP172     -0.2456
     82  OD2       16.9260   -6.5840   31.9600 O.co2 172  ASP172     -0.2456
     83  N         16.1510   -9.3100   35.6520 N.am  173  ALA173     -0.1966
     84  CA        15.7010  -10.6440   36.0130 C.3   173  ALA173      0.1728
     85  C         15.7330  -11.5860   34.8290 C.2   173  ALA173      0.2616
     86  O         15.3750  -12.7340   35.0260 O.2   173  ALA173     -0.2715
     87  CB        14.3100  -10.5930   36.6410 C.3   173  ALA173      0.0334
     88  N         16.1230  -11.0950   33.6600 N.am  174  GLN174     -0.1977
     89  CA        16.2530  -12.0060   32.5010 C.3   174  GLN174      0.1601
     90  C         17.5900  -12.7380   32.5410 C.2   174  GLN174      0.2287
     91  O         17.7970  -13.6860   31.7990 O.2   174  GLN174     -0.2864
     92  CB        16.0970  -11.2780   31.1860 C.3   174  GLN174      0.0394
     93  CG        14.8040  -10.5400   30.9800 C.3   174  GLN174      0.0908
     94  CD        13.5700  -11.2790   31.5460 C.2   174  GLN174      0.2608
     95  OE1       12.8210  -10.6960   32.3500 O.2   174  GLN174     -0.2717
     96  NE2       13.4420  -12.4960   31.1240 N.am  174  GLN174     -0.0878
     97  N         20.4110  -11.9950   31.2370 N.3   176  TYR176     -0.1241
     98  CA        21.0610  -11.9680   29.9570 C.3   176  TYR176      0.1605
     99  C         22.5800  -11.8150   30.1480 C.2   176  TYR176      0.2264
    100  O         23.0720  -11.1880   31.0570 O.2   176  TYR176     -0.2867
    101  CB        20.6910  -10.7850   29.0560 C.3   176  TYR176      0.0534
    102  CG        19.2360  -10.8280   28.5770 C.ar  176  TYR176     -0.0201
    103  CD1       18.6110  -11.9930   28.1230 C.ar  176  TYR176     -0.0009
    104  CD2       18.4800   -9.6370   28.7250 C.ar  176  TYR176     -0.0009
    105  CE1       17.2970  -11.9770   27.7350 C.ar  176  TYR176      0.0417
    106  CE2       17.1830   -9.6230   28.3380 C.ar  176  TYR176      0.0417
    107  CZ        16.5740  -10.7920   27.8600 C.ar  176  TYR176      0.1957
    108  OH        15.2620  -10.6340   27.4550 O.3   176  TYR176     -0.2866
    109  N         19.5160   -9.7610   38.6280 N.3   194  CYS194     -0.1221
    110  CA        19.0780   -8.9790   39.7820 C.3   194  CYS194      0.1808
    111  C         17.5600   -8.8290   39.8240 C.2   194  CYS194      0.2601
    112  O         16.8690   -8.9590   38.8220 O.2   194  CYS194     -0.2717
    113  CB        19.6860   -7.5920   39.8890 C.3   194  CYS194      0.0970
    114  SG        19.2450   -6.2710   38.6980 S.3   194  CYS194     -0.0800
    115  N         17.0540   -8.6340   41.0090 N.am  195  ASN195     -0.1960
    116  CA        15.6390   -8.3870   41.2740 C.3   195  ASN195      0.1819
    117  C         15.2350   -7.1500   40.4490 C.2   195  ASN195      0.2621
    118  O         15.9630   -6.1450   40.4010 O.2   195  ASN195     -0.2715
    119  CB        15.4450   -8.1280   42.7830 C.3   195  ASN195      0.1195
    120  CG        15.3490   -9.4020   43.6180 C.2   195  ASN195      0.2630
    121  OD1       14.2150   -9.8750   43.8020 O.2   195  ASN195     -0.2716
    122  ND2       16.4650   -9.9460   44.0590 N.am  195  ASN195     -0.0877
    123  N         14.0520   -7.1810   39.8800 N.am  196  GLU196     -0.1963
    124  CA        13.4730   -6.2550   38.9220 C.3   196  GLU196      0.1733
    125  C         11.9910   -6.0160   39.3070 C.2   196  GLU196      0.2616
    126  O         11.2290   -6.9820   39.4380 O.2   196  GLU196     -0.2715
    127  CB        13.5730   -6.7870   37.4630 C.3   196  GLU196      0.0429
    128  CG        13.1870   -5.7620   36.3950 C.3   196  GLU196      0.1163
    129  CD        13.1870   -6.3330   34.9770 C.2   196  GLU196      0.3649
    130  OE1       13.1140   -7.5880   34.8120 O.co2 196  GLU196     -0.2457
    131  OE2       13.2610   -5.5020   34.0340 O.co2 196  GLU196     -0.2457
    132  N         11.5440   -4.7620   39.3810 N.am  197  LEU197     -0.1963
    133  CA        10.1630   -4.3530   39.5470 C.3   197  LEU197      0.1728
    134  C          9.6620   -3.6100   38.2900 C.2   197  LEU197      0.2616
    135  O         10.0030   -2.4150   38.0570 O.2   197  LEU197     -0.2715
    136  CB         9.8800   -3.4640   40.7810 C.3   197  LEU197      0.0311
    137  CG         8.4570   -2.9110   40.8370 C.3   197  LEU197      0.0022
    138  CD1        7.4130   -4.0460   40.9030 C.3   197  LEU197      0.0001
    139  CD2        8.1840   -1.9340   41.9940 C.3   197  LEU197      0.0001
    140  N          8.8960   -4.3050   37.4370 N.am  198  ASP198     -0.1971
    141  CA         8.3970   -3.6320   36.2340 C.3   198  ASP198      0.1709
    142  C          7.1180   -2.8740   36.5690 C.2   198  ASP198      0.2293
    143  O          6.0250   -3.4480   36.5140 O.2   198  ASP198     -0.2864
    144  CB         8.1670   -4.5660   35.0250 C.3   198  ASP198      0.1436
    145  CG         9.4320   -4.9360   34.2700 C.2   198  ASP198      0.3671
    146  OD1       10.1010   -4.1240   33.5900 O.co2 198  ASP198     -0.2456
    147  OD2        9.8080   -6.1280   34.3810 O.co2 198  ASP198     -0.2456
    148  N          5.1780   -1.2600   31.7270 N.3   201  GLU201     -0.1245
    149  CA         5.6040   -1.7790   30.4310 C.3   201  GLU201      0.1567
    150  C          4.4170   -1.6380   29.4550 C.2   201  GLU201      0.2260
    151  O          3.3770   -2.2630   29.7080 O.2   201  GLU201     -0.2867
    152  CB         6.1040   -3.2140   30.4500 C.3   201  GLU201      0.0388
    153  CG         7.5810   -3.2960   30.6660 C.3   201  GLU201      0.1160
    154  CD         8.1450   -4.7000   30.7390 C.2   201  GLU201      0.3649
    155  OE1        7.6740   -5.4860   31.5870 O.co2 201  GLU201     -0.2457
    156  OE2        9.0700   -5.0090   29.9690 O.co2 201  GLU201     -0.2457
    157  N          9.4740   -9.2310   39.5260 N.3   212  HIS212     -0.1241
    158  CA        10.3210  -10.3530   39.2250 C.3   212  HIS212      0.1621
    159  C         11.3560  -10.5300   40.3540 C.2   212  HIS212      0.2264
    160  O         12.4370   -9.9430   40.3200 O.2   212  HIS212     -0.2867
    161  CB        11.1570  -10.1250   37.9530 C.3   212  HIS212      0.0745
    162  CG        10.3950   -9.8970   36.6780 C.ar  212  HIS212      0.0817
    163  ND1       10.1740  -10.8440   35.7030 N.ar  212  HIS212     -0.2268
    164  CD2        9.8130   -8.7610   36.2020 C.ar  212  HIS212      0.1154
    165  CE1        9.5220  -10.3560   34.6770 C.ar  212  HIS212      0.1986
    166  NE2        9.2810   -9.0900   34.9960 N.ar  212  HIS212     -0.2212
    167  N         13.0580    3.5190   29.5510 N.3   344  SER344     -0.1202
    168  CA        13.4700    3.1090   28.2170 C.3   344  SER344      0.2020
    169  C         12.3280    2.9390   27.2350 C.2   344  SER344      0.2619
    170  O         11.1500    2.8990   27.5900 O.2   344  SER344     -0.2717
    171  CB        14.2710    1.8010   28.3970 C.3   344  SER344      0.2103
    172  OG        13.4080    0.7220   28.1980 O.3   344  SER344     -0.2182
    173  N         12.6140    2.9710   25.9320 N.am  345  VAL345     -0.1965
    174  CA        11.7840    2.7870   24.8030 C.3   345  VAL345      0.1727
    175  C         12.4190    1.6570   23.9260 C.2   345  VAL345      0.2616
    176  O         13.5670    1.8390   23.5030 O.2   345  VAL345     -0.2715
    177  CB        11.6410    3.8540   23.7200 C.3   345  VAL345      0.0290
    178  CG1       10.2340    4.2770   23.4530 C.3   345  VAL345      0.0023
    179  CG2       12.6410    4.9880   23.6490 C.3   345  VAL345      0.0023
    180  N         11.6720    0.6870   23.4640 N.am  346  TRP346     -0.1974
    181  CA        12.2130   -0.3660   22.6280 C.3   346  TRP346      0.1640
    182  C         11.1630   -1.1340   21.8620 C.2   346  TRP346      0.2290
    183  O          9.9820   -1.0630   22.2220 O.2   346  TRP346     -0.2864
    184  CB        12.9890   -1.3610   23.5000 C.3   346  TRP346      0.0576
    185  CG        12.3230   -2.0410   24.6440 C.ar  346  TRP346      0.0006
    186  CD1       11.8670   -1.5220   25.8190 C.ar  346  TRP346      0.0946
    187  CD2       12.0670   -3.4630   24.7740 C.ar  346  TRP346      0.0152
    188  NE1       11.3400   -2.4940   26.6400 N.ar  346  TRP346     -0.2442
    189  CE2       11.4710   -3.7010   26.0210 C.ar  346  TRP346      0.0810
    190  CE3       12.3240   -4.5580   23.9200 C.ar  346  TRP346      0.0012
    191  CZ2       11.1020   -4.9710   26.4330 C.ar  346  TRP346      0.0191
    192  CZ3       11.9770   -5.8180   24.3670 C.ar  346  TRP346      0.0001
    193  CH2       11.3600   -6.0300   25.6060 C.ar  346  TRP346      0.0015
@<TRIPOS>BOND
     1    15    16    1
     2    19    16    1
     3    19    20    1
     4    16    17    1
     5   182   183    2
     6   182   181    1
     7     4     3    2
     8   181   180    1
     9   181   184    1
    10     1     2    1
    11    17    18    2
    12    11    13   ar
    13    11     8   ar
    14    13    14   ar
    15   178   177    1
    16   180   175   am
    17     5     2    1
    18     5     6    1
    19   184   185    1
    20   176   175    2
    21     3     2    1
    22   179   177    1
    23   177   174    1
    24   190   192   ar
    25   190   187   ar
    26   175   174    1
    27     8     6   ar
    28     8    10   ar
    29   192   193   ar
    30    14    12   ar
    31     6     7   ar
    32   185   187   ar
    33   185   186   ar
    34   187   189   ar
    35   174   173    1
    36    10    12   ar
    37    10     9   ar
    38   193   191   ar
    39     7     9   ar
    40   186   188   ar
    41   173   169   am
    42   189   191   ar
    43   189   188   ar
    44    21    22    1
    45   169   170    2
    46   169   168    1
    47   108   107    1
    48   105   107   ar
    49   105   103   ar
    50   107   106   ar
    51    30    29    1
    52   103   102   ar
    53    22    25    1
    54    22    23    1
    55   172   171    1
    56   168   171    1
    57   168   167    1
    58    25    26    1
    59   106   104   ar
    60   102   104   ar
    61   102   101    1
    62    32    33    1
    63    24    23    2
    64   101    98    1
    65    29    31    1
    66    29    28    2
    67   150   151    2
    68   150   149    1
    69    27    26    1
    70    27    28    1
    71    36    33    1
    72    98    99    1
    73    98    97    1
    74   156   154   ar
    75    33    34    1
    76    99   100    2
    77   149   152    1
    78   149   148    1
    79   152   153    1
    80   153   154    1
    81   154   155   ar
    82    93    92    1
    83    93    94    1
    84    35    34    2
    85    96    94   am
    86    92    89    1
    87    94    95    2
    88    48    47    1
    89    91    90    2
    90    72    70   ar
    91    72    73   ar
    92    82    80   ar
    93    70    68   ar
    94    45    47   ar
    95    45    43   ar
    96    74    73    1
    97    73    71   ar
    98    89    90    1
    99    89    88    1
   100    47    46   ar
   101    81    80   ar
   102    68    67    1
   103    68    69   ar
   104    80    79    1
   105    71    69   ar
   106    43    42   ar
   107    67    64    1
   108   146   145   ar
   109    88    85   am
   110    46    44   ar
   111   131   129   ar
   112   145   147   ar
   113   145   144    1
   114    79    76    1
   115    42    44   ar
   116    42    41    1
   117    64    65    1
   118    64    63    1
   119    66    65    2
   120   165   166   ar
   121   165   163   ar
   122   130   129   ar
   123    85    86    2
   124    85    84    1
   125   129   128    1
   126   166   164   ar
   127   144   141    1
   128    37    38    1
   129    41    38    1
   130    75    76    1
   131    76    77    1
   132    77    83   am
   133    77    78    2
   134    83    84    1
   135   163   162   ar
   136    38    39    1
   137    84    87    1
   138   164   162   ar
   139   141   142    1
   140   141   140    1
   141   128   127    1
   142   143   142    2
   143    62    61    1
   144   162   161    1
   145    40    39    2
   146    39    49   am
   147   140   134   am
   148   127   124    1
   149    61    58    1
   150    49    50    1
   151   161   158    1
   152   135   134    2
   153   134   133    1
   154    52    51    2
   155   109   110    1
   156   114   113    1
   157    51    50    1
   158    51    57   am
   159    50    53    1
   160   112   111    2
   161   124   125    1
   162   124   123    1
   163    57    58    1
   164    58    59    1
   165   158   157    1
   166   158   159    1
   167   125   132   am
   168   125   126    2
   169   132   133    1
   170   133   136    1
   171   110   111    1
   172   110   113    1
   173   111   115   am
   174   123   117   am
   175    53    54    1
   176    59    60    2
   177   160   159    2
   178    54    55    1
   179    54    56    1
   180   118   117    2
   181   117   116    1
   182   136   137    1
   183   137   138    1
   184   137   139    1
   185   115   116    1
   186   116   119    1
   187   119   120    1
   188   120   121    2
   189   120   122   am
