@<TRIPOS>MOLECULE
tmp/4ovzA00.pdb
 140 136 0 0 0
SMALL
GASTEIGER

@<TRIPOS>ATOM
      1  N         -5.9690   47.2770  -28.6220 N.3   149  LYS149     -0.1245
      2  CA        -5.9930   48.3190  -29.6240 C.3   149  LYS149      0.1561
      3  C         -5.3560   49.6220  -29.1230 C.2   149  LYS149      0.2260
      4  O         -5.3320   49.9100  -27.9140 O.2   149  LYS149     -0.2867
      5  CB        -7.4290   48.6090  -30.0650 C.3   149  LYS149      0.0271
      6  CG        -8.2230   47.3730  -30.4170 C.3   149  LYS149      0.0035
      7  CD        -8.1270   47.0460  -31.8520 C.3   149  LYS149      0.0206
      8  CE        -8.6840   48.1470  -32.7040 C.3   149  LYS149      0.1093
      9  NZ        -8.6810   47.7320  -34.1670 N.3   149  LYS149     -0.1314
     10  N         -9.4520   52.5620  -36.1520 N.3   154  LEU154     -0.1231
     11  CA       -10.8340   52.1720  -36.2110 C.3   154  LEU154      0.1693
     12  C        -10.8700   50.7560  -35.6760 C.2   154  LEU154      0.2593
     13  O         -9.9030   49.9890  -35.8230 O.2   154  LEU154     -0.2718
     14  CB       -11.3540   52.1920  -37.6750 C.3   154  LEU154      0.0284
     15  CG       -12.8210   51.7720  -37.8760 C.3   154  LEU154      0.0019
     16  CD1      -13.7400   52.6660  -37.0500 C.3   154  LEU154      0.0001
     17  CD2      -13.2620   51.7700  -39.3760 C.3   154  LEU154      0.0001
     18  N        -11.9920   50.4110  -35.0660 N.am  155  GLY155     -0.1942
     19  CA       -12.1720   49.1270  -34.4410 C.3   155  GLY155      0.2014
     20  C        -13.5870   48.6250  -34.5840 C.2   155  GLY155      0.2638
     21  O        -14.4950   49.3790  -34.9370 O.2   155  GLY155     -0.2714
     22  N        -13.7510   47.3370  -34.3140 N.am  156  ASP156     -0.1971
     23  CA       -14.9860   46.6350  -34.4760 C.3   156  ASP156      0.1709
     24  C        -15.6300   46.5260  -33.1180 C.2   156  ASP156      0.2293
     25  O        -15.0160   46.0750  -32.1370 O.2   156  ASP156     -0.2864
     26  CB       -14.7340   45.2580  -35.0480 C.3   156  ASP156      0.1436
     27  CG       -16.0310   44.5150  -35.3980 C.2   156  ASP156      0.3671
     28  OD1      -16.3990   44.4690  -36.6080 O.co2 156  ASP156     -0.2456
     29  OD2      -16.6900   43.9860  -34.4710 O.co2 156  ASP156     -0.2456
     30  N        -18.3940   44.5530  -32.1800 N.3   158  ARG158     -0.1231
     31  CA       -18.5510   43.1720  -31.7540 C.3   158  ARG158      0.1694
     32  C        -17.2440   42.5600  -31.1720 C.2   158  ARG158      0.2591
     33  O        -17.2780   41.9820  -30.0850 O.2   158  ARG158     -0.2718
     34  CB       -19.0800   42.3030  -32.9020 C.3   158  ARG158      0.0321
     35  CG       -19.0300   40.8230  -32.5920 C.3   158  ARG158      0.0489
     36  CD       -19.1270   40.0150  -33.8100 C.3   158  ARG158      0.2205
     37  NE       -17.9660   40.1240  -34.6900 N.pl3 158  ARG158     -0.0865
     38  CZ       -16.7910   39.5190  -34.5280 C.cat 158  ARG158      0.5346
     39  NH1      -16.5380   38.7800  -33.4730 N.pl3 158  ARG158      0.1354
     40  NH2      -15.8300   39.7190  -35.4200 N.pl3 158  ARG158      0.1354
     41  N        -16.1160   42.6850  -31.8690 N.am  159  GLU159     -0.1979
     42  CA       -14.8440   42.1350  -31.3590 C.3   159  GLU159      0.1602
     43  C        -14.5050   42.7510  -30.0370 C.2   159  GLU159      0.2287
     44  O        -14.0340   42.0620  -29.1330 O.2   159  GLU159     -0.2864
     45  CB       -13.6530   42.3400  -32.2860 C.3   159  GLU159      0.0415
     46  CG       -13.8040   41.6250  -33.6460 C.3   159  GLU159      0.1163
     47  CD       -12.5440   41.6780  -34.5100 C.2   159  GLU159      0.3649
     48  OE1      -12.7320   41.6400  -35.7550 O.co2 159  GLU159     -0.2457
     49  OE2      -11.3950   41.7590  -33.9460 O.co2 159  GLU159     -0.2457
     50  N        -23.4650   35.5870  -33.5790 N.3   200  MET200     -0.1245
     51  CA       -23.1970   36.1720  -34.8660 C.3   200  MET200      0.1570
     52  C        -23.9440   35.4240  -35.9280 C.2   200  MET200      0.2261
     53  O        -23.7550   34.2300  -36.0580 O.2   200  MET200     -0.2867
     54  CB       -21.7150   36.1270  -35.1560 C.3   200  MET200      0.0387
     55  CG       -21.3520   36.5240  -36.5840 C.3   200  MET200      0.0595
     56  SD       -21.5290   38.2620  -36.9680 S.3   200  MET200     -0.1393
     57  CE       -19.8640   38.8080  -36.7180 C.3   200  MET200      0.0692
     58  N        -24.4140   40.6970  -37.1360 N.3   238  ALA238     -0.1231
     59  CA       -24.3100   40.1610  -38.4820 C.3   238  ALA238      0.1679
     60  C        -23.5580   41.1920  -39.2870 C.2   238  ALA238      0.2434
     61  O        -23.5210   42.3750  -38.8820 O.2   238  ALA238     -0.2733
     62  CB       -25.6860   39.9570  -39.0640 C.3   238  ALA238      0.0304
     63  N        -22.9490   40.7660  -40.4090 N.am  239  PRO239     -0.2718
     64  CA       -22.2960   41.7390  -41.2780 C.3   239  PRO239      0.1520
     65  C        -23.3530   42.7750  -41.6380 C.2   239  PRO239      0.2440
     66  O        -24.5300   42.4280  -41.7370 O.2   239  PRO239     -0.2731
     67  CB       -21.8880   40.9260  -42.4880 C.3   239  PRO239      0.0310
     68  CG       -21.9670   39.5540  -42.0920 C.3   239  PRO239      0.0237
     69  CD       -22.9790   39.4400  -41.0160 C.3   239  PRO239      0.0939
     70  N        -22.9490   44.0350  -41.7710 N.am  240  PRO240     -0.2727
     71  CA       -23.9640   45.0860  -41.9060 C.3   240  PRO240      0.1402
     72  C        -24.9500   44.8060  -43.0460 C.2   240  PRO240      0.2269
     73  O        -24.6030   44.3860  -44.1370 O.2   240  PRO240     -0.2865
     74  CB       -23.1420   46.3560  -42.1730 C.3   240  PRO240      0.0296
     75  CG       -21.7350   46.0130  -41.8120 C.3   240  PRO240      0.0237
     76  CD       -21.5840   44.5370  -42.0240 C.3   240  PRO240      0.0939
     77  N        -23.4080   50.6230  -39.1180 N.3   256  TYR256     -0.1241
     78  CA       -22.1010   50.8600  -39.6470 C.3   256  TYR256      0.1605
     79  C        -22.1970   51.1910  -41.1230 C.2   256  TYR256      0.2264
     80  O        -22.7450   50.3980  -41.8890 O.2   256  TYR256     -0.2867
     81  CB       -21.2750   49.5960  -39.4840 C.3   256  TYR256      0.0534
     82  CG       -19.8810   49.7330  -40.0440 C.ar  256  TYR256     -0.0201
     83  CD1      -18.8650   50.2960  -39.2690 C.ar  256  TYR256     -0.0009
     84  CD2      -19.5800   49.3300  -41.3440 C.ar  256  TYR256     -0.0009
     85  CE1      -17.6010   50.4230  -39.7500 C.ar  256  TYR256      0.0417
     86  CE2      -18.2940   49.4640  -41.8350 C.ar  256  TYR256      0.0417
     87  CZ       -17.3010   50.0210  -41.0290 C.ar  256  TYR256      0.1957
     88  OH       -15.9840   50.1610  -41.4500 O.3   256  TYR256     -0.2866
     89  N        -20.0520   52.1370  -44.5790 N.3   258  GLY258     -0.1210
     90  CA       -18.7400   52.1560  -45.2060 C.3   258  GLY258      0.1956
     91  C        -18.4090   50.7740  -45.7160 C.2   258  GLY258      0.2612
     92  O        -19.3010   49.9820  -45.9520 O.2   258  GLY258     -0.2717
     93  N        -17.1290   50.4710  -45.8950 N.am  259  ASN259     -0.1960
     94  CA       -16.7340   49.0860  -46.1290 C.3   259  ASN259      0.1819
     95  C        -15.9450   48.5560  -44.9290 C.2   259  ASN259      0.2621
     96  O        -15.8040   49.2280  -43.8900 O.2   259  ASN259     -0.2715
     97  CB       -15.9220   48.9590  -47.4170 C.3   259  ASN259      0.1195
     98  CG       -14.7670   49.9290  -47.4720 C.2   259  ASN259      0.2630
     99  OD1      -13.8760   49.9200  -46.6150 O.2   259  ASN259     -0.2716
    100  ND2      -14.7650   50.7660  -48.4820 N.am  259  ASN259     -0.0877
    101  N        -15.4040   47.3610  -45.0880 N.am  260  TYR260     -0.1960
    102  CA       -14.6830   46.7180  -44.0180 C.3   260  TYR260      0.1771
    103  C        -13.5070   47.5520  -43.5140 C.2   260  TYR260      0.2619
    104  O        -13.2550   47.5830  -42.3020 O.2   260  TYR260     -0.2715
    105  CB       -14.1630   45.3630  -44.4680 C.3   260  TYR260      0.0574
    106  CG       -13.7540   44.5440  -43.3060 C.ar  260  TYR260     -0.0198
    107  CD1      -14.6820   43.7170  -42.6790 C.ar  260  TYR260     -0.0009
    108  CD2      -12.4680   44.6110  -42.7950 C.ar  260  TYR260     -0.0009
    109  CE1      -14.3450   42.9730  -41.5890 C.ar  260  TYR260      0.0417
    110  CE2      -12.1080   43.8590  -41.6910 C.ar  260  TYR260      0.0417
    111  CZ       -13.0450   43.0360  -41.0820 C.ar  260  TYR260      0.1957
    112  OH       -12.7220   42.2580  -39.9690 O.3   260  TYR260     -0.2866
    113  N        -12.7760   48.1950  -44.4290 N.am  261  GLN261     -0.1977
    114  CA       -11.5340   48.8690  -44.0500 C.3   261  GLN261      0.1601
    115  C        -11.8160   50.1840  -43.3820 C.2   261  GLN261      0.2287
    116  O        -11.1120   50.5730  -42.4730 O.2   261  GLN261     -0.2864
    117  CB       -10.6380   49.1370  -45.2490 C.3   261  GLN261      0.0394
    118  CG        -9.8380   47.9280  -45.7390 C.3   261  GLN261      0.0908
    119  CD       -10.5100   47.1610  -46.9060 C.2   261  GLN261      0.2608
    120  OE1      -11.7620   47.1140  -47.0490 O.2   261  GLN261     -0.2717
    121  NE2       -9.6700   46.5470  -47.7390 N.am  261  GLN261     -0.0878
    122  N        -19.4430   54.2740  -37.4180 N.3   264  TYR264     -0.1241
    123  CA       -20.5270   53.7600  -36.5810 C.3   264  TYR264      0.1605
    124  C        -21.3450   54.9160  -36.0300 C.2   264  TYR264      0.2264
    125  O        -20.7960   55.9790  -35.6960 O.2   264  TYR264     -0.2867
    126  CB       -20.0230   53.0150  -35.3520 C.3   264  TYR264      0.0534
    127  CG       -19.6150   51.5770  -35.4690 C.ar  264  TYR264     -0.0201
    128  CD1      -20.5400   50.5630  -35.3730 C.ar  264  TYR264     -0.0009
    129  CD2      -18.2620   51.2310  -35.5420 C.ar  264  TYR264     -0.0009
    130  CE1      -20.1360   49.2310  -35.3930 C.ar  264  TYR264      0.0417
    131  CE2      -17.8560   49.9370  -35.5650 C.ar  264  TYR264      0.0417
    132  CZ       -18.7910   48.9230  -35.4940 C.ar  264  TYR264      0.1957
    133  OH       -18.3500   47.6090  -35.5090 O.3   264  TYR264     -0.2866
    134  N        -25.5560   46.4280  -37.7390 N.3   292  THR292     -0.1218
    135  CA       -24.6370   45.3100  -37.5700 C.3   292  THR292      0.1862
    136  C        -24.7320   44.6490  -36.1930 C.2   292  THR292      0.2287
    137  O        -24.3500   43.5020  -36.0220 O.2   292  THR292     -0.2866
    138  CB       -23.1830   45.8050  -37.8790 C.3   292  THR292      0.1770
    139  OG1      -22.3060   44.6910  -38.0990 O.3   292  THR292     -0.2211
    140  CG2      -22.6640   46.6460  -36.7510 C.3   292  THR292      0.0375
@<TRIPOS>BOND
     1   100    98   am
     2   121   119   am
     3    98    97    1
     4    98    99    2
     5    97    94    1
     6   120   119    2
     7   119   118    1
     8    94    93    1
     9    94    95    1
    10    92    91    2
    11    93    91   am
    12   118   117    1
    13    91    90    1
    14   117   114    1
    15    90    89    1
    16   101    95   am
    17   101   102    1
    18    95    96    2
    19   105   102    1
    20   105   106    1
    21   113   114    1
    22   113   103   am
    23    73    72    2
    24   114   115    1
    25   102   103    1
    26   103   104    2
    27   115   116    2
    28   106   108   ar
    29   106   107   ar
    30    72    71    1
    31   108   110   ar
    32   107   109   ar
    33    67    68    1
    34    67    64    1
    35    74    71    1
    36    74    75    1
    37    68    69    1
    38    76    75    1
    39    76    70    1
    40    71    70    1
    41    80    79    2
    42    86    84   ar
    43    86    87   ar
    44    70    65   am
    45    66    65    2
    46   110   111   ar
    47    65    64    1
    48   109   111   ar
    49    88    87    1
    50    84    82   ar
    51    64    63    1
    52    79    78    1
    53   111   112    1
    54    87    85   ar
    55    69    63    1
    56    63    60   am
    57    82    81    1
    58    82    83   ar
    59    85    83   ar
    60    78    81    1
    61    78    77    1
    62    17    15    1
    63    60    61    2
    64    60    59    1
    65    62    59    1
    66    59    58    1
    67   139   138    1
    68   138   135    1
    69   138   140    1
    70    15    14    1
    71    15    16    1
    72   134   135    1
    73    14    11    1
    74   135   136    1
    75   122   123    1
    76    56    57    1
    77    56    55    1
    78    28    27   ar
    79    55    54    1
    80   123   124    1
    81   123   126    1
    82    11    10    1
    83    11    12    1
    84   136   137    2
    85    53    52    2
    86   124   125    2
    87    52    51    1
    88    13    12    2
    89    48    47   ar
    90    12    18   am
    91   131   129   ar
    92   131   132   ar
    93   129   127   ar
    94   133   132    1
    95   132   130   ar
    96   127   128   ar
    97   127   126    1
    98    40    38    1
    99    27    26    1
   100    27    29   ar
   101   130   128   ar
   102    54    51    1
   103    18    19    1
   104    26    23    1
   105    21    20    2
   106    51    50    1
   107    37    38    2
   108    37    36    1
   109    20    19    1
   110    20    22   am
   111    38    39    1
   112    47    49   ar
   113    47    46    1
   114    23    22    1
   115    23    24    1
   116     9     8    1
   117    36    35    1
   118    46    45    1
   119    24    25    2
   120    34    35    1
   121    34    31    1
   122     8     7    1
   123    45    42    1
   124    30    31    1
   125    41    42    1
   126    41    32   am
   127     7     6    1
   128    31    32    1
   129    42    43    1
   130    32    33    2
   131     6     5    1
   132     5     2    1
   133    43    44    2
   134     2     3    1
   135     2     1    1
   136     3     4    2
