@<TRIPOS>MOLECULE
tmp/4owdA00.pdb
 121 113 0 0 0
SMALL
GASTEIGER

@<TRIPOS>ATOM
      1  N        -17.4070    9.0210   17.6590 N.3    18  ARG18      -0.1245
      2  CA       -17.2270    8.5610   19.0320 C.3    18  ARG18       0.1563
      3  C        -15.8690    7.8840   19.1770 C.2    18  ARG18       0.2260
      4  O        -15.3210    7.3730   18.2000 O.2    18  ARG18      -0.2867
      5  CB       -18.3320    7.5730   19.4110 C.3    18  ARG18       0.0307
      6  CG       -19.7200    8.1860   19.5500 C.3    18  ARG18       0.0489
      7  CD       -20.7990    7.1810   19.1660 C.3    18  ARG18       0.2205
      8  NE       -20.6870    5.9430   19.9380 N.pl3  18  ARG18      -0.0865
      9  CZ       -21.0170    4.7230   19.5070 C.cat  18  ARG18       0.5346
     10  NH1      -21.4980    4.5220   18.2810 N.pl3  18  ARG18       0.1354
     11  NH2      -20.8550    3.6800   20.3200 N.pl3  18  ARG18       0.1354
     12  N        -22.9540   12.0490   23.0950 N.3    58  LEU58      -0.1245
     13  CA       -23.8050   12.3760   21.9530 C.3    58  LEU58       0.1561
     14  C        -24.2760   13.8320   21.9750 C.2    58  LEU58       0.2260
     15  O        -24.3070   14.4840   20.9340 O.2    58  LEU58      -0.2867
     16  CB       -24.9930   11.4100   21.8680 C.3    58  LEU58       0.0270
     17  CG       -24.5990    9.9620   21.5360 C.3    58  LEU58       0.0019
     18  CD1      -25.6990    8.9850   21.9120 C.3    58  LEU58       0.0001
     19  CD2      -24.2390    9.8120   20.0620 C.3    58  LEU58       0.0001
     20  N        -23.4850   16.3840   18.8380 N.3    62  TYR62      -0.1241
     21  CA       -24.4580   17.2200   18.1290 C.3    62  TYR62       0.1605
     22  C        -24.2260   18.7110   18.3710 C.2    62  TYR62       0.2264
     23  O        -24.4920   19.5350   17.4910 O.2    62  TYR62      -0.2867
     24  CB       -25.8900   16.8350   18.5030 C.3    62  TYR62       0.0534
     25  CG       -26.3390   15.5220   17.8970 C.ar   62  TYR62      -0.0201
     26  CD1      -26.4870   15.3900   16.5210 C.ar   62  TYR62      -0.0009
     27  CD2      -26.6200   14.4130   18.6980 C.ar   62  TYR62      -0.0009
     28  CE1      -26.9000   14.1980   15.9530 C.ar   62  TYR62       0.0417
     29  CE2      -27.0330   13.2160   18.1400 C.ar   62  TYR62       0.0417
     30  CZ       -27.1710   13.1120   16.7670 C.ar   62  TYR62       0.1957
     31  OH       -27.5810   11.9310   16.1940 O.3    62  TYR62      -0.2866
     32  N        -20.9210    8.2460   13.3210 N.3    76  ALA76      -0.1231
     33  CA       -20.7970    7.6740   14.6560 C.3    76  ALA76       0.1694
     34  C        -21.8900    6.6570   14.9920 C.2    76  ALA76       0.2593
     35  O        -22.2890    6.5390   16.1570 O.2    76  ALA76      -0.2718
     36  CB       -20.7950    8.8020   15.6900 C.3    76  ALA76       0.0304
     37  N        -22.3530    5.9060   13.9920 N.am   77  GLY77      -0.1942
     38  CA       -23.4040    4.9130   14.2090 C.3    77  GLY77       0.2014
     39  C        -24.6850    5.5450   14.7330 C.2    77  GLY77       0.2639
     40  O        -25.3170    5.0130   15.6430 O.2    77  GLY77      -0.2714
     41  N        -25.0690    6.6760   14.1460 N.am   78  LEU78      -0.1963
     42  CA       -26.1790    7.4840   14.6610 C.3    78  LEU78       0.1728
     43  C        -27.5370    6.9990   14.1460 C.2    78  LEU78       0.2616
     44  O        -27.6850    6.6810   12.9660 O.2    78  LEU78      -0.2715
     45  CB       -25.9940    8.9540   14.2730 C.3    78  LEU78       0.0311
     46  CG       -24.7030    9.6440   14.7240 C.3    78  LEU78       0.0022
     47  CD1      -24.6070   11.0300   14.1150 C.3    78  LEU78       0.0001
     48  CD2      -24.6280    9.7270   16.2410 C.3    78  LEU78       0.0001
     49  N        -28.5220    6.9600   15.0420 N.am   79  THR79      -0.1951
     50  CA       -29.9020    6.6540   14.6850 C.3    79  THR79       0.1897
     51  C        -30.6370    7.9830   14.5170 C.2    79  THR79       0.2313
     52  O        -30.6840    8.7790   15.4560 O.2    79  THR79      -0.2863
     53  CB       -30.5930    5.8330   15.7890 C.3    79  THR79       0.1794
     54  OG1      -29.8410    4.6430   16.0550 O.3    79  THR79      -0.2208
     55  CG2      -32.0210    5.4480   15.3820 C.3    79  THR79       0.0378
     56  N        -26.9200    5.3500   27.3220 N.3   124  LEU124     -0.1245
     57  CA       -26.1700    6.5460   26.9590 C.3   124  LEU124      0.1561
     58  C        -27.0860    7.7710   27.0120 C.2   124  LEU124      0.2260
     59  O        -28.2140    7.7360   26.5100 O.2   124  LEU124     -0.2867
     60  CB       -25.5920    6.4130   25.5510 C.3   124  LEU124      0.0270
     61  CG       -24.6180    5.2740   25.2600 C.3   124  LEU124      0.0019
     62  CD1      -24.3420    5.2230   23.7640 C.3   124  LEU124      0.0001
     63  CD2      -23.3280    5.4410   26.0410 C.3   124  LEU124      0.0001
     64  N        -28.5640   11.1850   25.8230 N.3   126  GLY126     -0.1210
     65  CA       -28.7560   11.8060   24.5210 C.3   126  GLY126      0.1956
     66  C        -28.9680   10.8270   23.3850 C.2   126  GLY126      0.2613
     67  O        -29.0160   11.2360   22.2260 O.2   126  GLY126     -0.2717
     68  N        -29.1040    9.5380   23.7080 N.am  127  SER127     -0.1938
     69  CA       -29.2290    8.4910   22.6870 C.3   127  SER127      0.2055
     70  C        -30.6750    8.2330   22.2770 C.2   127  SER127      0.2644
     71  O        -31.6140    8.5750   22.9980 O.2   127  SER127     -0.2714
     72  CB       -28.6030    7.1860   23.1760 C.3   127  SER127      0.2130
     73  OG       -29.3170    6.6430   24.2740 O.3   127  SER127     -0.2179
     74  N        -30.8380    7.6190   21.1070 N.am  128  SER128     -0.1935
     75  CA       -32.1370    7.1430   20.6470 C.3   128  SER128      0.2055
     76  C        -32.6700    6.0960   21.6140 C.2   128  SER128      0.2643
     77  O        -33.8800    5.9640   21.7900 O.2   128  SER128     -0.2714
     78  CB       -32.0200    6.5410   19.2440 C.3   128  SER128      0.2130
     79  OG       -30.9890    5.5610   19.1890 O.3   128  SER128     -0.2179
     80  N        -31.7470    5.3680   22.2430 N.am  129  HIS129     -0.1973
     81  CA       -32.0820    4.3570   23.2480 C.3   129  HIS129      0.1656
     82  C        -32.7340    4.9520   24.4850 C.2   129  HIS129      0.2291
     83  O        -33.7220    4.4150   24.9860 O.2   129  HIS129     -0.2864
     84  CB       -30.8330    3.5780   23.6520 C.3   129  HIS129      0.0771
     85  CG       -30.1460    2.9200   22.4990 C.ar  129  HIS129      0.0820
     86  ND1      -28.7980    3.0540   22.2610 N.ar  129  HIS129     -0.2267
     87  CD2      -30.6330    2.1550   21.4940 C.ar  129  HIS129      0.1154
     88  CE1      -28.4770    2.3780   21.1730 C.ar  129  HIS129      0.1986
     89  NE2      -29.5720    1.8220   20.6880 N.ar  129  HIS129     -0.2212
     90  N        -20.6430    2.5170   25.1130 N.3   153  VAL153     -0.1245
     91  CA       -21.3740    1.2560   25.0340 C.3   153  VAL153      0.1561
     92  C        -20.5970    0.1210   25.6990 C.2   153  VAL153      0.2260
     93  O        -21.1870   -0.7140   26.3860 O.2   153  VAL153     -0.2867
     94  CB       -21.7110    0.8880   23.5710 C.3   153  VAL153      0.0252
     95  CG1      -22.3340   -0.5000   23.4910 C.3   153  VAL153      0.0019
     96  CG2      -22.6530    1.9300   22.9720 C.3   153  VAL153      0.0019
     97  N        -27.5200   -1.0180   20.2590 N.3   171  ASP171     -0.1239
     98  CA       -27.7490   -1.5120   18.9030 C.3   171  ASP171      0.1674
     99  C        -27.1100   -2.8820   18.7100 C.2   171  ASP171      0.2266
    100  O        -26.0010   -3.1290   19.1830 O.2   171  ASP171     -0.2867
    101  CB       -27.2060   -0.5260   17.8700 C.3   171  ASP171      0.1410
    102  CG       -28.0340    0.7380   17.7840 C.2   171  ASP171      0.3668
    103  OD1      -29.2680    0.6570   17.9760 O.co2 171  ASP171     -0.2456
    104  OD2      -27.4550    1.8140   17.5280 O.co2 171  ASP171     -0.2456
    105  N        -23.2850   -3.3680   17.8050 N.3   174  GLU174     -0.1245
    106  CA       -22.2700   -3.0990   18.8160 C.3   174  GLU174      0.1567
    107  C        -22.3250   -4.1520   19.9270 C.2   174  GLU174      0.2260
    108  O        -21.3250   -4.4170   20.5730 O.2   174  GLU174     -0.2867
    109  CB       -22.3690   -1.6560   19.3390 C.3   174  GLU174      0.0388
    110  CG       -22.0930   -0.6360   18.2290 C.3   174  GLU174      0.1160
    111  CD       -21.5600    0.7190   18.6930 C.2   174  GLU174      0.3649
    112  OE1      -21.1510    0.8760   19.8650 O.co2 174  GLU174     -0.2457
    113  OE2      -21.5330    1.6530   17.8580 O.co2 174  GLU174     -0.2457
    114  N        -28.9240    3.2590   10.3900 N.3   197  LEU197     -0.1245
    115  CA       -27.9230    4.2110   10.8560 C.3   197  LEU197      0.1561
    116  C        -27.6050    5.1890    9.7250 C.2   197  LEU197      0.2260
    117  O        -27.6050    4.8060    8.5530 O.2   197  LEU197     -0.2867
    118  CB       -26.6560    3.4920   11.3090 C.3   197  LEU197      0.0270
    119  CG       -26.8250    2.5370   12.4920 C.3   197  LEU197      0.0019
    120  CD1      -25.4940    1.8950   12.8210 C.3   197  LEU197      0.0001
    121  CD2      -27.3920    3.2520   13.7100 C.3   197  LEU197      0.0001
@<TRIPOS>BOND
     1   117   116    2
     2   116   115    1
     3   114   115    1
     4   115   118    1
     5   118   119    1
     6   119   120    1
     7   119   121    1
     8    44    43    2
     9    32    33    1
    10    37    38    1
    11    37    34   am
    12    47    46    1
    13    41    42    1
    14    41    39   am
    15    43    42    1
    16    43    49   am
    17    38    39    1
    18    45    42    1
    19    45    46    1
    20    51    50    1
    21    51    52    2
    22    33    34    1
    23    33    36    1
    24    50    49    1
    25    50    53    1
    26    46    48    1
    27    39    40    2
    28    34    35    2
    29    55    53    1
    30    53    54    1
    31    28    26   ar
    32    28    30   ar
    33    31    30    1
    34    26    25   ar
    35    30    29   ar
    36    23    22    2
    37   104   102   ar
    38     1     2    1
    39   102   101    1
    40   102   103   ar
    41   105   106    1
    42   113   111   ar
    43   101    98    1
    44    25    24    1
    45    25    27   ar
    46    21    22    1
    47    21    24    1
    48    21    20    1
    49    29    27   ar
    50     4     3    2
    51   110   111    1
    52   110   109    1
    53    10     9    1
    54   111   112   ar
    55    99    98    1
    56    99   100    2
    57   106   109    1
    58   106   107    1
    59    98    97    1
    60     2     3    1
    61     2     5    1
    62     7     6    1
    63     7     8    1
    64    79    78    1
    65    78    75    1
    66     5     6    1
    67     9     8    2
    68     9    11    1
    69   107   108    2
    70    19    17    1
    71    75    74    1
    72    75    76    1
    73    89    88   ar
    74    89    87   ar
    75    15    14    2
    76    74    70   am
    77    88    86   ar
    78    87    85   ar
    79    17    16    1
    80    17    18    1
    81    76    77    2
    82    76    80   am
    83    16    13    1
    84    13    14    1
    85    13    12    1
    86    67    66    2
    87    80    81    1
    88    86    85   ar
    89    70    69    1
    90    70    71    2
    91    85    84    1
    92    69    72    1
    93    69    68    1
    94    96    94    1
    95    72    73    1
    96    81    84    1
    97    81    82    1
    98    66    68   am
    99    66    65    1
   100    95    94    1
   101    94    91    1
   102    62    61    1
   103    82    83    2
   104    65    64    1
   105    91    90    1
   106    91    92    1
   107    61    60    1
   108    61    63    1
   109    60    57    1
   110    92    93    2
   111    59    58    2
   112    57    58    1
   113    57    56    1
