@<TRIPOS>MOLECULE
tmp/4owmB01.pdb
 95 92 0 0 0
SMALL
GASTEIGER

@<TRIPOS>ATOM
      1  N         -8.5530  -26.8910   50.1210 N.3    63  MET63      -0.1245
      2  CA        -7.6150  -27.9990   50.0570 C.3    63  MET63       0.1570
      3  C         -7.2470  -28.4610   51.4650 C.2    63  MET63       0.2261
      4  O         -7.2350  -29.6780   51.7440 O.2    63  MET63      -0.2867
      5  CB        -6.3850  -27.5790   49.2890 C.3    63  MET63       0.0387
      6  CG        -5.3860  -28.6880   49.0880 C.3    63  MET63       0.0595
      7  SD        -4.1610  -28.1980   47.8710 S.3    63  MET63      -0.1393
      8  CE        -2.9830  -29.5170   48.1420 C.3    63  MET63       0.0692
      9  N          7.9830  -32.3900   49.2100 N.3   115  ASN115     -0.1240
     10  CA         7.6270  -33.3490   48.2030 C.3   115  ASN115      0.1653
     11  C          8.8930  -33.6500   47.4230 C.2   115  ASN115      0.2266
     12  O          9.9240  -32.9820   47.5980 O.2   115  ASN115     -0.2867
     13  CB         6.6020  -32.7100   47.2670 C.3   115  ASN115      0.1155
     14  CG         5.7160  -33.7320   46.5850 C.2   115  ASN115      0.2627
     15  OD1        6.0570  -34.9020   46.5010 O.2   115  ASN115     -0.2716
     16  ND2        4.5650  -33.2800   46.1090 N.am  115  ASN115     -0.0877
     17  N          3.5380  -34.7590   51.1200 N.3   154  ALA154     -0.1231
     18  CA         2.2970  -34.2080   50.5830 C.3   154  ALA154      0.1679
     19  C          1.3260  -35.2650   50.0990 C.2   154  ALA154      0.2434
     20  O          0.1540  -35.2280   50.4910 O.2   154  ALA154     -0.2733
     21  CB         2.5880  -33.1470   49.5240 C.3   154  ALA154      0.0304
     22  N          1.8000  -36.2710   49.3260 N.am  155  PRO155     -0.2729
     23  CA         0.8620  -37.3220   48.9040 C.3   155  PRO155      0.1401
     24  C          0.1970  -38.0880   50.0540 C.2   155  PRO155      0.2269
     25  O         -0.9160  -38.5470   49.9010 O.2   155  PRO155     -0.2865
     26  CB         1.7350  -38.2740   48.0450 C.3   155  PRO155      0.0296
     27  CG         2.8880  -37.4420   47.6060 C.3   155  PRO155      0.0237
     28  CD         3.1300  -36.4310   48.6990 C.3   155  PRO155      0.0939
     29  N         -2.3880  -35.0980   51.6330 N.3   158  HIS158     -0.1227
     30  CA        -3.3650  -34.5640   50.6860 C.3   158  HIS158      0.1737
     31  C         -3.8220  -35.6110   49.6540 C.2   158  HIS158      0.2438
     32  O         -3.8180  -35.3490   48.4520 O.2   158  HIS158     -0.2733
     33  CB        -2.7460  -33.3850   49.9380 C.3   158  HIS158      0.0758
     34  CG        -2.3070  -32.2660   50.8240 C.ar  158  HIS158      0.0818
     35  ND1       -3.1890  -31.4120   51.4500 N.ar  158  HIS158     -0.2268
     36  CD2       -1.0650  -31.8420   51.1650 C.ar  158  HIS158      0.1154
     37  CE1       -2.5110  -30.5240   52.1460 C.ar  158  HIS158      0.1986
     38  NE2       -1.2220  -30.7730   51.9980 N.ar  158  HIS158     -0.2212
     39  N         -4.2770  -36.7740   50.1140 N.am  159  PRO159     -0.2729
     40  CA        -4.7030  -37.7920   49.1180 C.3   159  PRO159      0.1401
     41  C         -5.7280  -37.3290   48.0670 C.2   159  PRO159      0.2269
     42  O         -5.6830  -37.7640   46.9040 O.2   159  PRO159     -0.2865
     43  CB        -5.2870  -38.9090   49.9960 C.3   159  PRO159      0.0296
     44  CG        -5.6800  -38.2390   51.2810 C.3   159  PRO159      0.0237
     45  CD        -4.6680  -37.1350   51.4890 C.3   159  PRO159      0.0939
     46  N         -5.9510  -34.5470   46.5590 N.3   161  TYR161     -0.1227
     47  CA        -5.3470  -33.6800   45.5540 C.3   161  TYR161      0.1736
     48  C         -4.8260  -34.4500   44.3490 C.2   161  TYR161      0.2595
     49  O         -4.3430  -33.8570   43.3830 O.2   161  TYR161     -0.2718
     50  CB        -4.1950  -32.9460   46.2070 C.3   161  TYR161      0.0548
     51  CG        -3.6050  -31.8330   45.3870 C.ar  161  TYR161     -0.0200
     52  CD1       -4.3070  -30.6640   45.1630 C.ar  161  TYR161     -0.0009
     53  CD2       -2.3280  -31.9440   44.8530 C.ar  161  TYR161     -0.0009
     54  CE1       -3.7580  -29.6360   44.4180 C.ar  161  TYR161      0.0417
     55  CE2       -1.7690  -30.9140   44.1060 C.ar  161  TYR161      0.0417
     56  CZ        -2.4870  -29.7650   43.9000 C.ar  161  TYR161      0.1957
     57  OH        -1.9430  -28.7550   43.1470 O.3   161  TYR161     -0.2866
     58  N         -4.9040  -35.7760   44.4050 N.am  162  ARG162     -0.1980
     59  CA        -4.3130  -36.5960   43.3660 C.3   162  ARG162      0.1597
     60  C         -4.8600  -36.3180   41.9640 C.2   162  ARG162      0.2287
     61  O         -4.1380  -36.4750   41.0180 O.2   162  ARG162     -0.2864
     62  CB        -4.4950  -38.0760   43.6770 C.3   162  ARG162      0.0334
     63  CG        -5.9330  -38.5650   43.7040 C.3   162  ARG162      0.0492
     64  CD        -5.9600  -39.9900   44.2620 C.3   162  ARG162      0.2205
     65  NE        -7.2950  -40.5620   44.1880 N.pl3 162  ARG162     -0.0865
     66  CZ        -8.2800  -40.3490   45.0540 C.cat 162  ARG162      0.5346
     67  NH1       -8.1110  -39.5690   46.1280 N.pl3 162  ARG162      0.1354
     68  NH2       -9.4580  -40.9250   44.8380 N.pl3 162  ARG162      0.1354
     69  N         -3.0490  -33.1600   40.9200 N.3   165  ALA165     -0.1245
     70  CA        -1.6110  -33.4220   40.7300 C.3   165  ALA165      0.1562
     71  C         -1.3460  -34.0860   39.3830 C.2   165  ALA165      0.2260
     72  O         -0.3880  -33.7390   38.7070 O.2   165  ALA165     -0.2867
     73  CB        -1.0460  -34.2790   41.8450 C.3   165  ALA165      0.0290
     74  N         -1.6010  -31.4800   36.6420 N.3   168  ARG168     -0.1231
     75  CA        -0.3880  -30.6840   36.7300 C.3   168  ARG168      0.1694
     76  C          0.7530  -31.3290   35.9440 C.2   168  ARG168      0.2591
     77  O          1.4340  -30.6730   35.1810 O.2   168  ARG168     -0.2718
     78  CB        -0.0290  -30.5300   38.1990 C.3   168  ARG168      0.0321
     79  CG         1.1400  -29.6410   38.5420 C.3   168  ARG168      0.0489
     80  CD         0.8220  -28.9830   39.8970 C.3   168  ARG168      0.2205
     81  NE         2.0410  -28.5330   40.5340 N.pl3 168  ARG168     -0.0865
     82  CZ         2.2570  -28.4950   41.8440 C.cat 168  ARG168      0.5346
     83  NH1        1.3210  -28.8720   42.7340 N.pl3 168  ARG168      0.1354
     84  NH2        3.4380  -28.0650   42.2640 N.pl3 168  ARG168      0.1354
     85  N          0.9370  -32.6290   36.1250 N.am  169  ARG169     -0.1980
     86  CA         1.9810  -33.3590   35.4150 C.3   169  ARG169      0.1597
     87  C          1.6850  -33.4680   33.9240 C.2   169  ARG169      0.2287
     88  O          2.5870  -33.3870   33.1080 O.2   169  ARG169     -0.2864
     89  CB         2.1310  -34.7600   35.9920 C.3   169  ARG169      0.0334
     90  CG         2.6590  -34.7670   37.4200 C.3   169  ARG169      0.0492
     91  CD         3.0650  -36.1840   37.8260 C.3   169  ARG169      0.2205
     92  NE         1.8950  -37.0530   37.9860 N.pl3 169  ARG169     -0.0865
     93  CZ         1.2320  -37.2240   39.1320 C.cat 169  ARG169      0.5346
     94  NH1        1.6120  -36.5870   40.2340 N.pl3 169  ARG169      0.1354
     95  NH2        0.1790  -38.0350   39.1740 N.pl3 169  ARG169      0.1354
@<TRIPOS>BOND
     1    88    87    2
     2    87    86    1
     3    77    76    2
     4    86    89    1
     5    86    85    1
     6    76    85   am
     7    76    75    1
     8    89    90    1
     9    74    75    1
    10    75    78    1
    11    90    91    1
    12    91    92    1
    13    92    93    2
    14    78    79    1
    15    79    80    1
    16    72    71    2
    17    93    95    1
    18    93    94    1
    19    71    70    1
    20    80    81    1
    21    81    82    2
    22    70    69    1
    23    70    73    1
    24    61    60    2
    25    82    84    1
    26    82    83    1
    27    60    59    1
    28    57    56    1
    29    59    62    1
    30    59    58    1
    31    49    48    2
    32    62    63    1
    33    63    64    1
    34    56    55   ar
    35    56    54   ar
    36    55    53   ar
    37    65    64    1
    38    65    66    2
    39    48    58   am
    40    48    47    1
    41    54    52   ar
    42    68    66    1
    43    53    51   ar
    44    66    67    1
    45    52    51   ar
    46    51    50    1
    47    47    50    1
    48    47    46    1
    49    16    14   am
    50    15    14    2
    51    14    13    1
    52    42    41    2
    53    13    10    1
    54    11    12    2
    55    11    10    1
    56    27    26    1
    57    27    28    1
    58     7     8    1
    59     7     6    1
    60    26    23    1
    61    41    40    1
    62    10     9    1
    63    32    31    2
    64    28    22    1
    65    23    22    1
    66    23    24    1
    67     6     5    1
    68    40    43    1
    69    40    39    1
    70     5     2    1
    71    22    19   am
    72    21    18    1
    73    31    39   am
    74    31    30    1
    75    25    24    2
    76    33    30    1
    77    33    34    1
    78    43    44    1
    79     2     1    1
    80     2     3    1
    81    19    20    2
    82    19    18    1
    83    39    45    1
    84    18    17    1
    85    30    29    1
    86    34    36   ar
    87    34    35   ar
    88    36    38   ar
    89    44    45    1
    90    35    37   ar
    91     3     4    2
    92    38    37   ar
