@<TRIPOS>MOLECULE
tmp/4ownB01.pdb
 95 92 0 0 0
SMALL
GASTEIGER

@<TRIPOS>ATOM
      1  N         -8.5890  -26.9700   50.1170 N.3    63  MET63      -0.1245
      2  CA        -7.6120  -28.0530   50.0800 C.3    63  MET63       0.1570
      3  C         -7.2690  -28.5240   51.4950 C.2    63  MET63       0.2261
      4  O         -7.2760  -29.7260   51.7630 O.2    63  MET63      -0.2867
      5  CB        -6.3540  -27.6130   49.3520 C.3    63  MET63       0.0387
      6  CG        -5.3250  -28.7190   49.1770 C.3    63  MET63       0.0595
      7  SD        -4.2190  -28.2830   47.8280 S.3    63  MET63      -0.1393
      8  CE        -2.9370  -29.4990   48.1220 C.3    63  MET63       0.0692
      9  N          7.7260  -32.5640   49.0480 N.3   115  ASN115     -0.1240
     10  CA         7.4390  -33.5470   48.0520 C.3   115  ASN115      0.1653
     11  C          8.7160  -33.9380   47.3120 C.2   115  ASN115      0.2266
     12  O          9.7530  -33.2840   47.4460 O.2   115  ASN115     -0.2867
     13  CB         6.4460  -32.9330   47.0820 C.3   115  ASN115      0.1155
     14  CG         5.6070  -33.9650   46.3880 C.2   115  ASN115      0.2627
     15  OD1        5.9040  -35.1550   46.4150 O.2   115  ASN115     -0.2716
     16  ND2        4.5380  -33.5070   45.7630 N.am  115  ASN115     -0.0877
     17  N          3.5980  -34.7110   51.1230 N.3   155  ALA155     -0.1231
     18  CA         2.3610  -34.2040   50.5250 C.3   155  ALA155      0.1679
     19  C          1.3730  -35.2870   50.0720 C.2   155  ALA155      0.2434
     20  O          0.1980  -35.2090   50.4240 O.2   155  ALA155     -0.2733
     21  CB         2.6610  -33.2110   49.4110 C.3   155  ALA155      0.0304
     22  N          1.8260  -36.3190   49.3250 N.am  156  PRO156     -0.2729
     23  CA         0.8310  -37.3370   48.9290 C.3   156  PRO156      0.1401
     24  C          0.2290  -38.1250   50.0940 C.2   156  PRO156      0.2269
     25  O         -0.8630  -38.6560   49.9710 O.2   156  PRO156     -0.2865
     26  CB         1.6270  -38.2670   47.9870 C.3   156  PRO156      0.0296
     27  CG         2.7500  -37.4150   47.4910 C.3   156  PRO156      0.0237
     28  CD         3.1280  -36.5610   48.6780 C.3   156  PRO156      0.0939
     29  N         -2.4440  -35.1910   51.6400 N.3   159  HIS159     -0.1227
     30  CA        -3.4030  -34.6360   50.7100 C.3   159  HIS159      0.1737
     31  C         -3.8550  -35.6600   49.6640 C.2   159  HIS159      0.2438
     32  O         -3.7760  -35.4050   48.4500 O.2   159  HIS159     -0.2733
     33  CB        -2.7530  -33.4910   49.9630 C.3   159  HIS159      0.0758
     34  CG        -2.3410  -32.3570   50.8360 C.ar  159  HIS159      0.0818
     35  ND1       -3.2470  -31.5080   51.4250 N.ar  159  HIS159     -0.2268
     36  CD2       -1.1120  -31.9310   51.2190 C.ar  159  HIS159      0.1154
     37  CE1       -2.5940  -30.6060   52.1370 C.ar  159  HIS159      0.1986
     38  NE2       -1.2990  -30.8370   52.0250 N.ar  159  HIS159     -0.2212
     39  N         -4.3610  -36.8080   50.1120 N.am  160  PRO160     -0.2729
     40  CA        -4.6920  -37.8230   49.1000 C.3   160  PRO160      0.1401
     41  C         -5.7450  -37.4000   48.0700 C.2   160  PRO160      0.2269
     42  O         -5.7240  -37.8690   46.9500 O.2   160  PRO160     -0.2865
     43  CB        -5.2360  -38.9790   49.9420 C.3   160  PRO160      0.0296
     44  CG        -5.7310  -38.3220   51.2020 C.3   160  PRO160      0.0237
     45  CD        -4.7170  -37.2430   51.4660 C.3   160  PRO160      0.0939
     46  N         -6.0130  -34.7040   46.5230 N.3   162  TYR162     -0.1227
     47  CA        -5.4110  -33.7980   45.5400 C.3   162  TYR162      0.1736
     48  C         -4.8850  -34.5670   44.3260 C.2   162  TYR162      0.2595
     49  O         -4.4200  -33.9710   43.3550 O.2   162  TYR162     -0.2718
     50  CB        -4.2600  -33.0300   46.2010 C.3   162  TYR162      0.0548
     51  CG        -3.6450  -31.9200   45.3560 C.ar  162  TYR162     -0.0200
     52  CD1       -4.3320  -30.7360   45.1330 C.ar  162  TYR162     -0.0009
     53  CD2       -2.3740  -32.0550   44.7920 C.ar  162  TYR162     -0.0009
     54  CE1       -3.7850  -29.7230   44.3660 C.ar  162  TYR162      0.0417
     55  CE2       -1.8230  -31.0470   44.0120 C.ar  162  TYR162      0.0417
     56  CZ        -2.5320  -29.8850   43.8120 C.ar  162  TYR162      0.1957
     57  OH        -2.0220  -28.8790   43.0360 O.3   162  TYR162     -0.2866
     58  N         -4.9820  -35.8910   44.3630 N.am  163  ARG163     -0.1980
     59  CA        -4.4080  -36.7190   43.3100 C.3   163  ARG163      0.1597
     60  C         -4.9410  -36.4250   41.9030 C.2   163  ARG163      0.2287
     61  O         -4.2180  -36.5950   40.9470 O.2   163  ARG163     -0.2864
     62  CB        -4.5710  -38.2150   43.6360 C.3   163  ARG163      0.0334
     63  CG        -6.0050  -38.7160   43.6670 C.3   163  ARG163      0.0492
     64  CD        -6.0700  -40.1780   44.0950 C.3   163  ARG163      0.2205
     65  NE        -7.4650  -40.5960   44.1440 N.pl3 163  ARG163     -0.0865
     66  CZ        -8.2850  -40.4010   45.1720 C.cat 163  ARG163      0.5346
     67  NH1       -7.8640  -39.8230   46.3010 N.pl3 163  ARG163      0.1354
     68  NH2       -9.5480  -40.7980   45.0740 N.pl3 163  ARG163      0.1354
     69  N         -3.0460  -33.2710   40.9100 N.3   166  ALA166     -0.1245
     70  CA        -1.6220  -33.5420   40.7090 C.3   166  ALA166      0.1562
     71  C         -1.3760  -34.2500   39.3700 C.2   166  ALA166      0.2260
     72  O         -0.4150  -33.9360   38.6930 O.2   166  ALA166     -0.2867
     73  CB        -1.0310  -34.3440   41.8650 C.3   166  ALA166      0.0290
     74  N         -1.6100  -31.6610   36.6740 N.3   169  ARG169     -0.1231
     75  CA        -0.4150  -30.8050   36.6930 C.3   169  ARG169      0.1694
     76  C          0.7240  -31.4380   35.8900 C.2   169  ARG169      0.2591
     77  O          1.4080  -30.7650   35.1340 O.2   169  ARG169     -0.2718
     78  CB         0.0600  -30.5310   38.1200 C.3   169  ARG169      0.0321
     79  CG        -0.7700  -29.4990   38.8920 C.3   169  ARG169      0.0489
     80  CD        -0.0260  -28.9580   40.1310 C.3   169  ARG169      0.2205
     81  NE         1.4080  -28.7720   39.8800 N.pl3 169  ARG169     -0.0865
     82  CZ         2.3570  -28.6810   40.8160 C.cat 169  ARG169      0.5346
     83  NH1        2.0630  -28.7190   42.1160 N.pl3 169  ARG169      0.1354
     84  NH2        3.6260  -28.5390   40.4410 N.pl3 169  ARG169      0.1354
     85  N          0.9220  -32.7340   36.0990 N.am  170  ARG170     -0.1980
     86  CA         1.9370  -33.5000   35.3950 C.3   170  ARG170      0.1597
     87  C          1.6250  -33.6530   33.9140 C.2   170  ARG170      0.2287
     88  O          2.5190  -33.6290   33.0920 O.2   170  ARG170     -0.2864
     89  CB         2.0820  -34.8860   36.0310 C.3   170  ARG170      0.0334
     90  CG         2.8150  -34.8600   37.3720 C.3   170  ARG170      0.0492
     91  CD         3.1550  -36.2630   37.8670 C.3   170  ARG170      0.2205
     92  NE         1.9560  -37.0870   38.0730 N.pl3 170  ARG170     -0.0865
     93  CZ         1.3230  -37.2480   39.2400 C.cat 170  ARG170      0.5346
     94  NH1        1.7520  -36.6390   40.3430 N.pl3 170  ARG170      0.1354
     95  NH2        0.2430  -38.0180   39.3020 N.pl3 170  ARG170      0.1354
@<TRIPOS>BOND
     1    88    87    2
     2    87    86    1
     3    77    76    2
     4    86    89    1
     5    86    85    1
     6    76    85   am
     7    76    75    1
     8    89    90    1
     9    74    75    1
    10    75    78    1
    11    90    91    1
    12    91    92    1
    13    92    93    2
    14    78    79    1
    15    72    71    2
    16    79    80    1
    17    93    95    1
    18    93    94    1
    19    71    70    1
    20    81    80    1
    21    81    82    2
    22    84    82    1
    23    70    69    1
    24    70    73    1
    25    82    83    1
    26    61    60    2
    27    60    59    1
    28    57    56    1
    29    59    62    1
    30    59    58    1
    31    49    48    2
    32    62    63    1
    33    63    64    1
    34    56    55   ar
    35    56    54   ar
    36    55    53   ar
    37    64    65    1
    38    65    66    2
    39    48    58   am
    40    48    47    1
    41    54    52   ar
    42    53    51   ar
    43    68    66    1
    44    52    51   ar
    45    66    67    1
    46    51    50    1
    47    47    50    1
    48    47    46    1
    49    16    14   am
    50    14    15    2
    51    14    13    1
    52    42    41    2
    53    13    10    1
    54    11    12    2
    55    11    10    1
    56    27    26    1
    57    27    28    1
    58     7     8    1
    59     7     6    1
    60    26    23    1
    61    10     9    1
    62    41    40    1
    63    32    31    2
    64    28    22    1
    65    23    22    1
    66    23    24    1
    67    40    43    1
    68    40    39    1
    69     6     5    1
    70    22    19   am
    71     5     2    1
    72    21    18    1
    73    31    39   am
    74    31    30    1
    75    43    44    1
    76    33    30    1
    77    33    34    1
    78    25    24    2
    79    19    20    2
    80    19    18    1
    81     2     1    1
    82     2     3    1
    83    39    45    1
    84    18    17    1
    85    30    29    1
    86    34    36   ar
    87    34    35   ar
    88    44    45    1
    89    36    38   ar
    90    35    37   ar
    91     3     4    2
    92    38    37   ar
