@<TRIPOS>MOLECULE
tmp/4ownB02.pdb
 90 86 0 0 0
SMALL
GASTEIGER

@<TRIPOS>ATOM
      1  N         10.1280  -23.6280   52.8860 N.3    83  VAL83      -0.1231
      2  CA         9.6450  -24.3230   51.6950 C.3    83  VAL83       0.1692
      3  C          9.4340  -23.3350   50.5720 C.2    83  VAL83       0.2593
      4  O          9.1280  -22.1740   50.8270 O.2    83  VAL83      -0.2718
      5  CB         8.3010  -25.0320   51.9580 C.3    83  VAL83       0.0266
      6  CG1        7.1700  -24.0270   52.1660 C.3    83  VAL83       0.0020
      7  CG2        7.9640  -25.9720   50.8180 C.3    83  VAL83       0.0020
      8  N          9.6090  -23.7890   49.3360 N.am   84  GLY84      -0.1942
      9  CA         9.2900  -22.9710   48.1740 C.3    84  GLY84       0.2014
     10  C          8.3900  -23.6480   47.1570 C.2    84  GLY84       0.2640
     11  O          8.0750  -24.8330   47.2510 O.2    84  GLY84      -0.2714
     12  N          7.9910  -22.8770   46.1620 N.am   85  THR85      -0.1936
     13  CA         7.1750  -23.3900   45.0810 C.3    85  THR85       0.2028
     14  C          7.9650  -24.3330   44.1970 C.2    85  THR85       0.2642
     15  O          7.3760  -25.0800   43.4380 O.2    85  THR85      -0.2714
     16  CB         6.7120  -22.2550   44.1520 C.3    85  THR85       0.1808
     17  OG1        7.8690  -21.5970   43.6140 O.3    85  THR85      -0.2208
     18  CG2        5.8510  -21.2680   44.9020 C.3    85  THR85       0.0379
     19  N          9.2960  -24.2730   44.2660 N.am   86  GLY86      -0.1954
     20  CA        10.1370  -24.9370   43.2750 C.3    86  GLY86       0.1869
     21  C          9.9200  -24.2680   41.9290 C.2    86  GLY86       0.2309
     22  O          9.3430  -23.1730   41.8470 O.2    86  GLY86      -0.2863
     23  N          6.7770  -29.1840   54.9440 N.3   113  HIS113     -0.1226
     24  CA         5.8440  -29.7470   54.0070 C.3   113  HIS113      0.1752
     25  C          6.6870  -29.8790   52.7730 C.2   113  HIS113      0.2597
     26  O          7.5160  -28.9910   52.4710 O.2   113  HIS113     -0.2718
     27  CB         4.7120  -28.7650   53.7500 C.3   113  HIS113      0.0759
     28  CG         3.5450  -29.3470   53.0180 C.ar  113  HIS113      0.0818
     29  ND1        2.7130  -28.5850   52.2200 N.ar  113  HIS113     -0.2268
     30  CD2        3.0710  -30.6150   52.9570 C.ar  113  HIS113      0.1154
     31  CE1        1.7640  -29.3560   51.7190 C.ar  113  HIS113      0.1986
     32  NE2        1.9620  -30.5940   52.1470 N.ar  113  HIS113     -0.2212
     33  N          6.5120  -30.9820   52.0750 N.am  114  GLY114     -0.1942
     34  CA         7.3610  -31.2340   50.9490 C.3   114  GLY114      0.2014
     35  C          6.9470  -32.3910   50.0960 C.2   114  GLY114      0.2639
     36  O          5.9970  -33.1180   50.3790 O.2   114  GLY114     -0.2714
     37  N          7.7260  -32.5640   49.0480 N.am  115  ASN115     -0.1958
     38  CA         7.4390  -33.5470   48.0520 C.3   115  ASN115      0.1819
     39  C          8.7160  -33.9380   47.3120 C.2   115  ASN115      0.2621
     40  O          9.7530  -33.2840   47.4460 O.2   115  ASN115     -0.2715
     41  CB         6.4460  -32.9330   47.0820 C.3   115  ASN115      0.1195
     42  CG         5.6070  -33.9650   46.3880 C.2   115  ASN115      0.2630
     43  OD1        5.9040  -35.1550   46.4150 O.2   115  ASN115     -0.2716
     44  ND2        4.5380  -33.5070   45.7630 N.am  115  ASN115     -0.0877
     45  N          8.6190  -35.0070   46.5340 N.am  116  ARG116     -0.1977
     46  CA         9.6640  -35.3650   45.5790 C.3   116  ARG116      0.1597
     47  C          9.8570  -34.2580   44.5220 C.2   116  ARG116      0.2287
     48  O          9.1880  -33.2110   44.5630 O.2   116  ARG116     -0.2864
     49  CB         9.3400  -36.7240   44.9410 C.3   116  ARG116      0.0334
     50  CG         9.2430  -37.8150   45.9960 C.3   116  ARG116      0.0492
     51  CD         9.2700  -39.2210   45.4330 C.3   116  ARG116      0.2205
     52  NE         9.9740  -40.1240   46.3520 N.pl3 116  ARG116     -0.0865
     53  CZ         9.4280  -41.0780   47.1120 C.cat 116  ARG116      0.5346
     54  NH1        8.1190  -41.3390   47.1170 N.pl3 116  ARG116      0.1354
     55  NH2       10.2130  -41.7910   47.8990 N.pl3 116  ARG116      0.1354
     56  N          3.5980  -34.7110   51.1230 N.3   155  ALA155     -0.1245
     57  CA         2.3610  -34.2040   50.5250 C.3   155  ALA155      0.1562
     58  C          1.3730  -35.2870   50.0720 C.2   155  ALA155      0.2260
     59  O          0.1980  -35.2090   50.4240 O.2   155  ALA155     -0.2867
     60  CB         2.6610  -33.2110   49.4110 C.3   155  ALA155      0.0290
     61  N         -1.6100  -31.6610   36.6740 N.3   169  ARG169     -0.1245
     62  CA        -0.4150  -30.8050   36.6930 C.3   169  ARG169      0.1563
     63  C          0.7240  -31.4380   35.8900 C.2   169  ARG169      0.2260
     64  O          1.4080  -30.7650   35.1340 O.2   169  ARG169     -0.2867
     65  CB         0.0600  -30.5310   38.1200 C.3   169  ARG169      0.0307
     66  CG        -0.7700  -29.4990   38.8920 C.3   169  ARG169      0.0489
     67  CD        -0.0260  -28.9580   40.1310 C.3   169  ARG169      0.2205
     68  NE         1.4080  -28.7720   39.8800 N.pl3 169  ARG169     -0.0865
     69  CZ         2.3570  -28.6810   40.8160 C.cat 169  ARG169      0.5346
     70  NH1        2.0630  -28.7190   42.1160 N.pl3 169  ARG169      0.1354
     71  NH2        3.6260  -28.5390   40.4410 N.pl3 169  ARG169      0.1354
     72  N          0.8050  -24.4280   41.4040 N.3   179  ASN179     -0.1240
     73  CA         2.1630  -24.4620   41.9300 C.3   179  ASN179      0.1653
     74  C          2.3380  -23.6570   43.2030 C.2   179  ASN179      0.2266
     75  O          3.3040  -23.8510   43.8890 O.2   179  ASN179     -0.2867
     76  CB         3.1750  -23.9760   40.8910 C.3   179  ASN179      0.1155
     77  CG         3.2040  -24.8480   39.6530 C.2   179  ASN179      0.2627
     78  OD1        2.1860  -25.0720   38.9980 O.2   179  ASN179     -0.2716
     79  ND2        4.3710  -25.3360   39.3210 N.am  179  ASN179     -0.0877
     80  N          1.3830  -25.7560   47.5070 N.3   182  GLY182     -0.1210
     81  CA         2.2020  -26.5480   48.4520 C.3   182  GLY182      0.1940
     82  C          2.5490  -25.7840   49.7240 C.2   182  GLY182      0.2453
     83  O          2.1750  -26.1820   50.8340 O.2   182  GLY182     -0.2732
     84  N          3.2420  -24.6510   49.5740 N.am  183  PRO183     -0.2728
     85  CA         3.5810  -23.8000   50.7080 C.3   183  PRO183      0.1401
     86  C          2.3770  -23.3090   51.5140 C.2   183  PRO183      0.2269
     87  O          2.5030  -23.0510   52.7070 O.2   183  PRO183     -0.2865
     88  CB         4.2990  -22.6180   50.0480 C.3   183  PRO183      0.0296
     89  CG         4.8110  -23.1410   48.7720 C.3   183  PRO183      0.0237
     90  CD         3.7790  -24.1140   48.3090 C.3   183  PRO183      0.0939
@<TRIPOS>BOND
     1    64    63    2
     2    63    62    1
     3    61    62    1
     4    62    65    1
     5    65    66    1
     6    66    67    1
     7    78    77    2
     8    79    77   am
     9    77    76    1
    10    68    67    1
    11    68    69    2
    12    71    69    1
    13    69    70    1
    14    76    73    1
    15    72    73    1
    16    22    21    2
    17    21    20    1
    18    73    74    1
    19    74    75    2
    20    20    19    1
    21    15    14    2
    22    17    16    1
    23    16    18    1
    24    16    13    1
    25    14    19   am
    26    14    13    1
    27    47    48    2
    28    47    46    1
    29    49    46    1
    30    49    50    1
    31    13    12    1
    32    51    50    1
    33    51    52    1
    34    46    45    1
    35    44    42   am
    36    12    10   am
    37    52    53    2
    38    42    43    2
    39    42    41    1
    40    45    39   am
    41    41    38    1
    42    53    54    1
    43    53    55    1
    44    10    11    2
    45    10     9    1
    46    39    40    2
    47    39    38    1
    48    80    81    1
    49    38    37    1
    50     9     8    1
    51    90    89    1
    52    90    84    1
    53    81    82    1
    54    89    88    1
    55    37    35   am
    56     8     3   am
    57    60    57    1
    58    84    82   am
    59    84    85    1
    60    82    83    2
    61    88    85    1
    62    58    59    2
    63    58    57    1
    64    35    36    2
    65    35    34    1
    66    57    56    1
    67     3     4    2
    68     3     2    1
    69    85    86    1
    70     7     5    1
    71    34    33    1
    72    86    87    2
    73     2     5    1
    74     2     1    1
    75    31    32   ar
    76    31    29   ar
    77     5     6    1
    78    33    25   am
    79    32    30   ar
    80    29    28   ar
    81    26    25    2
    82    25    24    1
    83    30    28   ar
    84    28    27    1
    85    27    24    1
    86    24    23    1
