@<TRIPOS>MOLECULE
tmp/4owoB02.pdb
 120 115 0 0 0
SMALL
GASTEIGER

@<TRIPOS>ATOM
      1  N         -8.3460  -26.8190   50.2290 N.3    63  MET63      -0.1245
      2  CA        -7.3510  -27.8890   50.2130 C.3    63  MET63       0.1570
      3  C         -7.0130  -28.3700   51.6240 C.2    63  MET63       0.2261
      4  O         -7.0650  -29.5800   51.9120 O.2    63  MET63      -0.2867
      5  CB        -6.0790  -27.4060   49.5130 C.3    63  MET63       0.0387
      6  CG        -5.0450  -28.4990   49.3180 C.3    63  MET63       0.0595
      7  SD        -3.9550  -28.0050   47.9720 S.3    63  MET63      -0.1393
      8  CE        -2.6480  -29.1970   48.2550 C.3    63  MET63       0.0692
      9  N         10.4010  -23.7130   53.0360 N.3    83  VAL83      -0.1231
     10  CA         9.9070  -24.4500   51.8600 C.3    83  VAL83       0.1692
     11  C          9.6600  -23.4570   50.7600 C.2    83  VAL83       0.2593
     12  O          9.3630  -22.3080   51.0430 O.2    83  VAL83      -0.2718
     13  CB         8.6040  -25.2220   52.1670 C.3    83  VAL83       0.0266
     14  CG1        7.4300  -24.2810   52.4110 C.3    83  VAL83       0.0020
     15  CG2        8.2530  -26.1810   51.0440 C.3    83  VAL83       0.0020
     16  N          9.8240  -23.8730   49.5080 N.am   84  GLY84      -0.1942
     17  CA         9.4460  -23.0070   48.3810 C.3    84  GLY84       0.2014
     18  C          8.6320  -23.7350   47.3390 C.2    84  GLY84       0.2640
     19  O          8.3890  -24.9340   47.4480 O.2    84  GLY84      -0.2714
     20  N          8.2400  -22.9940   46.3130 N.am   85  THR85      -0.1936
     21  CA         7.4740  -23.5320   45.2040 C.3    85  THR85       0.2028
     22  C          8.2670  -24.5560   44.4060 C.2    85  THR85       0.2642
     23  O          7.6780  -25.4420   43.7610 O.2    85  THR85      -0.2714
     24  CB         7.0620  -22.4130   44.2160 C.3    85  THR85       0.1808
     25  OG1        8.2210  -21.6850   43.7960 O.3    85  THR85      -0.2208
     26  CG2        6.0890  -21.4680   44.8600 C.3    85  THR85       0.0379
     27  N          9.5950  -24.4370   44.4410 N.am   86  GLY86      -0.1954
     28  CA        10.4340  -25.0820   43.4430 C.3    86  GLY86       0.1869
     29  C         10.1510  -24.4220   42.1030 C.2    86  GLY86       0.2309
     30  O          9.5590  -23.3420   42.0500 O.2    86  GLY86      -0.2863
     31  N          7.0970  -28.8220   55.3010 N.3   113  HIS113     -0.1226
     32  CA         6.2510  -29.4080   54.2740 C.3   113  HIS113      0.1752
     33  C          7.1830  -29.5490   53.0940 C.2   113  HIS113      0.2597
     34  O          8.1290  -28.7350   52.9260 O.2   113  HIS113     -0.2718
     35  CB         5.1030  -28.4570   53.9380 C.3   113  HIS113      0.0759
     36  CG         3.9440  -29.0850   53.2060 C.ar  113  HIS113      0.0818
     37  ND1        3.0490  -28.3270   52.4750 N.ar  113  HIS113     -0.2268
     38  CD2        3.5030  -30.3690   53.1180 C.ar  113  HIS113      0.1154
     39  CE1        2.1080  -29.1120   51.9740 C.ar  113  HIS113      0.1986
     40  NE2        2.3580  -30.3540   52.3440 N.ar  113  HIS113     -0.2212
     41  N          6.9620  -30.5800   52.2970 N.am  114  GLY114     -0.1942
     42  CA         7.8130  -30.7900   51.1370 C.3   114  GLY114      0.2014
     43  C          7.3420  -31.9250   50.2630 C.2   114  GLY114      0.2639
     44  O          6.3360  -32.5720   50.5510 O.2   114  GLY114     -0.2714
     45  N          8.1150  -32.1840   49.2180 N.am  115  ASN115     -0.1958
     46  CA         7.7630  -33.1900   48.2350 C.3   115  ASN115      0.1819
     47  C          9.0230  -33.5660   47.4830 C.2   115  ASN115      0.2621
     48  O         10.0760  -32.9480   47.6690 O.2   115  ASN115     -0.2715
     49  CB         6.7330  -32.5930   47.2630 C.3   115  ASN115      0.1195
     50  CG         5.8830  -33.6420   46.5870 C.2   115  ASN115      0.2630
     51  OD1        6.1620  -34.8400   46.6600 O.2   115  ASN115     -0.2716
     52  ND2        4.8160  -33.1920   45.9420 N.am  115  ASN115     -0.0877
     53  N          8.9250  -34.5840   46.6440 N.am  116  ARG116     -0.1977
     54  CA        10.0150  -34.9310   45.7360 C.3   116  ARG116      0.1597
     55  C         10.2280  -33.8480   44.6730 C.2   116  ARG116      0.2287
     56  O          9.4220  -32.9040   44.5560 O.2   116  ARG116     -0.2864
     57  CB         9.7230  -36.2770   45.0700 C.3   116  ARG116      0.0334
     58  CG         9.6260  -37.4120   46.0750 C.3   116  ARG116      0.0492
     59  CD         9.5420  -38.7500   45.3660 C.3   116  ARG116      0.2205
     60  NE         9.3990  -39.8670   46.3030 N.pl3 116  ARG116     -0.0865
     61  CZ        10.3890  -40.4940   46.9240 C.cat 116  ARG116      0.5346
     62  NH1       11.6520  -40.1160   46.7480 N.pl3 116  ARG116      0.1354
     63  NH2       10.1140  -41.5040   47.7480 N.pl3 116  ARG116      0.1354
     64  N          3.9520  -34.2630   51.3250 N.3   156  ALA156     -0.1245
     65  CA         2.6800  -33.7740   50.7960 C.3   156  ALA156      0.1562
     66  C          1.7340  -34.8750   50.3000 C.2   156  ALA156      0.2260
     67  O          0.5610  -34.8530   50.6500 O.2   156  ALA156     -0.2867
     68  CB         2.9120  -32.6940   49.7340 C.3   156  ALA156      0.0290
     69  N         -2.0820  -34.9750   51.7160 N.3   160  HIS160     -0.1241
     70  CA        -3.0750  -34.4200   50.7830 C.3   160  HIS160      0.1621
     71  C         -3.5250  -35.4160   49.7120 C.2   160  HIS160      0.2264
     72  O         -3.4490  -35.1100   48.5240 O.2   160  HIS160     -0.2867
     73  CB        -2.4700  -33.2200   50.0770 C.3   160  HIS160      0.0745
     74  CG        -2.0670  -32.1170   50.9950 C.ar  160  HIS160      0.0817
     75  ND1       -2.9800  -31.2790   51.5960 N.ar  160  HIS160     -0.2268
     76  CD2       -0.8430  -31.6980   51.3980 C.ar  160  HIS160      0.1154
     77  CE1       -2.3320  -30.4030   52.3470 C.ar  160  HIS160      0.1986
     78  NE2       -1.0370  -30.6410   52.2460 N.ar  160  HIS160     -0.2212
     79  N         -5.7640  -34.3470   46.6940 N.3   163  TYR163     -0.1241
     80  CA        -5.1760  -33.4670   45.6880 C.3   163  TYR163      0.1605
     81  C         -4.6390  -34.2290   44.4920 C.2   163  TYR163      0.2264
     82  O         -4.1220  -33.6370   43.5600 O.2   163  TYR163     -0.2867
     83  CB        -4.0240  -32.6840   46.3280 C.3   163  TYR163      0.0534
     84  CG        -3.4470  -31.5540   45.5040 C.ar  163  TYR163     -0.0201
     85  CD1       -4.1720  -30.3970   45.2750 C.ar  163  TYR163     -0.0009
     86  CD2       -2.1580  -31.6280   44.9920 C.ar  163  TYR163     -0.0009
     87  CE1       -3.6380  -29.3570   44.5340 C.ar  163  TYR163      0.0417
     88  CE2       -1.6150  -30.6040   44.2430 C.ar  163  TYR163      0.0417
     89  CZ        -2.3580  -29.4670   44.0090 C.ar  163  TYR163      0.1957
     90  OH        -1.8100  -28.4260   43.2680 O.3   163  TYR163     -0.2866
     91  N         -1.3950  -31.2210   36.8060 N.3   170  ARG170     -0.1245
     92  CA        -0.1780  -30.4230   36.8410 C.3   170  ARG170      0.1563
     93  C          0.9550  -31.1040   36.0560 C.2   170  ARG170      0.2260
     94  O          1.6440  -30.4510   35.2900 O.2   170  ARG170     -0.2867
     95  CB         0.2420  -30.1140   38.2800 C.3   170  ARG170      0.0307
     96  CG         1.6440  -29.5430   38.3970 C.3   170  ARG170      0.0489
     97  CD         1.9930  -29.0370   39.8060 C.3   170  ARG170      0.2205
     98  NE         3.4500  -28.8820   39.9310 N.pl3 170  ARG170     -0.0865
     99  CZ         4.0980  -28.5610   41.0520 C.cat 170  ARG170      0.5346
    100  NH1        5.4290  -28.4850   41.0320 N.pl3 170  ARG170      0.1354
    101  NH2        3.4410  -28.3450   42.1890 N.pl3 170  ARG170      0.1354
    102  N          0.9890  -24.3020   41.4490 N.3   180  ASN180     -0.1240
    103  CA         2.3580  -24.4030   41.9520 C.3   180  ASN180      0.1653
    104  C          2.5440  -23.6200   43.2590 C.2   180  ASN180      0.2266
    105  O          3.4940  -23.8660   43.9840 O.2   180  ASN180     -0.2867
    106  CB         3.3840  -23.9280   40.9110 C.3   180  ASN180      0.1155
    107  CG         3.4470  -24.8230   39.6910 C.2   180  ASN180      0.2627
    108  OD1        2.4380  -25.0580   39.0200 O.2   180  ASN180     -0.2716
    109  ND2        4.6480  -25.3060   39.3720 N.am  180  ASN180     -0.0877
    110  N          1.4640  -25.8330   47.4930 N.3   183  GLY183     -0.1210
    111  CA         2.2760  -26.6300   48.4290 C.3   183  GLY183      0.1940
    112  C          2.7030  -25.8200   49.6430 C.2   183  GLY183      0.2453
    113  O          2.3610  -26.1380   50.8020 O.2   183  GLY183     -0.2732
    114  N          3.4340  -24.7480   49.3970 N.am  184  PRO184     -0.2728
    115  CA         3.8720  -23.8980   50.4870 C.3   184  PRO184      0.1401
    116  C          2.7340  -23.3050   51.3300 C.2   184  PRO184      0.2269
    117  O          2.9420  -23.0020   52.5150 O.2   184  PRO184     -0.2865
    118  CB         4.6790  -22.8030   49.7720 C.3   184  PRO184      0.0296
    119  CG         5.1180  -23.4080   48.5050 C.3   184  PRO184      0.0237
    120  CD         4.0250  -24.3520   48.1030 C.3   184  PRO184      0.0939
@<TRIPOS>BOND
     1    94    93    2
     2    93    92    1
     3    91    92    1
     4    92    95    1
     5    95    96    1
     6    96    97    1
     7   108   107    2
     8   109   107   am
     9   107   106    1
    10    97    98    1
    11    98    99    2
    12   106   103    1
    13   100    99    1
    14    99   101    1
    15   102   103    1
    16   103   104    1
    17    30    29    2
    18    29    28    1
    19   104   105    2
    20    90    89    1
    21    28    27    1
    22    82    81    2
    23    23    22    2
    24    25    24    1
    25    89    88   ar
    26    89    87   ar
    27    24    26    1
    28    24    21    1
    29    88    86   ar
    30    22    27   am
    31    22    21    1
    32    81    80    1
    33    87    85   ar
    34    56    55    2
    35    55    54    1
    36    86    84   ar
    37    57    54    1
    38    57    58    1
    39    21    20    1
    40    85    84   ar
    41    59    58    1
    42    59    60    1
    43    84    83    1
    44    80    83    1
    45    80    79    1
    46    54    53    1
    47    52    50   am
    48    60    61    2
    49    20    18   am
    50    50    51    2
    51    50    49    1
    52    53    47   am
    53    62    61    1
    54    61    63    1
    55    49    46    1
    56    18    19    2
    57    18    17    1
    58    47    48    2
    59    47    46    1
    60   110   111    1
    61     7     8    1
    62     7     6    1
    63   120   119    1
    64   120   114    1
    65    46    45    1
    66    17    16    1
    67   111   112    1
    68   119   118    1
    69    72    71    2
    70    45    43   am
    71     6     5    1
    72   114   112   am
    73   114   115    1
    74    16    11   am
    75     5     2    1
    76   112   113    2
    77    71    70    1
    78    68    65    1
    79   118   115    1
    80    73    70    1
    81    73    74    1
    82     2     1    1
    83     2     3    1
    84    43    44    2
    85    43    42    1
    86    66    67    2
    87    66    65    1
    88   115   116    1
    89    11    12    2
    90    11    10    1
    91    70    69    1
    92    65    64    1
    93    74    76   ar
    94    74    75   ar
    95    15    13    1
    96    42    41    1
    97   116   117    2
    98    76    78   ar
    99    75    77   ar
   100     3     4    2
   101    10    13    1
   102    10     9    1
   103    39    40   ar
   104    39    37   ar
   105    13    14    1
   106    78    77   ar
   107    41    33   am
   108    40    38   ar
   109    37    36   ar
   110    34    33    2
   111    33    32    1
   112    38    36   ar
   113    36    35    1
   114    35    32    1
   115    32    31    1
