@<TRIPOS>MOLECULE
tmp/4owoB00.pdb
 175 169 0 0 0
SMALL
GASTEIGER

@<TRIPOS>ATOM
      1  N         10.4010  -23.7130   53.0360 N.3    83  VAL83      -0.1231
      2  CA         9.9070  -24.4500   51.8600 C.3    83  VAL83       0.1692
      3  C          9.6600  -23.4570   50.7600 C.2    83  VAL83       0.2593
      4  O          9.3630  -22.3080   51.0430 O.2    83  VAL83      -0.2718
      5  CB         8.6040  -25.2220   52.1670 C.3    83  VAL83       0.0266
      6  CG1        7.4300  -24.2810   52.4110 C.3    83  VAL83       0.0020
      7  CG2        8.2530  -26.1810   51.0440 C.3    83  VAL83       0.0020
      8  N          9.8240  -23.8730   49.5080 N.am   84  GLY84      -0.1942
      9  CA         9.4460  -23.0070   48.3810 C.3    84  GLY84       0.2014
     10  C          8.6320  -23.7350   47.3390 C.2    84  GLY84       0.2640
     11  O          8.3890  -24.9340   47.4480 O.2    84  GLY84      -0.2714
     12  N          8.2400  -22.9940   46.3130 N.am   85  THR85      -0.1936
     13  CA         7.4740  -23.5320   45.2040 C.3    85  THR85       0.2028
     14  C          8.2670  -24.5560   44.4060 C.2    85  THR85       0.2643
     15  O          7.6780  -25.4420   43.7610 O.2    85  THR85      -0.2714
     16  CB         7.0620  -22.4130   44.2160 C.3    85  THR85       0.1808
     17  OG1        8.2210  -21.6850   43.7960 O.3    85  THR85      -0.2208
     18  CG2        6.0890  -21.4680   44.8600 C.3    85  THR85       0.0379
     19  N          9.5950  -24.4370   44.4410 N.am   86  GLY86      -0.1939
     20  CA        10.4340  -25.0820   43.4430 C.3    86  GLY86       0.2014
     21  C         10.1510  -24.4220   42.1030 C.2    86  GLY86       0.2639
     22  O          9.5590  -23.3420   42.0500 O.2    86  GLY86      -0.2714
     23  N         10.5830  -25.0650   41.0190 N.am   87  GLY87      -0.1939
     24  CA        10.3300  -24.5540   39.6760 C.3    87  GLY87       0.2014
     25  C         11.2270  -23.4090   39.2470 C.2    87  GLY87       0.2639
     26  O         10.9200  -22.7160   38.2790 O.2    87  GLY87      -0.2714
     27  N         12.3400  -23.1950   39.9440 N.am   88  ASP88      -0.1957
     28  CA        13.2300  -22.0930   39.5650 C.3    88  ASP88       0.1840
     29  C         14.1630  -22.4850   38.4150 C.2    88  ASP88       0.2622
     30  O         14.8720  -21.6440   37.8880 O.2    88  ASP88      -0.2715
     31  CB        13.9910  -21.5110   40.7730 C.3    88  ASP88       0.1450
     32  CG        15.0610  -22.4430   41.3400 C.2    88  ASP88       0.3671
     33  OD1       15.4180  -23.4560   40.7070 O.co2  88  ASP88      -0.2456
     34  OD2       15.5650  -22.1360   42.4410 O.co2  88  ASP88      -0.2456
     35  N         14.1620  -23.7620   38.0460 N.am   89  GLY89      -0.1954
     36  CA        14.9230  -24.2450   36.9000 C.3    89  GLY89       0.1869
     37  C         16.4270  -24.0680   37.0040 C.2    89  GLY89       0.2309
     38  O         17.1110  -24.1190   35.9920 O.2    89  GLY89      -0.2863
     39  N         21.7460  -27.2940   45.1630 N.3    93  VAL93      -0.1231
     40  CA        21.6430  -28.1060   46.3720 C.3    93  VAL93       0.1692
     41  C         20.3450  -27.7200   47.1130 C.2    93  VAL93       0.2592
     42  O         19.7200  -26.6890   46.8110 O.2    93  VAL93      -0.2718
     43  CB        22.8640  -27.9200   47.2880 C.3    93  VAL93       0.0266
     44  CG1       24.1330  -28.4690   46.6300 C.3    93  VAL93       0.0020
     45  CG2       23.0330  -26.4570   47.6700 C.3    93  VAL93       0.0020
     46  N         19.9420  -28.5470   48.0760 N.am   94  ASN94      -0.1960
     47  CA        18.6320  -28.4100   48.7310 C.3    94  ASN94       0.1819
     48  C         18.7190  -27.4020   49.8750 C.2    94  ASN94       0.2621
     49  O         18.8520  -27.7560   51.0660 O.2    94  ASN94      -0.2715
     50  CB        18.1440  -29.7740   49.2090 C.3    94  ASN94       0.1195
     51  CG        17.9090  -30.7460   48.0550 C.2    94  ASN94       0.2630
     52  OD1       18.6710  -31.7060   47.8600 O.2    94  ASN94      -0.2716
     53  ND2       16.8550  -30.4980   47.2840 N.am   94  ASN94      -0.0877
     54  N         18.6650  -26.1290   49.4970 N.am   95  LEU95      -0.1963
     55  CA        18.9030  -25.0530   50.4320 C.3    95  LEU95       0.1728
     56  C         17.8450  -24.9840   51.5150 C.2    95  LEU95       0.2617
     57  O         18.1950  -24.7900   52.6750 O.2    95  LEU95      -0.2715
     58  CB        19.0320  -23.7230   49.6920 C.3    95  LEU95       0.0311
     59  CG        20.2260  -23.6160   48.7420 C.3    95  LEU95       0.0022
     60  CD1       20.1900  -22.2890   47.9900 C.3    95  LEU95       0.0001
     61  CD2       21.5390  -23.7190   49.5000 C.3    95  LEU95       0.0001
     62  N         16.5640  -25.1610   51.1720 N.am   96  SER96      -0.1936
     63  CA        15.5110  -25.0970   52.2020 C.3    96  SER96       0.2055
     64  C         15.6430  -26.2300   53.2080 C.2    96  SER96       0.2643
     65  O         15.4520  -26.0280   54.4000 O.2    96  SER96      -0.2714
     66  CB        14.1150  -25.1660   51.5920 C.3    96  SER96       0.2130
     67  OG        13.9350  -24.1260   50.6610 O.3    96  SER96      -0.2179
     68  N         15.9610  -27.4230   52.7190 N.am   97  THR97      -0.1950
     69  CA        16.1330  -28.5720   53.5860 C.3    97  THR97       0.1897
     70  C         17.3100  -28.4350   54.5480 C.2    97  THR97       0.2313
     71  O         17.1710  -28.7010   55.7570 O.2    97  THR97      -0.2863
     72  CB        16.2380  -29.8690   52.7590 C.3    97  THR97       0.1794
     73  OG1       15.0320  -30.0240   51.9930 O.3    97  THR97      -0.2208
     74  CG2       16.3780  -31.0760   53.6690 C.3    97  THR97       0.0378
     75  N          8.3050  -29.0810   58.6120 N.3   112  LYS112     -0.1231
     76  CA         8.5750  -28.7940   57.2240 C.3   112  LYS112      0.1693
     77  C          7.6310  -29.5480   56.2780 C.2   112  LYS112      0.2592
     78  O          7.3570  -30.7410   56.4540 O.2   112  LYS112     -0.2718
     79  CB        10.0320  -29.0890   56.8860 C.3   112  LYS112      0.0285
     80  CG        10.3230  -28.9260   55.4070 C.3   112  LYS112      0.0035
     81  CD        11.7880  -28.8200   55.0720 C.3   112  LYS112      0.0206
     82  CE        12.0170  -28.8590   53.5690 C.3   112  LYS112      0.1093
     83  NZ        11.0530  -28.0290   52.8010 N.3   112  LYS112     -0.1314
     84  N          7.0970  -28.8220   55.3010 N.am  113  HIS113     -0.1962
     85  CA         6.2510  -29.4080   54.2740 C.3   113  HIS113      0.1787
     86  C          7.1830  -29.5490   53.0940 C.2   113  HIS113      0.2621
     87  O          8.1290  -28.7350   52.9260 O.2   113  HIS113     -0.2715
     88  CB         5.1030  -28.4570   53.9380 C.3   113  HIS113      0.0785
     89  CG         3.9440  -29.0850   53.2060 C.ar  113  HIS113      0.0821
     90  ND1        3.0490  -28.3270   52.4750 N.ar  113  HIS113     -0.2267
     91  CD2        3.5030  -30.3690   53.1180 C.ar  113  HIS113      0.1154
     92  CE1        2.1080  -29.1120   51.9740 C.ar  113  HIS113      0.1986
     93  NE2        2.3580  -30.3540   52.3440 N.ar  113  HIS113     -0.2212
     94  N          6.9620  -30.5800   52.2970 N.am  114  GLY114     -0.1940
     95  CA         7.8130  -30.7900   51.1370 C.3   114  GLY114      0.2014
     96  C          7.3420  -31.9250   50.2630 C.2   114  GLY114      0.2639
     97  O          6.3360  -32.5720   50.5510 O.2   114  GLY114     -0.2714
     98  N          8.1150  -32.1840   49.2180 N.am  115  ASN115     -0.1958
     99  CA         7.7630  -33.1900   48.2350 C.3   115  ASN115      0.1819
    100  C          9.0230  -33.5660   47.4830 C.2   115  ASN115      0.2621
    101  O         10.0760  -32.9480   47.6690 O.2   115  ASN115     -0.2715
    102  CB         6.7330  -32.5930   47.2630 C.3   115  ASN115      0.1195
    103  CG         5.8830  -33.6420   46.5870 C.2   115  ASN115      0.2630
    104  OD1        6.1620  -34.8400   46.6600 O.2   115  ASN115     -0.2716
    105  ND2        4.8160  -33.1920   45.9420 N.am  115  ASN115     -0.0877
    106  N          8.9250  -34.5840   46.6440 N.am  116  ARG116     -0.1977
    107  CA        10.0150  -34.9310   45.7360 C.3   116  ARG116      0.1597
    108  C         10.2280  -33.8480   44.6730 C.2   116  ARG116      0.2287
    109  O          9.4220  -32.9040   44.5560 O.2   116  ARG116     -0.2864
    110  CB         9.7230  -36.2770   45.0700 C.3   116  ARG116      0.0334
    111  CG         9.6260  -37.4120   46.0750 C.3   116  ARG116      0.0492
    112  CD         9.5420  -38.7500   45.3660 C.3   116  ARG116      0.2205
    113  NE         9.3990  -39.8670   46.3030 N.pl3 116  ARG116     -0.0865
    114  CZ        10.3890  -40.4940   46.9240 C.cat 116  ARG116      0.5346
    115  NH1       11.6520  -40.1160   46.7480 N.pl3 116  ARG116      0.1354
    116  NH2       10.1140  -41.5040   47.7480 N.pl3 116  ARG116      0.1354
    117  N         10.1470  -32.0800   41.0880 N.3   118  ALA118     -0.1231
    118  CA         9.2740  -32.0670   39.9280 C.3   118  ALA118      0.1694
    119  C         10.1070  -31.8900   38.6510 C.2   118  ALA118      0.2593
    120  O          9.8830  -32.5990   37.6740 O.2   118  ALA118     -0.2718
    121  CB         8.2360  -30.9610   40.0550 C.3   118  ALA118      0.0304
    122  N         11.0580  -30.9550   38.6500 N.am  119  SER119     -0.1938
    123  CA        11.9670  -30.7660   37.4900 C.3   119  SER119      0.2055
    124  C         13.4620  -30.8610   37.8480 C.2   119  SER119      0.2643
    125  O         14.2920  -31.2400   37.0160 O.2   119  SER119     -0.2714
    126  CB        11.6640  -29.4330   36.7760 C.3   119  SER119      0.2130
    127  OG        11.5090  -28.3590   37.6980 O.3   119  SER119     -0.2179
    128  N         13.8090  -30.5290   39.0860 N.am  120  SER120     -0.1949
    129  CA        15.1820  -30.6410   39.5440 C.3   120  SER120      0.1924
    130  C         15.5980  -32.1200   39.6730 C.2   120  SER120      0.2314
    131  O         14.7610  -33.0310   39.6180 O.2   120  SER120     -0.2863
    132  CB        15.3350  -29.9130   40.8790 C.3   120  SER120      0.2116
    133  OG        14.5450  -30.5600   41.8640 O.3   120  SER120     -0.2180
    134  N         17.0420  -33.6200   42.3660 N.3   122  SER122     -0.1202
    135  CA        16.7010  -34.1750   43.6780 C.3   122  SER122      0.2020
    136  C         16.0200  -33.1080   44.5430 C.2   122  SER122      0.2619
    137  O         16.6170  -32.0850   44.8550 O.2   122  SER122     -0.2717
    138  CB        17.9580  -34.6870   44.3760 C.3   122  SER122      0.2103
    139  OG        17.6310  -35.4030   45.5600 O.3   122  SER122     -0.2182
    140  N         14.7710  -33.3520   44.9190 N.am  123  GLY123     -0.1942
    141  CA        14.0450  -32.4330   45.7940 C.3   123  GLY123      0.2014
    142  C         14.3270  -32.6660   47.2690 C.2   123  GLY123      0.2639
    143  O         15.0420  -33.5930   47.6370 O.2   123  GLY123     -0.2714
    144  N         13.7330  -31.8470   48.1310 N.am  124  GLY124     -0.1954
    145  CA        13.9950  -31.9680   49.5610 C.3   124  GLY124      0.1869
    146  C         13.7430  -33.3790   50.0560 C.2   124  GLY124      0.2309
    147  O         14.5730  -33.9780   50.7420 O.2   124  GLY124     -0.2863
    148  N         -1.3950  -31.2210   36.8060 N.3   170  ARG170     -0.1245
    149  CA        -0.1780  -30.4230   36.8410 C.3   170  ARG170      0.1563
    150  C          0.9550  -31.1040   36.0560 C.2   170  ARG170      0.2260
    151  O          1.6440  -30.4510   35.2900 O.2   170  ARG170     -0.2867
    152  CB         0.2420  -30.1140   38.2800 C.3   170  ARG170      0.0307
    153  CG         1.6440  -29.5430   38.3970 C.3   170  ARG170      0.0489
    154  CD         1.9930  -29.0370   39.8060 C.3   170  ARG170      0.2205
    155  NE         3.4500  -28.8820   39.9310 N.pl3 170  ARG170     -0.0865
    156  CZ         4.0980  -28.5610   41.0520 C.cat 170  ARG170      0.5346
    157  NH1        5.4290  -28.4850   41.0320 N.pl3 170  ARG170      0.1354
    158  NH2        3.4410  -28.3450   42.1890 N.pl3 170  ARG170      0.1354
    159  N         14.1790  -19.5650   44.1420 N.3   228  ASP228     -0.1225
    160  CA        13.1200  -19.5900   45.1590 C.3   228  ASP228      0.1805
    161  C         13.7320  -19.7410   46.5650 C.2   228  ASP228      0.2597
    162  O         13.2710  -20.5400   47.3870 O.2   228  ASP228     -0.2718
    163  CB        12.0830  -20.7050   44.8630 C.3   228  ASP228      0.1424
    164  CG        12.6320  -22.1190   45.0770 C.2   228  ASP228      0.3668
    165  OD1       13.8320  -22.3210   44.8600 O.co2 228  ASP228     -0.2456
    166  OD2       11.8640  -23.0220   45.4670 O.co2 228  ASP228     -0.2456
    167  N         14.7950  -18.9880   46.8120 N.am  229  GLU229     -0.1979
    168  CA        15.5200  -18.9870   48.0880 C.3   229  GLU229      0.1602
    169  C         16.1480  -17.6000   48.2300 C.2   229  GLU229      0.2287
    170  O         16.1970  -16.8280   47.2650 O.2   229  GLU229     -0.2864
    171  CB        16.6580  -20.0220   48.1300 C.3   229  GLU229      0.0415
    172  CG        16.3920  -21.3920   47.5160 C.3   229  GLU229      0.1163
    173  CD        15.6180  -22.3670   48.4020 C.2   229  GLU229      0.3649
    174  OE1       15.5130  -22.1780   49.6380 O.co2 229  GLU229     -0.2457
    175  OE2       15.1040  -23.3610   47.8390 O.co2 229  GLU229     -0.2457
@<TRIPOS>BOND
     1   151   150    2
     2    38    37    2
     3   150   149    1
     4   126   123    1
     5   126   127    1
     6   148   149    1
     7   149   152    1
     8    36    37    1
     9    36    35    1
    10   125   124    2
    11   123   124    1
    12   123   122    1
    13   120   119    2
    14   124   128   am
    15    30    29    2
    16    35    29   am
    17    26    25    2
    18   152   153    1
    19   153   154    1
    20    29    28    1
    21   122   119   am
    22   119   118    1
    23   128   129    1
    24    25    24    1
    25    25    27   am
    26   129   130    1
    27   129   132    1
    28    28    27    1
    29    28    31    1
    30   131   130    2
    31    24    23    1
    32   154   155    1
    33   118   121    1
    34   118   117    1
    35   155   156    2
    36    33    32   ar
    37    31    32    1
    38   132   133    1
    39    23    21   am
    40   157   156    1
    41   156   158    1
    42    32    34   ar
    43    22    21    2
    44    21    20    1
    45   134   135    1
    46    20    19    1
    47   135   138    1
    48   135   136    1
    49    15    14    2
    50    17    16    1
    51   159   160    1
    52    16    18    1
    53    16    13    1
    54   138   139    1
    55    14    19   am
    56    14    13    1
    57   136   137    2
    58   136   140   am
    59   109   108    2
    60   108   107    1
    61   165   164   ar
    62   163   164    1
    63   163   160    1
    64   140   141    1
    65   110   107    1
    66   110   111    1
    67   164   166   ar
    68   160   161    1
    69    39    40    1
    70    13    12    1
    71   112   111    1
    72   112   113    1
    73   107   106    1
    74   141   142    1
    75   105   103   am
    76   113   114    2
    77    12    10   am
    78    40    41    1
    79    40    43    1
    80   161   167   am
    81   161   162    2
    82   103   104    2
    83   103   102    1
    84    44    43    1
    85   106   100   am
    86   115   114    1
    87    42    41    2
    88   167   168    1
    89   114   116    1
    90    41    46   am
    91   102    99    1
    92   170   169    2
    93   142   143    2
    94   142   144   am
    95    53    51   am
    96    43    45    1
    97    10    11    2
    98    10     9    1
    99   100   101    2
   100   100    99    1
   101   172   171    1
   102   172   173    1
   103   175   173   ar
   104    52    51    2
   105    60    59    1
   106    51    50    1
   107    46    47    1
   108   168   171    1
   109   168   169    1
   110   144   145    1
   111    99    98    1
   112     9     8    1
   113   173   174   ar
   114    47    50    1
   115    47    48    1
   116    59    61    1
   117    59    58    1
   118    98    96   am
   119    54    48   am
   120    54    55    1
   121     8     3   am
   122   145   146    1
   123    58    55    1
   124    48    49    2
   125   146   147    2
   126    96    97    2
   127    96    95    1
   128    55    56    1
   129    67    66    1
   130     3     4    2
   131     3     2    1
   132     7     5    1
   133    95    94    1
   134    62    56   am
   135    62    63    1
   136    56    57    2
   137    66    63    1
   138     2     5    1
   139     2     1    1
   140    92    93   ar
   141    92    90   ar
   142    73    72    1
   143     5     6    1
   144    63    64    1
   145    94    86   am
   146    93    91   ar
   147    90    89   ar
   148    68    64   am
   149    68    69    1
   150    72    69    1
   151    72    74    1
   152    83    82    1
   153    87    86    2
   154    86    85    1
   155    91    89   ar
   156    89    88    1
   157    64    65    2
   158    82    81    1
   159    69    70    1
   160    88    85    1
   161    85    84    1
   162    70    71    2
   163    81    80    1
   164    84    77   am
   165    80    79    1
   166    77    78    2
   167    77    76    1
   168    79    76    1
   169    76    75    1
