@<TRIPOS>MOLECULE
tmp/4owoB01.pdb
 84 81 0 0 0
SMALL
GASTEIGER

@<TRIPOS>ATOM
      1  N         -8.3460  -26.8190   50.2290 N.3    63  MET63      -0.1245
      2  CA        -7.3510  -27.8890   50.2130 C.3    63  MET63       0.1570
      3  C         -7.0130  -28.3700   51.6240 C.2    63  MET63       0.2261
      4  O         -7.0650  -29.5800   51.9120 O.2    63  MET63      -0.2867
      5  CB        -6.0790  -27.4060   49.5130 C.3    63  MET63       0.0387
      6  CG        -5.0450  -28.4990   49.3180 C.3    63  MET63       0.0595
      7  SD        -3.9550  -28.0050   47.9720 S.3    63  MET63      -0.1393
      8  CE        -2.6480  -29.1970   48.2550 C.3    63  MET63       0.0692
      9  N          8.1150  -32.1840   49.2180 N.3   115  ASN115     -0.1240
     10  CA         7.7630  -33.1900   48.2350 C.3   115  ASN115      0.1653
     11  C          9.0230  -33.5660   47.4830 C.2   115  ASN115      0.2266
     12  O         10.0760  -32.9480   47.6690 O.2   115  ASN115     -0.2867
     13  CB         6.7330  -32.5930   47.2630 C.3   115  ASN115      0.1155
     14  CG         5.8830  -33.6420   46.5870 C.2   115  ASN115      0.2627
     15  OD1        6.1620  -34.8400   46.6600 O.2   115  ASN115     -0.2716
     16  ND2        4.8160  -33.1920   45.9420 N.am  115  ASN115     -0.0877
     17  N          3.9520  -34.2630   51.3250 N.3   156  ALA156     -0.1231
     18  CA         2.6800  -33.7740   50.7960 C.3   156  ALA156      0.1679
     19  C          1.7340  -34.8750   50.3000 C.2   156  ALA156      0.2434
     20  O          0.5610  -34.8530   50.6500 O.2   156  ALA156     -0.2733
     21  CB         2.9120  -32.6940   49.7340 C.3   156  ALA156      0.0304
     22  N          2.2280  -35.8640   49.5210 N.am  157  PRO157     -0.2729
     23  CA         1.2920  -36.9100   49.0680 C.3   157  PRO157      0.1401
     24  C          0.6420  -37.7250   50.1970 C.2   157  PRO157      0.2269
     25  O         -0.4830  -38.1970   50.0470 O.2   157  PRO157     -0.2865
     26  CB         2.1780  -37.8200   48.1820 C.3   157  PRO157      0.0296
     27  CG         3.2200  -36.8880   47.6620 C.3   157  PRO157      0.0237
     28  CD         3.5140  -35.9480   48.8100 C.3   157  PRO157      0.0939
     29  N         -2.0820  -34.9750   51.7160 N.3   160  HIS160     -0.1227
     30  CA        -3.0750  -34.4200   50.7830 C.3   160  HIS160      0.1737
     31  C         -3.5250  -35.4160   49.7120 C.2   160  HIS160      0.2438
     32  O         -3.4490  -35.1100   48.5240 O.2   160  HIS160     -0.2733
     33  CB        -2.4700  -33.2200   50.0770 C.3   160  HIS160      0.0758
     34  CG        -2.0670  -32.1170   50.9950 C.ar  160  HIS160      0.0818
     35  ND1       -2.9800  -31.2790   51.5960 N.ar  160  HIS160     -0.2268
     36  CD2       -0.8430  -31.6980   51.3980 C.ar  160  HIS160      0.1154
     37  CE1       -2.3320  -30.4030   52.3470 C.ar  160  HIS160      0.1986
     38  NE2       -1.0370  -30.6410   52.2460 N.ar  160  HIS160     -0.2212
     39  N         -4.0110  -36.6030   50.1210 N.am  161  PRO161     -0.2729
     40  CA        -4.3870  -37.6230   49.1410 C.3   161  PRO161      0.1401
     41  C         -5.4240  -37.1350   48.1240 C.2   161  PRO161      0.2269
     42  O         -5.3590  -37.5100   46.9530 O.2   161  PRO161     -0.2865
     43  CB        -4.9640  -38.7610   50.0060 C.3   161  PRO161      0.0296
     44  CG        -5.2960  -38.1360   51.3340 C.3   161  PRO161      0.0237
     45  CD        -4.3080  -37.0160   51.4990 C.3   161  PRO161      0.0939
     46  N         -5.7640  -34.3470   46.6940 N.3   163  TYR163     -0.1227
     47  CA        -5.1760  -33.4670   45.6880 C.3   163  TYR163      0.1736
     48  C         -4.6390  -34.2290   44.4920 C.2   163  TYR163      0.2595
     49  O         -4.1220  -33.6370   43.5600 O.2   163  TYR163     -0.2718
     50  CB        -4.0240  -32.6840   46.3280 C.3   163  TYR163      0.0548
     51  CG        -3.4470  -31.5540   45.5040 C.ar  163  TYR163     -0.0200
     52  CD1       -4.1720  -30.3970   45.2750 C.ar  163  TYR163     -0.0009
     53  CD2       -2.1580  -31.6280   44.9920 C.ar  163  TYR163     -0.0009
     54  CE1       -3.6380  -29.3570   44.5340 C.ar  163  TYR163      0.0417
     55  CE2       -1.6150  -30.6040   44.2430 C.ar  163  TYR163      0.0417
     56  CZ        -2.3580  -29.4670   44.0090 C.ar  163  TYR163      0.1957
     57  OH        -1.8100  -28.4260   43.2680 O.3   163  TYR163     -0.2866
     58  N         -4.7500  -35.5450   44.5150 N.am  164  ARG164     -0.1980
     59  CA        -4.1290  -36.3500   43.4890 C.3   164  ARG164      0.1597
     60  C         -4.6360  -36.0380   42.0680 C.2   164  ARG164      0.2287
     61  O         -3.8860  -36.1900   41.1280 O.2   164  ARG164     -0.2864
     62  CB        -4.2890  -37.8420   43.8060 C.3   164  ARG164      0.0334
     63  CG        -5.7060  -38.3770   43.7410 C.3   164  ARG164      0.0492
     64  CD        -5.7270  -39.8430   44.1930 C.3   164  ARG164      0.2205
     65  NE        -7.0950  -40.3340   44.2280 N.pl3 164  ARG164     -0.0865
     66  CZ        -7.9680  -40.1220   45.2130 C.cat 164  ARG164      0.5346
     67  NH1       -7.6400  -39.4290   46.3120 N.pl3 164  ARG164      0.1354
     68  NH2       -9.1950  -40.6170   45.0990 N.pl3 164  ARG164      0.1354
     69  N         -2.8210  -32.8450   41.0530 N.3   167  ALA167     -0.1245
     70  CA        -1.4030  -33.1380   40.8870 C.3   167  ALA167      0.1562
     71  C         -1.1390  -33.8340   39.5580 C.2   167  ALA167      0.2260
     72  O         -0.1360  -33.5500   38.8870 O.2   167  ALA167     -0.2867
     73  CB        -0.8820  -33.9860   42.0410 C.3   167  ALA167      0.0290
     74  N          1.1280  -32.4070   36.2370 N.3   171  ARG171     -0.1245
     75  CA         2.1830  -33.1350   35.5280 C.3   171  ARG171      0.1563
     76  C          1.8860  -33.2550   34.0380 C.2   171  ARG171      0.2260
     77  O          2.7860  -33.1910   33.2240 O.2   171  ARG171     -0.2867
     78  CB         2.4100  -34.5200   36.1380 C.3   171  ARG171      0.0307
     79  CG         3.0580  -34.4490   37.5160 C.3   171  ARG171      0.0489
     80  CD         3.4470  -35.8250   38.0320 C.3   171  ARG171      0.2205
     81  NE         2.2610  -36.5820   38.4160 N.pl3 171  ARG171     -0.0865
     82  CZ         1.7390  -36.6020   39.6450 C.cat 171  ARG171      0.5346
     83  NH1        2.3050  -35.9240   40.6420 N.pl3 171  ARG171      0.1354
     84  NH2        0.6500  -37.3220   39.8730 N.pl3 171  ARG171      0.1354
@<TRIPOS>BOND
     1    77    76    2
     2    76    75    1
     3    75    78    1
     4    75    74    1
     5    78    79    1
     6    79    80    1
     7    80    81    1
     8    81    82    2
     9    72    71    2
    10    71    70    1
    11    82    84    1
    12    82    83    1
    13    70    69    1
    14    70    73    1
    15    61    60    2
    16    60    59    1
    17    57    56    1
    18    59    62    1
    19    59    58    1
    20    49    48    2
    21    63    62    1
    22    63    64    1
    23    56    55   ar
    24    56    54   ar
    25    64    65    1
    26    65    66    2
    27    55    53   ar
    28    48    58   am
    29    48    47    1
    30    54    52   ar
    31    53    51   ar
    32    68    66    1
    33    66    67    1
    34    52    51   ar
    35    51    50    1
    36    47    50    1
    37    47    46    1
    38    16    14   am
    39    14    15    2
    40    14    13    1
    41    42    41    2
    42    13    10    1
    43    11    12    2
    44    11    10    1
    45    27    26    1
    46    27    28    1
    47     7     8    1
    48     7     6    1
    49    41    40    1
    50    26    23    1
    51    10     9    1
    52    32    31    2
    53    28    22    1
    54    23    22    1
    55    23    24    1
    56    40    43    1
    57    40    39    1
    58     6     5    1
    59     5     2    1
    60    22    19   am
    61    31    39   am
    62    31    30    1
    63    21    18    1
    64    43    44    1
    65    25    24    2
    66    33    30    1
    67    33    34    1
    68    39    45    1
    69     2     1    1
    70     2     3    1
    71    19    20    2
    72    19    18    1
    73    30    29    1
    74    18    17    1
    75    34    36   ar
    76    34    35   ar
    77    44    45    1
    78    36    38   ar
    79    35    37   ar
    80     3     4    2
    81    38    37   ar
