@<TRIPOS>MOLECULE
tmp/4owqB01.pdb
 84 81 0 0 0
SMALL
GASTEIGER

@<TRIPOS>ATOM
      1  N         -8.4480  -27.0180   50.3980 N.3    63  MET63      -0.1245
      2  CA        -7.5180  -28.1360   50.3340 C.3    63  MET63       0.1570
      3  C         -7.1460  -28.5950   51.7480 C.2    63  MET63       0.2261
      4  O         -7.1700  -29.8150   52.0500 O.2    63  MET63      -0.2867
      5  CB        -6.2900  -27.7500   49.5330 C.3    63  MET63       0.0387
      6  CG        -5.1990  -28.8000   49.4920 C.3    63  MET63       0.0595
      7  SD        -4.0510  -28.3610   48.1830 S.3    63  MET63      -0.1393
      8  CE        -2.8200  -29.6290   48.4780 C.3    63  MET63       0.0692
      9  N          7.1100  -33.7420   48.8020 N.3   115  ASN115     -0.1240
     10  CA         7.0030  -34.9810   47.9920 C.3   115  ASN115      0.1653
     11  C          8.3450  -35.3570   47.3660 C.2   115  ASN115      0.2266
     12  O          9.1950  -34.4910   47.2170 O.2   115  ASN115     -0.2867
     13  CB         5.9710  -34.8140   46.8770 C.3   115  ASN115      0.1155
     14  CG         5.4710  -36.1570   46.3140 C.2   115  ASN115      0.2627
     15  OD1        5.8960  -37.2530   46.7260 O.2   115  ASN115     -0.2716
     16  ND2        4.5480  -36.0700   45.3660 N.am  115  ASN115     -0.0877
     17  N          3.5780  -35.1190   51.4690 N.3   153  ALA153     -0.1231
     18  CA         2.3490  -34.5540   50.8920 C.3   153  ALA153      0.1679
     19  C          1.3240  -35.5920   50.4080 C.2   153  ALA153      0.2434
     20  O          0.1430  -35.4750   50.7350 O.2   153  ALA153     -0.2733
     21  CB         2.7020  -33.5220   49.8180 C.3   153  ALA153      0.0304
     22  N          1.7570  -36.6480   49.6790 N.am  154  PRO154     -0.2729
     23  CA         0.7530  -37.6300   49.2410 C.3   154  PRO154      0.1401
     24  C          0.0460  -38.3460   50.3760 C.2   154  PRO154      0.2269
     25  O         -1.0920  -38.7610   50.2210 O.2   154  PRO154     -0.2865
     26  CB         1.5560  -38.6370   48.3830 C.3   154  PRO154      0.0296
     27  CG         2.8070  -37.9440   48.0220 C.3   154  PRO154      0.0237
     28  CD         3.0690  -36.8560   49.0330 C.3   154  PRO154      0.0939
     29  N         -2.4060  -35.3130   51.9320 N.3   157  HIS157     -0.1227
     30  CA        -3.3360  -34.7530   50.9490 C.3   157  HIS157      0.1737
     31  C         -3.7720  -35.7770   49.8940 C.2   157  HIS157      0.2438
     32  O         -3.7530  -35.5040   48.6870 O.2   157  HIS157     -0.2733
     33  CB        -2.7050  -33.5790   50.2180 C.3   157  HIS157      0.0758
     34  CG        -2.2790  -32.4630   51.1130 C.ar  157  HIS157      0.0818
     35  ND1       -3.1700  -31.5980   51.7010 N.ar  157  HIS157     -0.2268
     36  CD2       -1.0500  -32.0560   51.5010 C.ar  157  HIS157      0.1154
     37  CE1       -2.5120  -30.7060   52.4100 C.ar  157  HIS157      0.1986
     38  NE2       -1.2260  -30.9660   52.3120 N.ar  157  HIS157     -0.2212
     39  N         -4.2310  -36.9380   50.3430 N.am  158  PRO158     -0.2729
     40  CA        -4.6180  -37.9610   49.3660 C.3   158  PRO158      0.1401
     41  C         -5.6710  -37.5200   48.3450 C.2   158  PRO158      0.2269
     42  O         -5.6280  -37.9640   47.1930 O.2   158  PRO158     -0.2865
     43  CB        -5.1800  -39.0770   50.2460 C.3   158  PRO158      0.0296
     44  CG        -5.6560  -38.3770   51.4770 C.3   158  PRO158      0.0237
     45  CD        -4.6630  -37.2840   51.7100 C.3   158  PRO158      0.0939
     46  N         -5.9000  -34.7240   46.8500 N.3   160  TYR160     -0.1227
     47  CA        -5.2940  -33.8910   45.8370 C.3   160  TYR160      0.1736
     48  C         -4.8160  -34.6890   44.6150 C.2   160  TYR160      0.2595
     49  O         -4.3030  -34.1120   43.6660 O.2   160  TYR160     -0.2718
     50  CB        -4.1020  -33.1970   46.4660 C.3   160  TYR160      0.0548
     51  CG        -3.4790  -32.0680   45.6620 C.ar  160  TYR160     -0.0200
     52  CD1       -4.1510  -30.8840   45.4920 C.ar  160  TYR160     -0.0009
     53  CD2       -2.2140  -32.1930   45.0950 C.ar  160  TYR160     -0.0009
     54  CE1       -3.6000  -29.8500   44.7720 C.ar  160  TYR160      0.0417
     55  CE2       -1.6450  -31.1510   44.3600 C.ar  160  TYR160      0.0417
     56  CZ        -2.3480  -29.9770   44.2240 C.ar  160  TYR160      0.1957
     57  OH        -1.8470  -28.9070   43.5190 O.3   160  TYR160     -0.2866
     58  N         -4.9520  -36.0120   44.6390 N.am  161  ARG161     -0.1980
     59  CA        -4.3830  -36.8330   43.5740 C.3   161  ARG161      0.1597
     60  C         -4.9110  -36.5030   42.1770 C.2   161  ARG161      0.2287
     61  O         -4.1610  -36.6040   41.2350 O.2   161  ARG161     -0.2864
     62  CB        -4.5800  -38.3210   43.8490 C.3   161  ARG161      0.0334
     63  CG        -6.0260  -38.7600   43.8940 C.3   161  ARG161      0.0492
     64  CD        -6.1190  -40.1970   44.3610 C.3   161  ARG161      0.2205
     65  NE        -7.5150  -40.6010   44.4070 N.pl3 161  ARG161     -0.0865
     66  CZ        -8.3320  -40.4440   45.4440 C.cat 161  ARG161      0.5346
     67  NH1       -7.9220  -39.8890   46.5880 N.pl3 161  ARG161      0.1354
     68  NH2       -9.5900  -40.8560   45.3350 N.pl3 161  ARG161      0.1354
     69  N         -3.0530  -33.3590   41.1090 N.3   164  ALA164     -0.1245
     70  CA        -1.6550  -33.6560   40.9180 C.3   164  ALA164      0.1562
     71  C         -1.4090  -34.3150   39.5630 C.2   164  ALA164      0.2260
     72  O         -0.4600  -33.9460   38.8800 O.2   164  ALA164     -0.2867
     73  CB        -1.1430  -34.5400   42.0440 C.3   164  ALA164      0.0290
     74  N          0.8180  -32.8370   36.2620 N.3   168  ARG168     -0.1245
     75  CA         1.8570  -33.5440   35.5250 C.3   168  ARG168      0.1563
     76  C          1.5710  -33.5840   34.0310 C.2   168  ARG168      0.2260
     77  O          2.4790  -33.4490   33.2160 O.2   168  ARG168     -0.2867
     78  CB         2.0010  -34.9660   36.0330 C.3   168  ARG168      0.0307
     79  CG         2.7490  -35.0640   37.3510 C.3   168  ARG168      0.0489
     80  CD         3.0950  -36.5190   37.6400 C.3   168  ARG168      0.2205
     81  NE         1.8890  -37.3200   37.8550 N.pl3 168  ARG168     -0.0865
     82  CZ         1.2630  -37.4490   39.0250 C.cat 168  ARG168      0.5346
     83  NH1        1.7090  -36.8220   40.1080 N.pl3 168  ARG168      0.1354
     84  NH2        0.1800  -38.1980   39.1110 N.pl3 168  ARG168      0.1354
@<TRIPOS>BOND
     1    77    76    2
     2    76    75    1
     3    75    78    1
     4    75    74    1
     5    78    79    1
     6    79    80    1
     7    80    81    1
     8    81    82    2
     9    72    71    2
    10    82    84    1
    11    82    83    1
    12    71    70    1
    13    70    69    1
    14    70    73    1
    15    61    60    2
    16    60    59    1
    17    57    56    1
    18    59    62    1
    19    59    58    1
    20    49    48    2
    21    62    63    1
    22    63    64    1
    23    56    55   ar
    24    56    54   ar
    25    55    53   ar
    26    64    65    1
    27    65    66    2
    28    48    58   am
    29    48    47    1
    30    54    52   ar
    31    53    51   ar
    32    68    66    1
    33    16    14   am
    34    66    67    1
    35    52    51   ar
    36    51    50    1
    37    47    50    1
    38    47    46    1
    39    14    15    2
    40    14    13    1
    41    13    10    1
    42    42    41    2
    43    12    11    2
    44    11    10    1
    45    10     9    1
    46    27    26    1
    47    27    28    1
    48     7     8    1
    49     7     6    1
    50    41    40    1
    51    26    23    1
    52    32    31    2
    53    28    22    1
    54    23    22    1
    55    23    24    1
    56    40    43    1
    57    40    39    1
    58     6     5    1
    59     5     2    1
    60    22    19   am
    61    21    18    1
    62    31    39   am
    63    31    30    1
    64    33    30    1
    65    33    34    1
    66    25    24    2
    67    43    44    1
    68     2     1    1
    69     2     3    1
    70    39    45    1
    71    19    20    2
    72    19    18    1
    73    18    17    1
    74    30    29    1
    75    34    36   ar
    76    34    35   ar
    77    44    45    1
    78    36    38   ar
    79    35    37   ar
    80     3     4    2
    81    38    37   ar
