@<TRIPOS>MOLECULE
tmp/4owsB01.pdb
 105 102 0 0 0
SMALL
GASTEIGER

@<TRIPOS>ATOM
      1  N         -8.8520  -27.3830   50.1130 N.3    62  MET62      -0.1245
      2  CA        -7.8850  -28.5000   50.0500 C.3    62  MET62       0.1570
      3  C         -7.5570  -28.9820   51.4710 C.2    62  MET62       0.2261
      4  O         -7.6220  -30.2010   51.7610 O.2    62  MET62      -0.2867
      5  CB        -6.6220  -28.0570   49.3310 C.3    62  MET62       0.0387
      6  CG        -5.5990  -29.1390   49.1170 C.3    62  MET62       0.0595
      7  SD        -4.4240  -28.5890   47.8560 S.3    62  MET62      -0.1393
      8  CE        -3.1130  -29.7960   48.0800 C.3    62  MET62       0.0692
      9  N          6.8700  -29.7910   54.4060 N.3   112  HIS112     -0.1241
     10  CA         5.7550  -30.3890   53.6970 C.3   112  HIS112      0.1621
     11  C          6.1640  -30.4390   52.2420 C.2   112  HIS112      0.2264
     12  O          6.4670  -29.4090   51.6780 O.2   112  HIS112     -0.2867
     13  CB         4.5580  -29.4470   53.8570 C.3   112  HIS112      0.0745
     14  CG         3.3540  -29.8070   53.0420 C.ar  112  HIS112      0.0817
     15  ND1        2.6720  -28.8830   52.2720 N.ar  112  HIS112     -0.2268
     16  CD2        2.6790  -30.9710   52.9210 C.ar  112  HIS112      0.1154
     17  CE1        1.6390  -29.4720   51.7050 C.ar  112  HIS112      0.1986
     18  NE2        1.6210  -30.7400   52.0820 N.ar  112  HIS112     -0.2212
     19  N          6.8010  -33.1550   48.3770 N.3   114  ASN114     -0.1240
     20  CA         6.7900  -34.3920   47.6500 C.3   114  ASN114      0.1653
     21  C          8.1850  -34.6190   47.0980 C.2   114  ASN114      0.2266
     22  O          9.0630  -33.7750   47.2440 O.2   114  ASN114     -0.2867
     23  CB         5.7500  -34.3040   46.5160 C.3   114  ASN114      0.1155
     24  CG         5.2300  -35.6790   46.0630 C.2   114  ASN114      0.2627
     25  OD1        5.6980  -36.7300   46.5090 O.2   114  ASN114     -0.2716
     26  ND2        4.2490  -35.6660   45.1760 N.am  114  ASN114     -0.0877
     27  N          3.4550  -34.9470   51.3280 N.3   152  ALA152     -0.1231
     28  CA         2.2220  -34.4050   50.7630 C.3   152  ALA152      0.1679
     29  C          1.2210  -35.4640   50.2730 C.2   152  ALA152      0.2434
     30  O          0.0540  -35.4050   50.6460 O.2   152  ALA152     -0.2733
     31  CB         2.5230  -33.3680   49.6930 C.3   152  ALA152      0.0304
     32  N          1.6590  -36.4520   49.4820 N.am  153  PRO153     -0.2729
     33  CA         0.6700  -37.4450   49.0240 C.3   153  PRO153      0.1401
     34  C         -0.0230  -38.2560   50.1530 C.2   153  PRO153      0.2269
     35  O         -1.1400  -38.7630   49.9840 O.2   153  PRO153     -0.2865
     36  CB         1.4910  -38.3570   48.0960 C.3   153  PRO153      0.0296
     37  CG         2.6000  -37.4670   47.6040 C.3   153  PRO153      0.0237
     38  CD         2.9630  -36.6450   48.8210 C.3   153  PRO153      0.0939
     39  N         -2.5300  -35.3070   51.6890 N.3   156  HIS156     -0.1227
     40  CA        -3.5590  -34.8830   50.7410 C.3   156  HIS156      0.1737
     41  C         -3.8940  -35.9450   49.6820 C.2   156  HIS156      0.2438
     42  O         -3.8020  -35.6890   48.4850 O.2   156  HIS156     -0.2733
     43  CB        -3.1220  -33.6250   50.0170 C.3   156  HIS156      0.0758
     44  CG        -2.6530  -32.5450   50.9280 C.ar  156  HIS156      0.0818
     45  ND1       -3.5160  -31.7380   51.6370 N.ar  156  HIS156     -0.2268
     46  CD2       -1.4020  -32.1280   51.2320 C.ar  156  HIS156      0.1154
     47  CE1       -2.8160  -30.8680   52.3390 C.ar  156  HIS156      0.1986
     48  NE2       -1.5310  -31.0850   52.1110 N.ar  156  HIS156     -0.2212
     49  N         -4.3370  -37.1250   50.1120 N.am  157  PRO157     -0.2729
     50  CA        -4.6070  -38.1470   49.1050 C.3   157  PRO157      0.1401
     51  C         -5.6360  -37.7370   48.0680 C.2   157  PRO157      0.2269
     52  O         -5.5230  -38.1630   46.9310 O.2   157  PRO157     -0.2865
     53  CB        -5.1190  -39.3300   49.9440 C.3   157  PRO157      0.0296
     54  CG        -5.7320  -38.6810   51.1440 C.3   157  PRO157      0.0237
     55  CD        -4.7820  -37.5460   51.4580 C.3   157  PRO157      0.0939
     56  N         -6.0920  -35.0030   46.5810 N.3   159  TYR159     -0.1227
     57  CA        -5.4770  -34.1880   45.5510 C.3   159  TYR159      0.1736
     58  C         -4.9940  -34.9730   44.3240 C.2   159  TYR159      0.2595
     59  O         -4.5110  -34.3870   43.3490 O.2   159  TYR159     -0.2718
     60  CB        -4.2740  -33.4890   46.1580 C.3   159  TYR159      0.0548
     61  CG        -3.7120  -32.3910   45.3190 C.ar  159  TYR159     -0.0200
     62  CD1       -4.3710  -31.1670   45.2320 C.ar  159  TYR159     -0.0009
     63  CD2       -2.5130  -32.5520   44.6240 C.ar  159  TYR159     -0.0009
     64  CE1       -3.8670  -30.1320   44.4730 C.ar  159  TYR159      0.0417
     65  CE2       -1.9880  -31.5140   43.8530 C.ar  159  TYR159      0.0417
     66  CZ        -2.6780  -30.3090   43.7810 C.ar  159  TYR159      0.1957
     67  OH        -2.2050  -29.2590   43.0470 O.3   159  TYR159     -0.2866
     68  N         -5.1020  -36.2960   44.3730 N.am  160  ARG160     -0.1980
     69  CA        -4.5620  -37.1570   43.3250 C.3   160  ARG160      0.1597
     70  C         -5.1080  -36.8820   41.9380 C.2   160  ARG160      0.2287
     71  O         -4.3930  -37.0250   40.9690 O.2   160  ARG160     -0.2864
     72  CB        -4.7570  -38.6370   43.6810 C.3   160  ARG160      0.0334
     73  CG        -6.1860  -39.1280   43.7130 C.3   160  ARG160      0.0492
     74  CD        -6.2360  -40.6070   44.0680 C.3   160  ARG160      0.2205
     75  NE        -7.6260  -41.0560   44.2030 N.pl3 160  ARG160     -0.0865
     76  CZ        -8.3540  -40.9310   45.3120 C.cat 160  ARG160      0.5346
     77  NH1       -7.8500  -40.3840   46.4270 N.pl3 160  ARG160      0.1354
     78  NH2       -9.6050  -41.3610   45.3050 N.pl3 160  ARG160      0.1354
     79  N         -3.2770  -33.7970   40.7470 N.3   163  ALA163     -0.1245
     80  CA        -1.8480  -34.0460   40.4780 C.3   163  ALA163      0.1562
     81  C         -1.6320  -34.7900   39.1570 C.2   163  ALA163      0.2260
     82  O         -0.6370  -34.5910   38.5020 O.2   163  ALA163     -0.2867
     83  CB        -1.1860  -34.7790   41.6390 C.3   163  ALA163      0.0290
     84  N         -1.9050  -32.0920   36.4250 N.3   166  ARG166     -0.1231
     85  CA        -0.7470  -31.2260   36.4590 C.3   166  ARG166      0.1694
     86  C          0.3970  -31.8370   35.6840 C.2   166  ARG166      0.2591
     87  O          1.1020  -31.1410   34.9410 O.2   166  ARG166     -0.2718
     88  CB        -0.2980  -31.0000   37.8850 C.3   166  ARG166      0.0321
     89  CG        -1.2200  -30.1080   38.7030 C.3   166  ARG166      0.0489
     90  CD        -0.3670  -29.0880   39.4350 C.3   166  ARG166      0.2205
     91  NE        -0.0510  -29.4060   40.8220 N.pl3 166  ARG166     -0.0865
     92  CZ         1.0100  -28.9350   41.4810 C.cat 166  ARG166      0.5346
     93  NH1        1.9130  -28.1550   40.8750 N.pl3 166  ARG166      0.1354
     94  NH2        1.1840  -29.2680   42.7580 N.pl3 166  ARG166      0.1354
     95  N          0.5750  -33.1400   35.8610 N.am  167  ARG167     -0.1980
     96  CA         1.6730  -33.8520   35.2060 C.3   167  ARG167      0.1597
     97  C          1.4370  -33.9700   33.6940 C.2   167  ARG167      0.2287
     98  O          2.3710  -33.7740   32.8990 O.2   167  ARG167     -0.2864
     99  CB         1.8910  -35.2300   35.8510 C.3   167  ARG167      0.0334
    100  CG         2.4500  -35.1730   37.2760 C.3   167  ARG167      0.0492
    101  CD         2.8780  -36.5420   37.8160 C.3   167  ARG167      0.2205
    102  NE         1.7580  -37.4900   37.9220 N.pl3 167  ARG167     -0.0865
    103  CZ         1.0060  -37.7000   39.0100 C.cat 167  ARG167      0.5346
    104  NH1        1.2250  -37.0360   40.1440 N.pl3 167  ARG167      0.1354
    105  NH2        0.0060  -38.5860   38.9540 N.pl3 167  ARG167      0.1354
@<TRIPOS>BOND
     1    98    97    2
     2    97    96    1
     3    87    86    2
     4    96    99    1
     5    96    95    1
     6    86    95   am
     7    86    85    1
     8    99   100    1
     9    84    85    1
    10    85    88    1
    11   100   101    1
    12   101   102    1
    13    88    89    1
    14   102   103    2
    15    82    81    2
    16    89    90    1
    17   105   103    1
    18   103   104    1
    19    81    80    1
    20    90    91    1
    21    80    79    1
    22    80    83    1
    23    91    92    2
    24    93    92    1
    25    71    70    2
    26    92    94    1
    27    70    69    1
    28    67    66    1
    29    69    72    1
    30    69    68    1
    31    59    58    2
    32    72    73    1
    33    73    74    1
    34    66    65   ar
    35    66    64   ar
    36    65    63   ar
    37    74    75    1
    38    75    76    2
    39    58    68   am
    40    58    57    1
    41    64    62   ar
    42    63    61   ar
    43    26    24   am
    44    62    61   ar
    45    78    76    1
    46    76    77    1
    47    61    60    1
    48    57    60    1
    49    57    56    1
    50    24    25    2
    51    24    23    1
    52    23    20    1
    53    52    51    2
    54    21    22    2
    55    21    20    1
    56    37    36    1
    57    37    38    1
    58    20    19    1
    59     7     8    1
    60     7     6    1
    61    51    50    1
    62    36    33    1
    63    42    41    2
    64    38    32    1
    65    33    32    1
    66    33    34    1
    67    50    53    1
    68    50    49    1
    69     6     5    1
    70     5     2    1
    71    32    29   am
    72    41    49   am
    73    41    40    1
    74    31    28    1
    75    53    54    1
    76    35    34    2
    77    43    40    1
    78    43    44    1
    79     2     1    1
    80     2     3    1
    81    49    55    1
    82    29    30    2
    83    29    28    1
    84    40    39    1
    85    28    27    1
    86    44    46   ar
    87    44    45   ar
    88    54    55    1
    89    46    48   ar
    90     3     4    2
    91    45    47   ar
    92    12    11    2
    93    17    18   ar
    94    17    15   ar
    95    18    16   ar
    96    48    47   ar
    97    11    10    1
    98    15    14   ar
    99    16    14   ar
   100    14    13    1
   101    10    13    1
   102    10     9    1
