@<TRIPOS>MOLECULE
tmp/4owuB01.pdb
 95 92 0 0 0
SMALL
GASTEIGER

@<TRIPOS>ATOM
      1  N         -8.2500  -26.8120   50.1160 N.3    63  MET63      -0.1245
      2  CA        -7.2890  -27.9000   50.0990 C.3    63  MET63       0.1570
      3  C         -6.9330  -28.3830   51.5230 C.2    63  MET63       0.2261
      4  O         -6.9420  -29.5980   51.7970 O.2    63  MET63      -0.2867
      5  CB        -6.0570  -27.4800   49.3170 C.3    63  MET63       0.0387
      6  CG        -5.0040  -28.5580   49.2130 C.3    63  MET63       0.0595
      7  SD        -3.8620  -28.1290   47.8930 S.3    63  MET63      -0.1393
      8  CE        -2.5970  -29.3570   48.1360 C.3    63  MET63       0.0692
      9  N          8.2300  -32.1050   49.1460 N.3   115  ASN115     -0.1240
     10  CA         7.8440  -33.0690   48.1430 C.3   115  ASN115      0.1653
     11  C          9.0850  -33.4040   47.3400 C.2   115  ASN115      0.2266
     12  O         10.1380  -32.7540   47.4860 O.2   115  ASN115     -0.2867
     13  CB         6.8230  -32.4260   47.2210 C.3   115  ASN115      0.1155
     14  CG         5.9110  -33.4350   46.5660 C.2   115  ASN115      0.2627
     15  OD1        6.2460  -34.5930   46.3970 O.2   115  ASN115     -0.2716
     16  ND2        4.7250  -32.9910   46.2360 N.am  115  ASN115     -0.0877
     17  N          3.9980  -34.2600   51.1490 N.3   156  ALA156     -0.1231
     18  CA         2.7250  -33.7850   50.6180 C.3   156  ALA156      0.1679
     19  C          1.7540  -34.8870   50.1300 C.2   156  ALA156      0.2434
     20  O          0.5730  -34.8630   50.4970 O.2   156  ALA156     -0.2733
     21  CB         2.9630  -32.6770   49.5940 C.3   156  ALA156      0.0304
     22  N          2.2210  -35.8950   49.3620 N.am  157  PRO157     -0.2729
     23  CA         1.2530  -36.9360   48.9660 C.3   157  PRO157      0.1401
     24  C          0.6040  -37.7450   50.1100 C.2   157  PRO157      0.2269
     25  O         -0.5040  -38.2500   49.9550 O.2   157  PRO157     -0.2865
     26  CB         2.0900  -37.8610   48.0520 C.3   157  PRO157      0.0296
     27  CG         3.2150  -37.0060   47.5840 C.3   157  PRO157      0.0237
     28  CD         3.5390  -36.1140   48.7340 C.3   157  PRO157      0.0939
     29  N         -2.0430  -34.9910   51.6560 N.3   160  HIS160     -0.1227
     30  CA        -3.0210  -34.4370   50.7090 C.3   160  HIS160      0.1737
     31  C         -3.4610  -35.4500   49.6660 C.2   160  HIS160      0.2438
     32  O         -3.4080  -35.1580   48.4630 O.2   160  HIS160     -0.2733
     33  CB        -2.4300  -33.2230   49.9850 C.3   160  HIS160      0.0758
     34  CG        -2.0010  -32.1090   50.8830 C.ar  160  HIS160      0.0818
     35  ND1       -2.8870  -31.2270   51.4610 N.ar  160  HIS160     -0.2268
     36  CD2       -0.7690  -31.7220   51.2870 C.ar  160  HIS160      0.1154
     37  CE1       -2.2160  -30.3410   52.1700 C.ar  160  HIS160      0.1986
     38  NE2       -0.9340  -30.6270   52.0910 N.ar  160  HIS160     -0.2212
     39  N         -3.9370  -36.6370   50.1050 N.am  161  PRO161     -0.2729
     40  CA        -4.3050  -37.6970   49.1550 C.3   161  PRO161      0.1401
     41  C         -5.3640  -37.2860   48.1250 C.2   161  PRO161      0.2269
     42  O         -5.3280  -37.7280   46.9660 O.2   161  PRO161     -0.2865
     43  CB        -4.8270  -38.8230   50.0700 C.3   161  PRO161      0.0296
     44  CG        -5.2540  -38.1280   51.3460 C.3   161  PRO161      0.0237
     45  CD        -4.2970  -36.9800   51.4980 C.3   161  PRO161      0.0939
     46  N         -5.6820  -34.4690   46.6460 N.3   163  TYR163     -0.1227
     47  CA        -5.0860  -33.6120   45.6150 C.3   163  TYR163      0.1736
     48  C         -4.6350  -34.4160   44.3850 C.2   163  TYR163      0.2595
     49  O         -4.1470  -33.8370   43.4100 O.2   163  TYR163     -0.2718
     50  CB        -3.8680  -32.8820   46.2010 C.3   163  TYR163      0.0548
     51  CG        -3.2650  -31.7850   45.3450 C.ar  163  TYR163     -0.0200
     52  CD1       -3.8890  -30.5610   45.2280 C.ar  163  TYR163     -0.0009
     53  CD2       -2.0450  -31.9600   44.6940 C.ar  163  TYR163     -0.0009
     54  CE1       -3.3330  -29.5430   44.4770 C.ar  163  TYR163      0.0417
     55  CE2       -1.4940  -30.9490   43.9140 C.ar  163  TYR163      0.0417
     56  CZ        -2.1430  -29.7380   43.8220 C.ar  163  TYR163      0.1957
     57  OH        -1.6380  -28.7100   43.0560 O.3   163  TYR163     -0.2866
     58  N         -4.7980  -35.7400   44.4200 N.am  164  ARG164     -0.1980
     59  CA        -4.2480  -36.5920   43.3630 C.3   164  ARG164      0.1597
     60  C         -4.7850  -36.2830   41.9540 C.2   164  ARG164      0.2287
     61  O         -4.0560  -36.4160   40.9860 O.2   164  ARG164     -0.2864
     62  CB        -4.4570  -38.0690   43.6850 C.3   164  ARG164      0.0334
     63  CG        -5.9000  -38.5410   43.7300 C.3   164  ARG164      0.0492
     64  CD        -5.9400  -39.9810   44.2430 C.3   164  ARG164      0.2205
     65  NE        -7.3100  -40.4560   44.2750 N.pl3 164  ARG164     -0.0865
     66  CZ        -8.1600  -40.2840   45.2830 C.cat 164  ARG164      0.5346
     67  NH1       -7.8030  -39.6610   46.4110 N.pl3 164  ARG164      0.1354
     68  NH2       -9.3940  -40.7610   45.1620 N.pl3 164  ARG164      0.1354
     69  N         -2.8730  -33.1600   40.8750 N.3   167  ALA167     -0.1245
     70  CA        -1.4710  -33.4550   40.6400 C.3   167  ALA167      0.1562
     71  C         -1.2590  -34.1500   39.2900 C.2   167  ALA167      0.2260
     72  O         -0.2740  -33.8700   38.5840 O.2   167  ALA167     -0.2867
     73  CB        -0.9130  -34.3030   41.7700 C.3   167  ALA167      0.0290
     74  N         -1.5230  -31.5350   36.6060 N.3   170  ARG170     -0.1231
     75  CA        -0.2900  -30.7700   36.6470 C.3   170  ARG170      0.1694
     76  C          0.8100  -31.4500   35.8300 C.2   170  ARG170      0.2591
     77  O          1.4820  -30.7980   35.0450 O.2   170  ARG170     -0.2718
     78  CB         0.2040  -30.5650   38.0850 C.3   170  ARG170      0.0321
     79  CG        -0.3950  -29.3890   38.8480 C.3   170  ARG170      0.0489
     80  CD         0.6000  -28.8810   39.9130 C.3   170  ARG170      0.2205
     81  NE         1.9840  -29.0450   39.4290 N.pl3 170  ARG170     -0.0865
     82  CZ         3.0980  -28.7400   40.0960 C.cat 170  ARG170      0.5346
     83  NH1        4.2640  -28.9650   39.5020 N.pl3 170  ARG170      0.1354
     84  NH2        3.0750  -28.1820   41.3100 N.pl3 170  ARG170      0.1354
     85  N          0.9820  -32.7560   36.0310 N.am  171  ARG171     -0.1980
     86  CA         1.9960  -33.5240   35.3050 C.3   171  ARG171      0.1597
     87  C          1.6880  -33.5970   33.8080 C.2   171  ARG171      0.2287
     88  O          2.5910  -33.4770   32.9790 O.2   171  ARG171     -0.2864
     89  CB         2.1380  -34.9410   35.8770 C.3   171  ARG171      0.0334
     90  CG         2.7600  -34.9820   37.2740 C.3   171  ARG171      0.0492
     91  CD         3.0740  -36.4130   37.7210 C.3   171  ARG171      0.2205
     92  NE         1.8890  -37.2720   37.6890 N.pl3 171  ARG171     -0.0865
     93  CZ         1.0410  -37.4750   38.7040 C.cat 171  ARG171      0.5346
     94  NH1        1.2030  -36.8890   39.8840 N.pl3 171  ARG171      0.1354
     95  NH2        0.0040  -38.2760   38.5200 N.pl3 171  ARG171      0.1354
@<TRIPOS>BOND
     1    88    87    2
     2    87    86    1
     3    77    76    2
     4    86    89    1
     5    86    85    1
     6    76    85   am
     7    76    75    1
     8    89    90    1
     9    74    75    1
    10    75    78    1
    11    90    91    1
    12    92    91    1
    13    92    93    2
    14    78    79    1
    15    95    93    1
    16    72    71    2
    17    93    94    1
    18    79    80    1
    19    71    70    1
    20    81    80    1
    21    81    82    2
    22    83    82    1
    23    82    84    1
    24    70    69    1
    25    70    73    1
    26    61    60    2
    27    60    59    1
    28    57    56    1
    29    59    62    1
    30    59    58    1
    31    49    48    2
    32    62    63    1
    33    63    64    1
    34    56    55   ar
    35    56    54   ar
    36    55    53   ar
    37    64    65    1
    38    65    66    2
    39    48    58   am
    40    48    47    1
    41    54    52   ar
    42    53    51   ar
    43    68    66    1
    44    52    51   ar
    45    66    67    1
    46    51    50    1
    47    47    50    1
    48    47    46    1
    49    16    14   am
    50    15    14    2
    51    14    13    1
    52    42    41    2
    53    13    10    1
    54    11    12    2
    55    11    10    1
    56    27    26    1
    57    27    28    1
    58     7     8    1
    59     7     6    1
    60    26    23    1
    61    41    40    1
    62    10     9    1
    63    32    31    2
    64    28    22    1
    65    23    22    1
    66    23    24    1
    67    40    43    1
    68    40    39    1
    69     6     5    1
    70     5     2    1
    71    22    19   am
    72    21    18    1
    73    31    39   am
    74    31    30    1
    75    25    24    2
    76    33    30    1
    77    33    34    1
    78    43    44    1
    79     2     1    1
    80     2     3    1
    81    39    45    1
    82    19    20    2
    83    19    18    1
    84    18    17    1
    85    30    29    1
    86    34    36   ar
    87    34    35   ar
    88    36    38   ar
    89    44    45    1
    90    35    37   ar
    91     3     4    2
    92    38    37   ar
