@<TRIPOS>MOLECULE
tmp/4oxdA00.pdb
 220 218 0 0 0
SMALL
GASTEIGER

@<TRIPOS>ATOM
      1  N        -18.0270    3.1890   39.3090 N.3    68  ARG68      -0.1245
      2  CA       -17.9940    1.7550   39.0220 C.3    68  ARG68       0.1563
      3  C        -16.5640    1.2770   38.8050 C.2    68  ARG68       0.2260
      4  O        -15.8740    1.7520   37.9060 O.2    68  ARG68      -0.2867
      5  CB       -18.8430    1.4300   37.7930 C.3    68  ARG68       0.0307
      6  CG       -20.3180    1.2820   38.1160 C.3    68  ARG68       0.0489
      7  CD       -21.1100    0.6500   36.9810 C.3    68  ARG68       0.2205
      8  NE       -21.9810    1.6100   36.3010 N.pl3  68  ARG68      -0.0865
      9  CZ       -21.6640    2.3020   35.2100 C.cat  68  ARG68       0.5346
     10  NH1      -22.5530    3.1410   34.6890 N.pl3  68  ARG68       0.1354
     11  NH2      -20.4740    2.1600   34.6380 N.pl3  68  ARG68       0.1354
     12  N        -17.3410   -3.3430   36.4580 N.3    73  GLN73      -0.1245
     13  CA       -17.4040   -3.1510   35.0080 C.3    73  GLN73       0.1566
     14  C        -17.3120   -4.4690   34.2440 C.2    73  GLN73       0.2260
     15  O        -18.0170   -4.6650   33.2540 O.2    73  GLN73      -0.2867
     16  CB       -16.2690   -2.2290   34.5460 C.3    73  GLN73       0.0367
     17  CG       -16.5230   -1.5470   33.2150 C.3    73  GLN73       0.0905
     18  CD       -17.6300   -0.5220   33.2950 C.2    73  GLN73       0.2608
     19  OE1      -18.6380   -0.6380   32.6080 O.2    73  GLN73      -0.2717
     20  NE2      -17.4530    0.4830   34.1430 N.am   73  GLN73      -0.0878
     21  N        -20.6310   -6.0050   34.4290 N.3    76  LEU76      -0.1245
     22  CA       -21.6240   -5.1710   33.7570 C.3    76  LEU76       0.1561
     23  C        -21.5160   -5.2910   32.2320 C.2    76  LEU76       0.2260
     24  O        -22.5260   -5.3790   31.5320 O.2    76  LEU76      -0.2867
     25  CB       -21.4660   -3.7100   34.1870 C.3    76  LEU76       0.0270
     26  CG       -22.7180   -2.8380   34.1070 C.3    76  LEU76       0.0019
     27  CD1      -23.7410   -3.2540   35.1540 C.3    76  LEU76       0.0001
     28  CD2      -22.3500   -1.3730   34.2880 C.3    76  LEU76       0.0001
     29  N        -24.3270   -7.1030   29.1770 N.3    80  TYR80      -0.1241
     30  CA       -24.8330   -6.3610   28.0190 C.3    80  TYR80       0.1605
     31  C        -24.4720   -7.0700   26.7160 C.2    80  TYR80       0.2264
     32  O        -25.2290   -7.0250   25.7440 O.2    80  TYR80      -0.2867
     33  CB       -24.2750   -4.9340   27.9910 C.3    80  TYR80       0.0534
     34  CG       -24.8890   -3.9790   28.9960 C.ar   80  TYR80      -0.0201
     35  CD1      -26.2700   -3.8070   29.0770 C.ar   80  TYR80      -0.0009
     36  CD2      -24.0840   -3.2170   29.8430 C.ar   80  TYR80      -0.0009
     37  CE1      -26.8290   -2.9220   29.9860 C.ar   80  TYR80       0.0417
     38  CE2      -24.6350   -2.3290   30.7520 C.ar   80  TYR80       0.0417
     39  CZ       -26.0070   -2.1860   30.8200 C.ar   80  TYR80       0.1957
     40  OH       -26.5590   -1.3060   31.7180 O.3    80  TYR80      -0.2866
     41  N        -26.9140   -9.7100   26.2930 N.3    83  GLN83      -0.1231
     42  CA       -28.1920   -9.1300   25.8780 C.3    83  GLN83       0.1698
     43  C        -28.2910   -8.8340   24.3830 C.2    83  GLN83       0.2592
     44  O        -29.2880   -9.1900   23.7550 O.2    83  GLN83      -0.2718
     45  CB       -28.4810   -7.8390   26.6580 C.3    83  GLN83       0.0381
     46  CG       -29.1810   -8.0480   27.9890 C.3    83  GLN83       0.0905
     47  CD       -30.6400   -8.4390   27.8190 C.2    83  GLN83       0.2608
     48  OE1      -30.9520   -9.6010   27.5490 O.2    83  GLN83      -0.2717
     49  NE2      -31.5430   -7.4710   27.9800 N.am   83  GLN83      -0.0878
     50  N        -27.2810   -8.1630   23.8290 N.am   84  ASP84      -0.1974
     51  CA       -27.3340   -7.6830   22.4370 C.3    84  ASP84       0.1709
     52  C        -26.1690   -8.1190   21.5370 C.2    84  ASP84       0.2293
     53  O        -26.1580   -7.7920   20.3480 O.2    84  ASP84      -0.2864
     54  CB       -27.4300   -6.1550   22.4240 C.3    84  ASP84       0.1436
     55  CG       -28.6220   -5.6330   23.2150 C.2    84  ASP84       0.3671
     56  OD1      -29.7090   -6.2530   23.1500 O.co2  84  ASP84      -0.2456
     57  OD2      -28.4710   -4.5950   23.8970 O.co2  84  ASP84      -0.2456
     58  N        -23.2210   -4.4450   19.2310 N.3    88  ALA88      -0.1245
     59  CA       -24.2560   -3.5430   19.7330 C.3    88  ALA88       0.1562
     60  C        -23.9640   -3.1020   21.1700 C.2    88  ALA88       0.2260
     61  O        -24.2720   -1.9700   21.5470 O.2    88  ALA88      -0.2867
     62  CB       -25.6260   -4.2000   19.6390 C.3    88  ALA88       0.0290
     63  N        -21.4140   -0.1930   21.4940 N.3    91  ARG91      -0.1231
     64  CA       -21.9420    1.1380   21.1650 C.3    91  ARG91       0.1694
     65  C        -22.4140    1.9480   22.3760 C.2    91  ARG91       0.2592
     66  O        -22.5100    3.1740   22.2970 O.2    91  ARG91      -0.2718
     67  CB       -23.0950    1.0240   20.1640 C.3    91  ARG91       0.0321
     68  CG       -22.6810    0.5260   18.7910 C.3    91  ARG91       0.0489
     69  CD       -23.8400    0.6060   17.8120 C.3    91  ARG91       0.2205
     70  NE       -24.2090    1.9910   17.5200 N.pl3  91  ARG91      -0.0865
     71  CZ       -25.2690    2.3660   16.8060 C.cat  91  ARG91       0.5346
     72  NH1      -25.5060    3.6590   16.6030 N.pl3  91  ARG91       0.1354
     73  NH2      -26.0980    1.4600   16.2940 N.pl3  91  ARG91       0.1354
     74  N        -22.7340    1.2720   23.4770 N.am   92  TYR92      -0.1962
     75  CA       -23.2280    1.9570   24.6790 C.3    92  TYR92       0.1771
     76  C        -22.6110    1.4780   25.9950 C.2    92  TYR92       0.2620
     77  O        -23.0260    1.9230   27.0680 O.2    92  TYR92      -0.2715
     78  CB       -24.7480    1.8090   24.7680 C.3    92  TYR92       0.0574
     79  CG       -25.2150    0.4040   25.0780 C.ar   92  TYR92      -0.0198
     80  CD1      -25.3810   -0.5310   24.0650 C.ar   92  TYR92      -0.0009
     81  CD2      -25.4910    0.0120   26.3860 C.ar   92  TYR92      -0.0009
     82  CE1      -25.8140   -1.8190   24.3420 C.ar   92  TYR92       0.0417
     83  CE2      -25.9190   -1.2730   26.6730 C.ar   92  TYR92       0.0417
     84  CZ       -26.0810   -2.1840   25.6480 C.ar   92  TYR92       0.1957
     85  OH       -26.5110   -3.4620   25.9240 O.3    92  TYR92      -0.2866
     86  N        -21.6370    0.5780   25.9260 N.am   93  SER93      -0.1936
     87  CA       -21.0560    0.0090   27.1330 C.3    93  SER93       0.2055
     88  C        -19.5700   -0.2490   26.9360 C.2    93  SER93       0.2642
     89  O        -19.1660   -0.9710   26.0230 O.2    93  SER93      -0.2714
     90  CB       -21.7780   -1.2810   27.5250 C.3    93  SER93       0.2130
     91  OG       -21.2690   -1.7880   28.7440 O.3    93  SER93      -0.2179
     92  N        -18.7690    0.3490   27.8120 N.am   94  ALA94      -0.1977
     93  CA       -17.3210    0.2850   27.7340 C.3    94  ALA94       0.1597
     94  C        -16.8080   -1.0310   28.2860 C.2    94  ALA94       0.2287
     95  O        -17.4190   -1.6310   29.1670 O.2    94  ALA94      -0.2864
     96  CB       -16.7000    1.4430   28.5010 C.3    94  ALA94       0.0319
     97  N        -12.0080    1.0380   30.4870 N.3    98  TYR98      -0.1227
     98  CA       -12.2600    2.1190   29.5310 C.3    98  TYR98       0.1736
     99  C        -13.4440    3.0120   29.9320 C.2    98  TYR98       0.2596
    100  O        -13.7930    3.9490   29.2070 O.2    98  TYR98      -0.2718
    101  CB       -12.5290    1.5310   28.1410 C.3    98  TYR98       0.0548
    102  CG       -11.3900    0.7120   27.5640 C.ar   98  TYR98      -0.0200
    103  CD1      -11.2080   -0.6220   27.9280 C.ar   98  TYR98      -0.0009
    104  CD2      -10.5070    1.2640   26.6310 C.ar   98  TYR98      -0.0009
    105  CE1      -10.1750   -1.3760   27.3940 C.ar   98  TYR98       0.0417
    106  CE2       -9.4710    0.5160   26.0900 C.ar   98  TYR98       0.0417
    107  CZ        -9.3080   -0.8020   26.4780 C.ar   98  TYR98       0.1957
    108  OH        -8.2830   -1.5550   25.9510 O.3    98  TYR98      -0.2866
    109  N        -14.0620    2.7390   31.0780 N.am   99  SER99      -0.1938
    110  CA       -15.2780    3.4540   31.4630 C.3    99  SER99       0.2055
    111  C        -14.9630    4.6970   32.2790 C.2    99  SER99       0.2643
    112  O        -14.1860    4.6520   33.2290 O.2    99  SER99      -0.2714
    113  CB       -16.2180    2.5510   32.2570 C.3    99  SER99       0.2130
    114  OG       -17.4110    3.2430   32.5940 O.3    99  SER99      -0.2179
    115  N        -15.5950    5.8020   31.9020 N.am  100  GLU100     -0.1963
    116  CA       -15.4590    7.0680   32.6110 C.3   100  GLU100      0.1733
    117  C        -15.9460    6.9720   34.0640 C.2   100  GLU100      0.2616
    118  O        -15.4990    7.7320   34.9210 O.2   100  GLU100     -0.2715
    119  CB       -16.2230    8.1700   31.8600 C.3   100  GLU100      0.0429
    120  CG       -15.7070    9.5710   32.1270 C.3   100  GLU100      0.1163
    121  CD       -16.1680   10.5750   31.0920 C.2   100  GLU100      0.3649
    122  OE1      -17.3700   10.5880   30.7550 O.co2 100  GLU100     -0.2457
    123  OE2      -15.3190   11.3660   30.6290 O.co2 100  GLU100     -0.2457
    124  N        -16.8530    6.0370   34.3400 N.am  101  HIS101     -0.1973
    125  CA       -17.3440    5.8300   35.7040 C.3   101  HIS101      0.1656
    126  C        -16.2590    5.3830   36.6800 C.2   101  HIS101      0.2291
    127  O        -16.3890    5.6010   37.8880 O.2   101  HIS101     -0.2864
    128  CB       -18.4710    4.8040   35.7260 C.3   101  HIS101      0.0771
    129  CG       -19.7460    5.3020   35.1330 C.ar  101  HIS101      0.0820
    130  ND1      -20.6990    5.9770   35.8650 N.ar  101  HIS101     -0.2267
    131  CD2      -20.2230    5.2240   33.8710 C.ar  101  HIS101      0.1154
    132  CE1      -21.7240    6.2750   35.0840 C.ar  101  HIS101      0.1986
    133  NE2      -21.4300    5.8820   33.8500 N.ar  101  HIS101     -0.2212
    134  N        -24.6710    8.7740   36.1940 N.3   108  ASP108     -0.1239
    135  CA       -25.9070    8.6770   35.4040 C.3   108  ASP108      0.1674
    136  C        -27.1410    8.9810   36.2530 C.2   108  ASP108      0.2266
    137  O        -27.4980    8.2180   37.1580 O.2   108  ASP108     -0.2867
    138  CB       -26.0800    7.2950   34.7760 C.3   108  ASP108      0.1410
    139  CG       -24.8500    6.8230   34.0460 C.2   108  ASP108      0.3668
    140  OD1      -24.1490    7.6570   33.4330 O.co2 108  ASP108     -0.2456
    141  OD2      -24.5850    5.6030   34.0910 O.co2 108  ASP108     -0.2456
    142  N        -21.8130   12.2420   25.9240 N.3   139  TYR139     -0.1241
    143  CA       -22.0800   11.5560   24.6650 C.3   139  TYR139      0.1605
    144  C        -23.2310   12.2280   23.9320 C.2   139  TYR139      0.2264
    145  O        -24.3770   11.7940   24.0020 O.2   139  TYR139     -0.2867
    146  CB       -22.3290   10.0750   24.9390 C.3   139  TYR139      0.0534
    147  CG       -21.2280    9.5000   25.8050 C.ar  139  TYR139     -0.0201
    148  CD1      -19.9210    9.4350   25.3380 C.ar  139  TYR139     -0.0009
    149  CD2      -21.4770    9.0760   27.1030 C.ar  139  TYR139     -0.0009
    150  CE1      -18.9000    8.9410   26.1280 C.ar  139  TYR139      0.0417
    151  CE2      -20.4600    8.5790   27.8980 C.ar  139  TYR139      0.0417
    152  CZ       -19.1730    8.5160   27.4060 C.ar  139  TYR139      0.1957
    153  OH       -18.1530    8.0230   28.1890 O.3   139  TYR139     -0.2866
    154  N        -19.1810    6.2990   21.4810 N.3   149  TYR149     -0.1227
    155  CA       -20.4560    5.7850   21.9780 C.3   149  TYR149      0.1736
    156  C        -21.6250    6.5550   21.3920 C.2   149  TYR149      0.2595
    157  O        -21.4860    7.7240   21.0330 O.2   149  TYR149     -0.2718
    158  CB       -20.5000    5.8860   23.5040 C.3   149  TYR149      0.0548
    159  CG       -19.3220    5.2300   24.1810 C.ar  149  TYR149     -0.0200
    160  CD1      -19.3260    3.8630   24.4560 C.ar  149  TYR149     -0.0009
    161  CD2      -18.1940    5.9690   24.5290 C.ar  149  TYR149     -0.0009
    162  CE1      -18.2440    3.2520   25.0690 C.ar  149  TYR149      0.0417
    163  CE2      -17.1070    5.3680   25.1400 C.ar  149  TYR149      0.0417
    164  CZ       -17.1380    4.0100   25.4070 C.ar  149  TYR149      0.1957
    165  OH       -16.0630    3.4070   26.0140 O.3   149  TYR149     -0.2866
    166  N        -22.7800    5.8990   21.3070 N.am  150  MET150     -0.1965
    167  CA       -24.0050    6.5670   20.8610 C.3   150  MET150      0.1736
    168  C        -24.4940    7.5650   21.9100 C.2   150  MET150      0.2616
    169  O        -24.0150    7.5740   23.0440 O.2   150  MET150     -0.2715
    170  CB       -25.1060    5.5550   20.5160 C.3   150  MET150      0.0427
    171  CG       -25.6130    4.7110   21.6770 C.3   150  MET150      0.0599
    172  SD       -27.1050    3.7790   21.2710 S.3   150  MET150     -0.1393
    173  CE       -26.6230    2.9430   19.7610 C.3   150  MET150      0.0692
    174  N        -25.4500    8.4000   21.5170 N.am  151  ALA151     -0.1963
    175  CA       -25.9160    9.4940   22.3590 C.3   151  ALA151      0.1728
    176  C        -26.5680    8.9880   23.6480 C.2   151  ALA151      0.2616
    177  O        -27.3140    8.0050   23.6350 O.2   151  ALA151     -0.2715
    178  CB       -26.8750   10.3820   21.5860 C.3   151  ALA151      0.0334
    179  N        -26.2670    9.6680   24.7530 N.am  152  GLU152     -0.1963
    180  CA       -26.7520    9.2910   26.0780 C.3   152  GLU152      0.1733
    181  C        -27.0800   10.5630   26.8590 C.2   152  GLU152      0.2616
    182  O        -26.1930   11.3620   27.1520 O.2   152  GLU152     -0.2715
    183  CB       -25.6870    8.4510   26.8000 C.3   152  GLU152      0.0429
    184  CG       -25.8960    8.2200   28.2950 C.3   152  GLU152      0.1163
    185  CD       -27.2440    7.6180   28.6490 C.2   152  GLU152      0.3649
    186  OE1      -27.6100    7.6250   29.8430 O.co2 152  GLU152     -0.2457
    187  OE2      -27.9430    7.1350   27.7410 O.co2 152  GLU152     -0.2457
    188  N        -28.3540   10.7380   27.2000 N.am  153  GLU153     -0.1963
    189  CA       -28.8340   11.9970   27.7790 C.3   153  GLU153      0.1733
    190  C        -28.4460   12.1820   29.2540 C.2   153  GLU153      0.2616
    191  O        -28.2980   13.3110   29.7250 O.2   153  GLU153     -0.2715
    192  CB       -30.3580   12.1020   27.6450 C.3   153  GLU153      0.0429
    193  CG       -30.8700   12.1970   26.2130 C.3   153  GLU153      0.1163
    194  CD       -31.0160   10.8460   25.5370 C.2   153  GLU153      0.3649
    195  OE1      -31.6490    9.9450   26.1300 O.co2 153  GLU153     -0.2457
    196  OE2      -30.5010   10.6870   24.4080 O.co2 153  GLU153     -0.2457
    197  N        -28.2710   11.0740   29.9680 N.am  154  TRP154     -0.1960
    198  CA       -28.2040   11.0870   31.4310 C.3   154  TRP154      0.1771
    199  C        -26.7830   11.0240   32.0030 C.2   154  TRP154      0.2619
    200  O        -26.5630   11.3760   33.1640 O.2   154  TRP154     -0.2715
    201  CB       -29.0520    9.9380   31.9750 C.3   154  TRP154      0.0590
    202  CG       -30.3600    9.8150   31.2470 C.ar  154  TRP154      0.0006
    203  CD1      -30.7670    8.7830   30.4490 C.ar  154  TRP154      0.0946
    204  CD2      -31.4120   10.7850   31.2150 C.ar  154  TRP154      0.0152
    205  NE1      -32.0180    9.0420   29.9420 N.ar  154  TRP154     -0.2442
    206  CE2      -32.4350   10.2660   30.3960 C.ar  154  TRP154      0.0810
    207  CE3      -31.5930   12.0390   31.8080 C.ar  154  TRP154      0.0012
    208  CZ2      -33.6230   10.9590   30.1570 C.ar  154  TRP154      0.0191
    209  CZ3      -32.7720   12.7270   31.5660 C.ar  154  TRP154      0.0001
    210  CH2      -33.7710   12.1850   30.7490 C.ar  154  TRP154      0.0015
    211  N        -25.8280   10.5980   31.1800 N.am  155  HIS155     -0.1973
    212  CA       -24.4340   10.4570   31.5920 C.3   155  HIS155      0.1656
    213  C        -23.7750   11.8300   31.6410 C.2   155  HIS155      0.2291
    214  O        -23.5480   12.4500   30.6010 O.2   155  HIS155     -0.2864
    215  CB       -23.6910    9.5350   30.6150 C.3   155  HIS155      0.0771
    216  CG       -22.2380    9.3520   30.9250 C.ar  155  HIS155      0.0820
    217  ND1      -21.7000    8.1310   31.2890 N.ar  155  HIS155     -0.2267
    218  CD2      -21.2100   10.2370   30.9540 C.ar  155  HIS155      0.1154
    219  CE1      -20.3960    8.2690   31.4840 C.ar  155  HIS155      0.1986
    220  NE2      -20.0800    9.5390   31.3000 N.ar  155  HIS155     -0.2212
@<TRIPOS>BOND
     1    73    71    1
     2    72    71    1
     3    71    70    2
     4    70    69    1
     5    69    68    1
     6    68    67    1
     7    58    59    1
     8    62    59    1
     9    59    60    1
    10   173   172    1
    11    67    64    1
    12    53    52    2
    13   170   167    1
    14   170   171    1
    15   167   166    1
    16   167   168    1
    17   157   156    2
    18    64    63    1
    19    64    65    1
    20    60    61    2
    21   172   171    1
    22   166   156   am
    23   156   155    1
    24   154   155    1
    25   174   168   am
    26   174   175    1
    27    52    51    1
    28   178   175    1
    29   168   169    2
    30   155   158    1
    31    66    65    2
    32   175   176    1
    33    65    74   am
    34    54    51    1
    35    54    55    1
    36    51    50    1
    37    56    55   ar
    38    55    57   ar
    39    74    75    1
    40   158   159    1
    41   177   176    2
    42   176   179   am
    43    44    43    2
    44    50    43   am
    45   144   145    2
    46   144   143    1
    47    80    82   ar
    48    80    79   ar
    49   159   160   ar
    50   159   161   ar
    51    82    84   ar
    52    43    42    1
    53   196   194   ar
    54   160   162   ar
    55   161   163   ar
    56   143   146    1
    57   143   142    1
    58    75    78    1
    59    75    76    1
    60   179   180    1
    61    78    79    1
    62   146   147    1
    63   162   164   ar
    64    79    81   ar
    65   163   164   ar
    66   148   147   ar
    67   148   150   ar
    68   164   165    1
    69   194   195   ar
    70   194   193    1
    71    84    85    1
    72    84    83   ar
    73    32    31    2
    74   147   149   ar
    75    42    41    1
    76    42    45    1
    77    86    76   am
    78    86    87    1
    79   108   107    1
    80    76    77    2
    81    89    88    2
    82   180   183    1
    83   180   181    1
    84   106   107   ar
    85   106   104   ar
    86   150   152   ar
    87   193   192    1
    88    81    83   ar
    89   107   105   ar
    90   104   102   ar
    91    45    46    1
    92    31    30    1
    93   183   184    1
    94   181   182    2
    95   181   188   am
    96    88    87    1
    97    88    92   am
    98   149   151   ar
    99    87    90    1
   100   188   189    1
   101   105   103   ar
   102   152   151   ar
   103   152   153    1
   104    90    91    1
   105    48    47    2
   106   102   103   ar
   107   102   101    1
   108   192   189    1
   109    93    92    1
   110    93    94    1
   111    93    96    1
   112   187   185   ar
   113   189   190    1
   114    47    49   am
   115    47    46    1
   116    33    30    1
   117    33    34    1
   118    30    29    1
   119   101    98    1
   120    94    95    2
   121   184   185    1
   122   185   186   ar
   123    34    35   ar
   124    34    36   ar
   125    35    37   ar
   126   100    99    2
   127   190   191    2
   128   190   197   am
   129    98    99    1
   130    98    97    1
   131    36    38   ar
   132    99   109   am
   133   205   206   ar
   134   205   203   ar
   135   197   198    1
   136    37    39   ar
   137   208   206   ar
   138   208   210   ar
   139   206   204   ar
   140   203   202   ar
   141   214   213    2
   142   215   216    1
   143   215   212    1
   144   123   121   ar
   145   210   209   ar
   146    38    39   ar
   147   122   121   ar
   148    39    40    1
   149   216   218   ar
   150   216   217   ar
   151   218   220   ar
   152   109   110    1
   153   121   120    1
   154   211   212    1
   155   211   199   am
   156   204   202   ar
   157   204   207   ar
   158   202   201    1
   159   217   219   ar
   160   220   219   ar
   161   198   201    1
   162   198   199    1
   163   110   113    1
   164   110   111    1
   165    24    23    2
   166   209   207   ar
   167   212   213    1
   168   119   120    1
   169   119   116    1
   170   115   111   am
   171   115   116    1
   172   199   200    2
   173    23    22    1
   174   113   114    1
   175   111   112    2
   176    19    18    2
   177   116   117    1
   178    17    18    1
   179    17    16    1
   180    15    14    2
   181    18    20   am
   182   140   139   ar
   183    22    25    1
   184    22    21    1
   185   133   131   ar
   186   133   132   ar
   187   131   129   ar
   188   139   141   ar
   189   139   138    1
   190   117   124   am
   191   117   118    2
   192    26    25    1
   193    26    28    1
   194    26    27    1
   195    14    13    1
   196   124   125    1
   197    16    13    1
   198    11     9    1
   199    10     9    1
   200   138   135    1
   201    13    12    1
   202   132   130   ar
   203   129   128    1
   204   129   130   ar
   205     9     8    2
   206   135   134    1
   207   135   136    1
   208   125   128    1
   209   125   126    1
   210   136   137    2
   211     8     7    1
   212   126   127    2
   213     7     6    1
   214     5     6    1
   215     5     2    1
   216     4     3    2
   217     3     2    1
   218     2     1    1
