@<TRIPOS>MOLECULE
tmp/4oxdB00.pdb
 100 94 0 0 0
SMALL
GASTEIGER

@<TRIPOS>ATOM
      1  N        -42.2940  -21.7930   58.1490 N.3    91  ARG91      -0.1245
      2  CA       -41.6740  -20.5370   58.5810 C.3    91  ARG91       0.1563
      3  C        -41.1320  -19.6930   57.4300 C.2    91  ARG91       0.2260
      4  O        -41.1540  -18.4660   57.5070 O.2    91  ARG91      -0.2867
      5  CB       -40.5540  -20.8070   59.5850 C.3    91  ARG91       0.0307
      6  CG       -41.0370  -21.4270   60.8840 C.3    91  ARG91       0.0489
      7  CD       -39.9380  -21.4210   61.9280 C.3    91  ARG91       0.2205
      8  NE       -39.6620  -20.0710   62.4230 N.pl3  91  ARG91      -0.0865
      9  CZ       -38.5820  -19.7160   63.1200 C.cat  91  ARG91       0.5346
     10  NH1      -38.4430  -18.4550   63.5140 N.pl3  91  ARG91       0.1354
     11  NH2      -37.6360  -20.6020   63.4220 N.pl3  91  ARG91       0.1354
     12  N        -39.8980   -8.3060   56.8940 N.3   139  LEU139     -0.1231
     13  CA       -38.9000   -7.5430   57.6440 C.3   139  LEU139      0.1693
     14  C        -38.5200   -8.1940   58.9680 C.2   139  LEU139      0.2592
     15  O        -39.3300   -8.8820   59.5930 O.2   139  LEU139     -0.2718
     16  CB       -39.4400   -6.1450   57.9440 C.3   139  LEU139      0.0284
     17  CG       -39.7640   -5.2670   56.7410 C.3   139  LEU139      0.0019
     18  CD1      -40.7050   -4.1450   57.1450 C.3   139  LEU139      0.0001
     19  CD2      -38.4880   -4.7110   56.1300 C.3   139  LEU139      0.0001
     20  N        -37.2890   -7.9370   59.4000 N.am  140  LYS140     -0.1966
     21  CA       -36.7890   -8.4260   60.6800 C.3   140  LYS140      0.1728
     22  C        -37.6430   -7.9040   61.8340 C.2   140  LYS140      0.2616
     23  O        -37.7070   -6.6980   62.0690 O.2   140  LYS140     -0.2715
     24  CB       -35.3380   -7.9860   60.8730 C.3   140  LYS140      0.0311
     25  CG       -34.3410   -8.7240   59.9880 C.3   140  LYS140      0.0038
     26  CD       -33.3160   -7.7880   59.3590 C.3   140  LYS140      0.0206
     27  CE       -32.5030   -7.0220   60.3920 C.3   140  LYS140      0.1093
     28  NZ       -31.4960   -6.1410   59.7390 N.3   140  LYS140     -0.1314
     29  N        -38.3020   -8.8210   62.5390 N.am  141  GLY141     -0.1955
     30  CA       -39.1220   -8.4710   63.6960 C.3   141  GLY141      0.1869
     31  C        -39.5910   -9.6970   64.4580 C.2   141  GLY141      0.2309
     32  O        -39.5670  -10.8150   63.9360 O.2   141  GLY141     -0.2863
     33  N        -46.7770  -10.9200   62.8170 N.3   142  GLU142     -0.1231
     34  CA       -47.5660  -10.0700   61.9290 C.3   142  GLU142      0.1699
     35  C        -47.6250  -10.6200   60.5040 C.2   142  GLU142      0.2593
     36  O        -48.7010  -10.9260   59.9990 O.2   142  GLU142     -0.2718
     37  CB       -47.0070   -8.6420   61.9040 C.3   142  GLU142      0.0402
     38  CG       -47.1980   -7.8660   63.2020 C.3   142  GLU142      0.1161
     39  CD       -46.0150   -7.9620   64.1490 C.2   142  GLU142      0.3649
     40  OE1      -45.3000   -8.9890   64.1350 O.co2 142  GLU142     -0.2457
     41  OE2      -45.8040   -6.9990   64.9160 O.co2 142  GLU142     -0.2457
     42  N        -46.4650  -10.7420   59.8650 N.am  143  THR143     -0.1939
     43  CA       -46.3900  -11.1640   58.4640 C.3   143  THR143      0.2028
     44  C        -46.7320  -12.6380   58.2880 C.2   143  THR143      0.2643
     45  O        -47.4540  -13.0060   57.3590 O.2   143  THR143     -0.2714
     46  CB       -44.9850  -10.9370   57.8740 C.3   143  THR143      0.1808
     47  OG1      -44.0110  -11.6580   58.6440 O.3   143  THR143     -0.2208
     48  CG2      -44.6370   -9.4490   57.8510 C.3   143  THR143      0.0379
     49  N        -46.1920  -13.4680   59.1780 N.am  144  GLY144     -0.1939
     50  CA       -46.4150  -14.9120   59.1540 C.3   144  GLY144      0.2014
     51  C        -45.1370  -15.6980   58.9210 C.2   144  GLY144      0.2639
     52  O        -45.0370  -16.8580   59.3260 O.2   144  GLY144     -0.2714
     53  N        -44.1590  -15.0670   58.2690 N.am  145  TYR145     -0.1959
     54  CA       -42.9130  -15.7390   57.8920 C.3   145  TYR145      0.1771
     55  C        -41.7070  -15.0630   58.5270 C.2   145  TYR145      0.2619
     56  O        -41.7500  -13.8730   58.8400 O.2   145  TYR145     -0.2715
     57  CB       -42.7570  -15.7460   56.3690 C.3   145  TYR145      0.0574
     58  CG       -43.9850  -16.2430   55.6420 C.ar  145  TYR145     -0.0198
     59  CD1      -45.0160  -15.3690   55.3110 C.ar  145  TYR145     -0.0009
     60  CD2      -44.1210  -17.5850   55.2910 C.ar  145  TYR145     -0.0009
     61  CE1      -46.1470  -15.8130   54.6510 C.ar  145  TYR145      0.0417
     62  CE2      -45.2520  -18.0390   54.6260 C.ar  145  TYR145      0.0417
     63  CZ       -46.2620  -17.1460   54.3100 C.ar  145  TYR145      0.1957
     64  OH       -47.3940  -17.5710   53.6590 O.3   145  TYR145     -0.2866
     65  N        -40.6310  -15.8270   58.7050 N.am  146  MET146     -0.1963
     66  CA       -39.3890  -15.2970   59.2640 C.3   146  MET146      0.1736
     67  C        -38.6990  -14.3830   58.2530 C.2   146  MET146      0.2616
     68  O        -39.0810  -14.3370   57.0810 O.2   146  MET146     -0.2715
     69  CB       -38.4500  -16.4320   59.6890 C.3   146  MET146      0.0427
     70  CG       -37.7400  -17.1440   58.5470 C.3   146  MET146      0.0599
     71  SD       -36.9150  -18.6620   59.0680 S.3   146  MET146     -0.1393
     72  CE       -35.7160  -18.8310   57.7480 C.3   146  MET146      0.0692
     73  N        -37.6760  -13.6690   58.7140 N.am  147  ALA147     -0.1977
     74  CA       -37.0130  -12.6490   57.9020 C.3   147  ALA147      0.1597
     75  C        -36.5470  -13.1950   56.5520 C.2   147  ALA147      0.2287
     76  O        -36.0770  -14.3310   56.4570 O.2   147  ALA147     -0.2864
     77  CB       -35.8400  -12.0460   58.6620 C.3   147  ALA147      0.0319
     78  N        -41.5310    1.7440   58.7250 N.3   166  GLY166     -0.1225
     79  CA       -40.8640    0.6140   59.3550 C.3   166  GLY166      0.1811
     80  C        -41.8330   -0.5020   59.7130 C.2   166  GLY166      0.2280
     81  O        -41.4840   -1.4050   60.4740 O.2   166  GLY166     -0.2866
     82  N        -44.9170   -3.5570   58.7170 N.3   168  SER168     -0.1217
     83  CA       -45.3710   -4.5390   57.7410 C.3   168  SER168      0.1889
     84  C        -46.6160   -4.0100   57.0310 C.2   168  SER168      0.2288
     85  O        -47.2270   -3.0380   57.4870 O.2   168  SER168     -0.2866
     86  CB       -45.6980   -5.8600   58.4370 C.3   168  SER168      0.2089
     87  OG       -46.6950   -5.6800   59.4310 O.3   168  SER168     -0.2183
     88  N        -49.4260   -4.3840   59.5270 N.3   171  GLU171     -0.1245
     89  CA       -49.4090   -3.2460   60.4500 C.3   171  GLU171      0.1567
     90  C        -49.8320   -1.9400   59.7830 C.2   171  GLU171      0.2260
     91  O        -50.6880   -1.2250   60.2980 O.2   171  GLU171     -0.2867
     92  CB       -48.0100   -3.0740   61.0540 C.3   171  GLU171      0.0388
     93  CG       -47.6880   -4.0510   62.1720 C.3   171  GLU171      0.1160
     94  CD       -46.2100   -4.0690   62.5180 C.2   171  GLU171      0.3649
     95  OE1      -45.4040   -4.5070   61.6670 O.co2 171  GLU171     -0.2457
     96  OE2      -45.8540   -3.6550   63.6440 O.co2 171  GLU171     -0.2457
     97  N        -50.4330  -13.3320   60.5380 N.3   178  GLY178     -0.1225
     98  CA       -50.1680  -14.4330   61.4630 C.3   178  GLY178      0.1811
     99  C        -50.2390  -15.8240   60.8560 C.2   178  GLY178      0.2280
    100  O        -49.9420  -16.0100   59.6790 O.2   178  GLY178     -0.2866
@<TRIPOS>BOND
     1    64    63    1
     2    63    62   ar
     3    63    61   ar
     4    62    60   ar
     5    61    59   ar
     6    60    58   ar
     7    59    58   ar
     8    58    57    1
     9    19    17    1
    10    57    54    1
    11    76    75    2
    12    75    74    1
    13    17    18    1
    14    17    16    1
    15    12    13    1
    16    84    85    2
    17    84    83    1
    18    68    67    2
    19    45    44    2
    20     3     4    2
    21     3     2    1
    22    13    16    1
    23    13    14    1
    24    83    86    1
    25    83    82    1
    26    72    71    1
    27    48    46    1
    28    46    43    1
    29    46    47    1
    30    54    53    1
    31    54    55    1
    32    74    77    1
    33    74    73    1
    34     1     2    1
    35    67    73   am
    36    67    66    1
    37    53    51   am
    38    44    43    1
    39    44    49   am
    40    86    87    1
    41    43    42    1
    42    55    65   am
    43    55    56    2
    44    70    71    1
    45    70    69    1
    46     2     5    1
    47    65    66    1
    48    78    79    1
    49    51    50    1
    50    51    52    2
    51    14    20   am
    52    14    15    2
    53    50    49    1
    54    66    69    1
    55    79    80    1
    56    26    25    1
    57    26    27    1
    58    20    21    1
    59    88    89    1
    60     5     6    1
    61   100    99    2
    62    80    81    2
    63    28    27    1
    64    90    91    2
    65    90    89    1
    66    42    35   am
    67    25    24    1
    68    36    35    2
    69    89    92    1
    70    35    34    1
    71    97    98    1
    72    21    24    1
    73    21    22    1
    74    99    98    1
    75     6     7    1
    76    92    93    1
    77    95    94   ar
    78    22    23    2
    79    22    29   am
    80    37    34    1
    81    37    38    1
    82     7     8    1
    83    34    33    1
    84    93    94    1
    85     8     9    2
    86    94    96   ar
    87    29    30    1
    88     9    11    1
    89     9    10    1
    90    38    39    1
    91    30    31    1
    92    32    31    2
    93    40    39   ar
    94    39    41   ar
