@<TRIPOS>MOLECULE
tmp/4oxiA00.pdb
 185 177 0 0 0
SMALL
GASTEIGER

@<TRIPOS>ATOM
      1  N         45.1510   24.1640    4.1720 N.3   226  PHE226     -0.1227
      2  CA        43.7360   23.7460    4.0900 C.3   226  PHE226      0.1736
      3  C         42.9420   25.0190    3.7990 C.2   226  PHE226      0.2595
      4  O         43.1770   26.0540    4.4520 O.2   226  PHE226     -0.2718
      5  CB        43.2980   23.1560    5.4430 C.3   226  PHE226      0.0547
      6  CG        41.9670   22.4390    5.4190 C.ar  226  PHE226     -0.0202
      7  CD1       41.3550   22.0790    4.2170 C.ar  226  PHE226     -0.0042
      8  CD2       41.3180   22.1230    6.6120 C.ar  226  PHE226     -0.0042
      9  CE1       40.1200   21.4160    4.2000 C.ar  226  PHE226     -0.0003
     10  CE2       40.0810   21.4570    6.6080 C.ar  226  PHE226     -0.0003
     11  CZ        39.4860   21.1030    5.3990 C.ar  226  PHE226     -0.0000
     12  N         42.0230   24.9760    2.8310 N.am  227  ASP227     -0.1960
     13  CA        41.3720   26.2210    2.4210 C.3   227  ASP227      0.1840
     14  C         40.4300   26.8590    3.4580 C.2   227  ASP227      0.2621
     15  O         40.0380   28.0110    3.2980 O.2   227  ASP227     -0.2715
     16  CB        40.7410   26.1370    1.0180 C.3   227  ASP227      0.1450
     17  CG        39.5110   25.2410    0.9630 C.2   227  ASP227      0.3671
     18  OD1       39.0890   24.6950    2.0130 O.co2 227  ASP227     -0.2456
     19  OD2       38.9460   25.1010   -0.1510 O.co2 227  ASP227     -0.2456
     20  N         40.0950   26.1370    4.5270 N.am  228  LEU228     -0.1977
     21  CA        39.3780   26.7560    5.6500 C.3   228  LEU228      0.1596
     22  C         40.1490   27.9390    6.2210 C.2   228  LEU228      0.2287
     23  O         39.5440   28.8780    6.7500 O.2   228  LEU228     -0.2864
     24  CB        39.1000   25.7520    6.7640 C.3   228  LEU228      0.0297
     25  CG        38.1860   24.5640    6.4220 C.3   228  LEU228      0.0022
     26  CD1       37.7230   23.8800    7.7040 C.3   228  LEU228      0.0001
     27  CD2       36.9840   25.0060    5.5970 C.3   228  LEU228      0.0001
     28  N         32.9970   22.5460    8.6610 N.3   296  CYS296     -0.1221
     29  CA        33.1100   22.1340    7.2690 C.3   296  CYS296      0.1808
     30  C         34.0550   20.9660    7.1810 C.2   296  CYS296      0.2602
     31  O         34.9800   20.8470    8.0000 O.2   296  CYS296     -0.2717
     32  CB        33.6800   23.2700    6.4140 C.3   296  CYS296      0.0970
     33  SG        33.6640   22.9310    4.6130 S.3   296  CYS296     -0.0800
     34  N         33.8390   20.1010    6.1970 N.am  297  GLY297     -0.1942
     35  CA        34.8370   19.0980    5.8810 C.3   297  GLY297      0.2014
     36  C         34.4270   17.6520    6.0470 C.2   297  GLY297      0.2639
     37  O         34.9380   16.7900    5.3260 O.2   297  GLY297     -0.2714
     38  N         33.5390   17.3880    7.0060 N.am  298  GLN298     -0.1963
     39  CA        33.0640   16.0390    7.3030 C.3   298  GLN298      0.1733
     40  C         31.6020   16.1150    7.6910 C.2   298  GLN298      0.2616
     41  O         31.1160   17.1860    8.0770 O.2   298  GLN298     -0.2715
     42  CB        33.8090   15.4470    8.5010 C.3   298  GLN298      0.0408
     43  CG        35.2690   15.7480    8.5340 C.3   298  GLN298      0.0908
     44  CD        35.9420   15.1930    9.7640 C.2   298  GLN298      0.2608
     45  OE1       36.3400   15.9450   10.6620 O.2   298  GLN298     -0.2717
     46  NE2       36.0790   13.8650    9.8160 N.am  298  GLN298     -0.0878
     47  N         30.9150   14.9770    7.6250 N.am  299  ALA299     -0.1963
     48  CA        29.5120   14.8920    8.0340 C.3   299  ALA299      0.1728
     49  C         29.3250   15.4230    9.4470 C.2   299  ALA299      0.2616
     50  O         30.0140   14.9940   10.3830 O.2   299  ALA299     -0.2715
     51  CB        29.0000   13.4610    7.9300 C.3   299  ALA299      0.0334
     52  N         28.4240   16.3940    9.5900 N.am  300  LEU300     -0.1977
     53  CA        28.1270   16.9680   10.9000 C.3   300  LEU300      0.1596
     54  C         26.9820   16.1740   11.5080 C.2   300  LEU300      0.2287
     55  O         25.8860   16.1250   10.9470 O.2   300  LEU300     -0.2864
     56  CB        27.7390   18.4430   10.7610 C.3   300  LEU300      0.0297
     57  CG        27.4060   19.2060   12.0390 C.3   300  LEU300      0.0022
     58  CD1       28.5820   19.1540   13.0020 C.3   300  LEU300      0.0001
     59  CD2       27.0450   20.6480   11.7260 C.3   300  LEU300      0.0001
     60  N         26.4140   24.5480    9.1820 N.3   318  ASN318     -0.1225
     61  CA        27.1000   23.4690    8.4630 C.3   318  ASN318      0.1785
     62  C         27.5130   24.0240    7.1130 C.2   318  ASN318      0.2597
     63  O         26.6780   24.5900    6.4150 O.2   318  ASN318     -0.2718
     64  CB        26.1700   22.2540    8.2770 C.3   318  ASN318      0.1169
     65  CG        26.9100   20.9960    7.8060 C.2   318  ASN318      0.2627
     66  OD1       28.1430   20.9340    7.8280 O.2   318  ASN318     -0.2716
     67  ND2       26.1490   19.9740    7.4080 N.am  318  ASN318     -0.0877
     68  N         28.7880   23.9040    6.7490 N.am  319  LEU319     -0.1966
     69  CA        29.2390   24.3670    5.4340 C.3   319  LEU319      0.1728
     70  C         29.7480   23.1750    4.6510 C.2   319  LEU319      0.2616
     71  O         30.4230   22.3180    5.2220 O.2   319  LEU319     -0.2715
     72  CB        30.3840   25.3720    5.5590 C.3   319  LEU319      0.0311
     73  CG        30.1670   26.7530    6.1580 C.3   319  LEU319      0.0022
     74  CD1       31.4790   27.5890    6.1600 C.3   319  LEU319      0.0001
     75  CD2       29.1110   27.4480    5.3730 C.3   319  LEU319      0.0001
     76  N         29.4500   23.1230    3.3510 N.am  320  TYR320     -0.1960
     77  CA        29.9440   22.0410    2.5030 C.3   320  TYR320      0.1771
     78  C         30.6030   22.5660    1.2300 C.2   320  TYR320      0.2620
     79  O         30.1200   23.5140    0.6100 O.2   320  TYR320     -0.2715
     80  CB        28.8300   21.0250    2.1290 C.3   320  TYR320      0.0574
     81  CG        29.1570   20.2650    0.8570 C.ar  320  TYR320     -0.0198
     82  CD1       29.8330   19.0450    0.9020 C.ar  320  TYR320     -0.0009
     83  CD2       28.8340   20.7860   -0.3950 C.ar  320  TYR320     -0.0009
     84  CE1       30.1690   18.3680   -0.2710 C.ar  320  TYR320      0.0417
     85  CE2       29.1790   20.1260   -1.5650 C.ar  320  TYR320      0.0417
     86  CZ        29.8340   18.9150   -1.4970 C.ar  320  TYR320      0.1957
     87  OH        30.1650   18.2560   -2.6680 O.3   320  TYR320     -0.2866
     88  N         31.6840   21.9040    0.8240 N.am  321  GLY321     -0.1940
     89  CA        32.2910   22.1400   -0.4680 C.3   321  GLY321      0.1998
     90  C         33.7020   21.5760   -0.5290 C.2   321  GLY321      0.2481
     91  O         34.3510   21.3840    0.5100 O.2   321  GLY321     -0.2729
     92  N         34.1740   21.2820   -1.7470 N.am  322  PRO322     -0.2715
     93  CA        35.5370   20.7990   -1.9630 C.3   322  PRO322      0.1536
     94  C         36.4600   21.9630   -2.3050 C.2   322  PRO322      0.2599
     95  O         35.9900   23.0400   -2.7060 O.2   322  PRO322     -0.2715
     96  CB        35.3770   19.8820   -3.1750 C.3   322  PRO322      0.0310
     97  CG        34.3060   20.5600   -3.9870 C.3   322  PRO322      0.0237
     98  CD        33.3610   21.2030   -2.9760 C.3   322  PRO322      0.0939
     99  N         37.7600   21.7440   -2.1510 N.am  323  THR323     -0.1951
    100  CA        38.7480   22.7580   -2.4670 C.3   323  THR323      0.1897
    101  C         38.5930   23.2010   -3.9130 C.2   323  THR323      0.2313
    102  O         38.8160   24.3740   -4.2400 O.2   323  THR323     -0.2863
    103  CB        40.1610   22.2070   -2.2090 C.3   323  THR323      0.1794
    104  OG1       40.2580   21.8180   -0.8270 O.3   323  THR323     -0.2208
    105  CG2       41.2460   23.2520   -2.5320 C.3   323  THR323      0.0378
    106  N         36.4640   26.5430   -1.1340 N.3   327  ILE327     -0.1245
    107  CA        36.0980   26.4710    0.2910 C.3   327  ILE327      0.1561
    108  C         34.7510   25.7930    0.6000 C.2   327  ILE327      0.2260
    109  O         34.7170   24.6180    0.9780 O.2   327  ILE327     -0.2867
    110  CB        36.1890   27.8410    0.9660 C.3   327  ILE327      0.0252
    111  CG1       37.4910   28.5500    0.5610 C.3   327  ILE327      0.0019
    112  CG2       36.0820   27.6920    2.4790 C.3   327  ILE327      0.0019
    113  CD1       37.6030   29.9850    1.1130 C.3   327  ILE327      0.0001
    114  N         23.6190   19.4030    4.4030 N.3   345  ILE345     -0.1245
    115  CA        24.6110   20.3560    3.8950 C.3   345  ILE345      0.1561
    116  C         23.9000   21.5620    3.2760 C.2   345  ILE345      0.2260
    117  O         24.5200   22.5850    2.9800 O.2   345  ILE345     -0.2867
    118  CB        25.5910   19.7170    2.8850 C.3   345  ILE345      0.0252
    119  CG1       24.8510   18.9910    1.7610 C.3   345  ILE345      0.0019
    120  CG2       26.5160   18.7320    3.5880 C.3   345  ILE345      0.0019
    121  CD1       25.7930   18.5820    0.5840 C.3   345  ILE345      0.0001
    122  N         31.7150   16.0860   -8.0370 N.3   410  SER410     -0.1217
    123  CA        32.2240   16.1920   -6.6770 C.3   410  SER410      0.1889
    124  C         32.6400   14.8390   -6.1290 C.2   410  SER410      0.2288
    125  O         33.5720   14.7380   -5.3180 O.2   410  SER410     -0.2866
    126  CB        31.1630   16.8110   -5.7610 C.3   410  SER410      0.2089
    127  OG        30.1120   15.8890   -5.5360 O.3   410  SER410     -0.2183
    128  N         30.6250   13.2770   -4.3790 N.3   412  ASP412     -0.1239
    129  CA        29.7670   13.1690   -3.2010 C.3   412  ASP412      0.1674
    130  C         28.3670   12.7020   -3.5980 C.2   412  ASP412      0.2266
    131  O         27.7660   13.2150   -4.5530 O.2   412  ASP412     -0.2867
    132  CB        29.6790   14.5140   -2.4700 C.3   412  ASP412      0.1410
    133  CG        31.0150   14.9600   -1.8890 C.2   412  ASP412      0.3668
    134  OD1       31.5930   14.1870   -1.0970 O.co2 412  ASP412     -0.2456
    135  OD2       31.4920   16.0700   -2.2330 O.co2 412  ASP412     -0.2456
    136  N         24.0920   14.7950    2.8270 N.3   423  HIS423     -0.1241
    137  CA        25.2860   14.1280    2.3100 C.3   423  HIS423      0.1621
    138  C         25.2610   12.6900    2.7610 C.2   423  HIS423      0.2264
    139  O         25.1830   12.4340    3.9530 O.2   423  HIS423     -0.2867
    140  CB        26.5640   14.8080    2.8210 C.3   423  HIS423      0.0745
    141  CG        27.8290   14.2090    2.2840 C.ar  423  HIS423      0.0817
    142  ND1       28.4180   13.0910    2.8360 N.ar  423  HIS423     -0.2268
    143  CD2       28.6220   14.5760    1.2460 C.ar  423  HIS423      0.1154
    144  CE1       29.5170   12.7940    2.1610 C.ar  423  HIS423      0.1986
    145  NE2       29.6620   13.6760    1.1900 N.ar  423  HIS423     -0.2212
    146  N         30.3320    8.7910   -0.4340 N.3   426  ARG426     -0.1245
    147  CA        31.1090    9.0040   -1.6460 C.3   426  ARG426      0.1563
    148  C         31.1410    7.7380   -2.4870 C.2   426  ARG426      0.2260
    149  O         30.9330    6.6430   -1.9770 O.2   426  ARG426     -0.2867
    150  CB        32.5420    9.4340   -1.2930 C.3   426  ARG426      0.0307
    151  CG        32.6470   10.8560   -0.7480 C.3   426  ARG426      0.0489
    152  CD        34.0940   11.3760   -0.7290 C.3   426  ARG426      0.2205
    153  NE        34.7310   11.3470   -2.0460 N.pl3 426  ARG426     -0.0865
    154  CZ        34.6460   12.3110   -2.9580 C.cat 426  ARG426      0.5346
    155  NH1       33.9190   13.3990   -2.7150 N.pl3 426  ARG426      0.1354
    156  NH2       35.2830   12.1820   -4.1270 N.pl3 426  ARG426      0.1354
    157  N         38.1650    8.5190   -1.2250 N.3   430  GLN430     -0.1245
    158  CA        38.6610    9.7380   -0.6020 C.3   430  GLN430      0.1566
    159  C         38.0080    9.8220    0.7690 C.2   430  GLN430      0.2260
    160  O         36.7890    9.6470    0.8970 O.2   430  GLN430     -0.2867
    161  CB        38.2880   10.9680   -1.4390 C.3   430  GLN430      0.0367
    162  CG        38.8230   12.2870   -0.8790 C.3   430  GLN430      0.0905
    163  CD        38.2170   13.5120   -1.5620 C.2   430  GLN430      0.2608
    164  OE1       38.3570   13.7030   -2.7750 O.2   430  GLN430     -0.2717
    165  NE2       37.5390   14.3450   -0.7800 N.am  430  GLN430     -0.0878
    166  N         38.5250   11.6210    5.0510 N.3   432  LYS432     -0.1245
    167  CA        39.2810   12.4910    5.9320 C.3   432  LYS432      0.1561
    168  C         39.9070   11.6320    7.0390 C.2   432  LYS432      0.2260
    169  O         39.2370   10.7940    7.6500 O.2   432  LYS432     -0.2867
    170  CB        38.3660   13.5790    6.5210 C.3   432  LYS432      0.0271
    171  CG        38.2250   14.8420    5.6500 C.3   432  LYS432      0.0035
    172  CD        37.4210   14.5750    4.3770 C.3   432  LYS432      0.0206
    173  CE        37.6420   15.6650    3.3050 C.3   432  LYS432      0.1093
    174  NZ        37.3530   17.0080    3.8370 N.3   432  LYS432     -0.1314
    175  N         42.0010   15.6700    4.1500 N.3   437  ARG437     -0.1245
    176  CA        41.6420   14.9520    2.9280 C.3   437  ARG437      0.1563
    177  C         42.7650   14.0360    2.4220 C.2   437  ARG437      0.2260
    178  O         43.9140   14.4520    2.3290 O.2   437  ARG437     -0.2867
    179  CB        41.3180   15.9780    1.8490 C.3   437  ARG437      0.0307
    180  CG        40.9850   15.4120    0.4810 C.3   437  ARG437      0.0489
    181  CD        40.5220   16.5310   -0.4480 C.3   437  ARG437      0.2205
    182  NE        40.5720   16.1550   -1.8600 N.pl3 437  ARG437     -0.0865
    183  CZ        40.0170   16.8630   -2.8430 C.cat 437  ARG437      0.5346
    184  NH1       39.3500   17.9860   -2.5710 N.pl3 437  ARG437      0.1354
    185  NH2       40.1180   16.4420   -4.0980 N.pl3 437  ARG437      0.1354
@<TRIPOS>BOND
     1   122   123    1
     2   123   124    1
     3   123   126    1
     4   124   125    2
     5   126   127    1
     6   131   130    2
     7   128   129    1
     8   102   101    2
     9   156   154    1
    10   185   183    1
    11    97    96    1
    12    97    98    1
    13   101   100    1
    14   130   129    1
    15   129   132    1
    16    96    93    1
    17    98    92    1
    18   154   155    1
    19   154   153    2
    20   183   184    1
    21   183   182    2
    22   164   163    2
    23    95    94    2
    24    87    86    1
    25   105   103    1
    26   148   149    2
    27   148   147    1
    28   132   133    1
    29   100   103    1
    30   100    99    1
    31    94    99   am
    32    94    93    1
    33   135   133   ar
    34   103   104    1
    35   153   152    1
    36    93    92    1
    37   133   134   ar
    38   182   181    1
    39    92    90   am
    40   147   150    1
    41   147   146    1
    42    85    86   ar
    43    85    83   ar
    44   163   162    1
    45   163   165   am
    46    86    84   ar
    47   161   162    1
    48   161   158    1
    49   150   151    1
    50   157   158    1
    51   106   107    1
    52   151   152    1
    53   158   159    1
    54    90    89    1
    55    90    91    2
    56    89    88    1
    57   181   180    1
    58    83    81   ar
    59    84    82   ar
    60    19    17   ar
    61   107   108    1
    62   107   110    1
    63   180   179    1
    64   111   110    1
    65   111   113    1
    66   121   119    1
    67   108   109    2
    68    79    78    2
    69   159   160    2
    70    88    78   am
    71    81    82   ar
    72    81    80    1
    73    17    16    1
    74    17    18   ar
    75   110   112    1
    76    16    13    1
    77   145   143   ar
    78   145   144   ar
    79    78    77    1
    80   143   141   ar
    81   119   118    1
    82   179   176    1
    83    80    77    1
    84   144   142   ar
    85   141   140    1
    86   141   142   ar
    87   137   138    1
    88   137   140    1
    89   137   136    1
    90   178   177    2
    91    13    12    1
    92    13    14    1
    93   177   176    1
    94    77    76    1
    95   138   139    2
    96    12     3   am
    97   118   120    1
    98   118   115    1
    99   176   175    1
   100   117   116    2
   101   116   115    1
   102    15    14    2
   103   173   174    1
   104   173   172    1
   105    76    70   am
   106    14    20   am
   107     3     2    1
   108     3     4    2
   109   115   114    1
   110     2     1    1
   111     2     5    1
   112     9     7   ar
   113     9    11   ar
   114     7     6   ar
   115   172   171    1
   116    20    21    1
   117    33    32    1
   118    70    71    2
   119    70    69    1
   120   166   167    1
   121    37    36    2
   122    75    73    1
   123    11    10   ar
   124     6     5    1
   125     6     8   ar
   126    69    72    1
   127    69    68    1
   128    72    73    1
   129    27    25    1
   130    21    22    1
   131    21    24    1
   132   171   170    1
   133    35    36    1
   134    35    34    1
   135   167   170    1
   136   167   168    1
   137    36    38   am
   138    73    74    1
   139    34    30   am
   140    22    23    2
   141    32    29    1
   142    63    62    2
   143    25    24    1
   144    25    26    1
   145    10     8   ar
   146    68    62   am
   147    38    39    1
   148   168   169    2
   149    62    61    1
   150    30    29    1
   151    30    31    2
   152    29    28    1
   153    39    40    1
   154    39    42    1
   155    67    65   am
   156    47    40   am
   157    47    48    1
   158    40    41    2
   159    65    66    2
   160    65    64    1
   161    51    48    1
   162    48    49    1
   163    64    61    1
   164    61    60    1
   165    42    43    1
   166    43    44    1
   167    49    52   am
   168    49    50    2
   169    52    53    1
   170    44    46   am
   171    44    45    2
   172    56    53    1
   173    56    57    1
   174    53    54    1
   175    55    54    2
   176    59    57    1
   177    57    58    1
