@<TRIPOS>MOLECULE
tmp/4oxkC01.pdb
 178 171 0 0 0
SMALL
GASTEIGER

@<TRIPOS>ATOM
      1  N        -52.0000    1.8050  -29.1490 N.3    94  GLY94      -0.1210
      2  CA       -52.7970    2.9790  -29.4390 C.3    94  GLY94       0.1956
      3  C        -53.9790    2.6400  -30.3100 C.2    94  GLY94       0.2612
      4  O        -53.9090    1.7220  -31.1290 O.2    94  GLY94      -0.2717
      5  N        -55.0650    3.3910  -30.1440 N.am   95  PHE95      -0.1962
      6  CA       -56.2120    3.2730  -31.0370 C.3    95  PHE95       0.1771
      7  C        -57.1360    4.4710  -30.8710 C.2    95  PHE95       0.2619
      8  O        -57.3610    4.9310  -29.7610 O.2    95  PHE95      -0.2715
      9  CB       -57.0060    1.9960  -30.7580 C.3    95  PHE95       0.0574
     10  CG       -58.2040    1.8300  -31.6570 C.ar   95  PHE95      -0.0200
     11  CD1      -58.0350    1.5290  -32.9990 C.ar   95  PHE95      -0.0042
     12  CD2      -59.4950    1.9990  -31.1700 C.ar   95  PHE95      -0.0042
     13  CE1      -59.1310    1.3840  -33.8360 C.ar   95  PHE95      -0.0003
     14  CE2      -60.5990    1.8470  -32.0070 C.ar   95  PHE95      -0.0003
     15  CZ       -60.4120    1.5450  -33.3350 C.ar   95  PHE95      -0.0000
     16  N        -57.6600    4.9690  -31.9830 N.am   96  MET96      -0.1977
     17  CA       -58.7280    5.9620  -31.9640 C.3    96  MET96       0.1605
     18  C        -59.6740    5.6160  -33.1050 C.2    96  MET96       0.2287
     19  O        -59.2320    5.4760  -34.2490 O.2    96  MET96      -0.2864
     20  CB       -58.1490    7.3730  -32.1330 C.3    96  MET96       0.0413
     21  CG       -59.1960    8.4850  -32.1280 C.3    96  MET96       0.0598
     22  SD       -60.0870    8.6170  -30.5600 S.3    96  MET96      -0.1393
     23  CE       -58.7680    9.1220  -29.4600 C.3    96  MET96       0.0692
     24  N        -62.2190    5.6450  -36.2010 N.3    98  GLN98      -0.1245
     25  CA       -62.1250    6.4770  -37.4030 C.3    98  GLN98       0.1566
     26  C        -62.9030    7.7890  -37.2980 C.2    98  GLN98       0.2260
     27  O        -62.5130    8.7850  -37.9090 O.2    98  GLN98      -0.2867
     28  CB       -62.6020    5.6960  -38.6400 C.3    98  GLN98       0.0367
     29  CG       -61.6530    4.5720  -39.0410 C.3    98  GLN98       0.0905
     30  CD       -60.1850    4.9330  -38.8410 C.2    98  GLN98       0.2608
     31  OE1      -59.7690    6.0650  -39.0730 O.2    98  GLN98      -0.2717
     32  NE2      -59.3990    3.9630  -38.3950 N.am   98  GLN98      -0.0878
     33  N        -60.7860   10.6840  -36.3620 N.3   101  MET101     -0.1245
     34  CA       -59.5820   10.8510  -37.1830 C.3   101  MET101      0.1570
     35  C        -59.8980   11.3570  -38.5900 C.2   101  MET101      0.2261
     36  O        -61.0300   11.2400  -39.0590 O.2   101  MET101     -0.2867
     37  CB       -58.8810    9.4980  -37.3640 C.3   101  MET101      0.0387
     38  CG       -58.5320    8.7630  -36.0830 C.3   101  MET101      0.0595
     39  SD       -57.1210    9.4980  -35.2420 S.3   101  MET101     -0.1393
     40  CE       -55.8790    9.4480  -36.5380 C.3   101  MET101      0.0692
     41  N        -46.7450   10.7780  -29.6380 N.3   147  PHE147     -0.1241
     42  CA       -46.5560   11.5910  -30.8350 C.3   147  PHE147      0.1605
     43  C        -46.8720   12.9970  -30.3630 C.2   147  PHE147      0.2264
     44  O        -47.9810   13.2470  -29.8920 O.2   147  PHE147     -0.2867
     45  CB       -47.5000   11.1760  -31.9740 C.3   147  PHE147      0.0534
     46  CG       -47.1960   11.8630  -33.2880 C.ar  147  PHE147     -0.0203
     47  CD1      -48.1330   12.6920  -33.9000 C.ar  147  PHE147     -0.0042
     48  CD2      -45.9640   11.6920  -33.8970 C.ar  147  PHE147     -0.0042
     49  CE1      -47.8390   13.3300  -35.0990 C.ar  147  PHE147     -0.0003
     50  CE2      -45.6620   12.3220  -35.1030 C.ar  147  PHE147     -0.0003
     51  CZ       -46.6020   13.1430  -35.7060 C.ar  147  PHE147     -0.0000
     52  N        -53.0350   19.8310  -35.2320 N.3   153  MET153     -0.1231
     53  CA       -52.6380   19.5370  -36.5980 C.3   153  MET153      0.1687
     54  C        -53.8270   18.9170  -37.3130 C.2   153  MET153      0.2434
     55  O        -54.7420   18.4110  -36.6720 O.2   153  MET153     -0.2733
     56  CB       -51.4580   18.5700  -36.5890 C.3   153  MET153      0.0400
     57  CG       -51.7920   17.1960  -36.0240 C.3   153  MET153      0.0596
     58  SD       -50.3150   16.1950  -35.8030 S.3   153  MET153     -0.1393
     59  CE       -49.6110   16.9020  -34.3170 C.3   153  MET153      0.0692
     60  N        -53.8260   18.9520  -38.6480 N.am  154  PRO154     -0.2718
     61  CA       -54.9360   18.3110  -39.3530 C.3   154  PRO154      0.1535
     62  C        -54.8880   16.7940  -39.1800 C.2   154  PRO154      0.2598
     63  O        -53.8100   16.2640  -38.8770 O.2   154  PRO154     -0.2715
     64  CB       -54.6810   18.6870  -40.8160 C.3   154  PRO154      0.0310
     65  CG       -53.2180   18.9690  -40.8970 C.3   154  PRO154      0.0237
     66  CD       -52.8590   19.5800  -39.5690 C.3   154  PRO154      0.0939
     67  N        -56.0440   16.1470  -39.3450 N.am  155  ALA155     -0.1964
     68  CA       -56.1930   14.6810  -39.4190 C.3   155  ALA155      0.1728
     69  C        -55.9810   13.8770  -38.1290 C.2   155  ALA155      0.2616
     70  O        -56.6940   12.8960  -37.8950 O.2   155  ALA155     -0.2715
     71  CB       -55.3510   14.0900  -40.5760 C.3   155  ALA155      0.0334
     72  N        -55.0150   14.2700  -37.3020 N.am  156  TYR156     -0.1974
     73  CA       -54.7000   13.4930  -36.1010 C.3   156  TYR156      0.1639
     74  C        -55.8120   13.6990  -35.0640 C.2   156  TYR156      0.2290
     75  O        -56.0580   12.8360  -34.2300 O.2   156  TYR156     -0.2864
     76  CB       -53.3250   13.8970  -35.5240 C.3   156  TYR156      0.0560
     77  CG       -52.6580   12.8830  -34.5930 C.ar  156  TYR156     -0.0198
     78  CD1      -52.4760   11.5580  -34.9910 C.ar  156  TYR156     -0.0009
     79  CD2      -52.1610   13.2660  -33.3470 C.ar  156  TYR156     -0.0009
     80  CE1      -51.8460   10.6340  -34.1590 C.ar  156  TYR156      0.0417
     81  CE2      -51.5200   12.3450  -32.5000 C.ar  156  TYR156      0.0417
     82  CZ       -51.3690   11.0310  -32.9190 C.ar  156  TYR156      0.1957
     83  OH       -50.7440   10.1170  -32.0950 O.3   156  TYR156     -0.2866
     84  N        -56.9290   11.7710  -31.6740 N.3   159  MET159     -0.1245
     85  CA       -55.7500   11.0500  -31.1840 C.3   159  MET159      0.1570
     86  C        -54.7600   12.0400  -30.5400 C.2   159  MET159      0.2261
     87  O        -54.0590   11.7080  -29.5810 O.2   159  MET159     -0.2867
     88  CB       -55.1010   10.2220  -32.2990 C.3   159  MET159      0.0387
     89  CG       -53.9930    9.2700  -31.8220 C.3   159  MET159      0.0595
     90  SD       -54.5020    8.1380  -30.4880 S.3   159  MET159     -0.1393
     91  CE       -53.5620    6.6690  -30.9180 C.3   159  MET159      0.0692
     92  N        -53.1150   11.6370  -26.8080 N.3   163  LYS163     -0.1245
     93  CA       -51.6820   11.7260  -26.5220 C.3   163  LYS163      0.1561
     94  C        -51.3930   12.8120  -25.4890 C.2   163  LYS163      0.2260
     95  O        -50.5030   12.6540  -24.6470 O.2   163  LYS163     -0.2867
     96  CB       -50.8830   11.9880  -27.7980 C.3   163  LYS163      0.0271
     97  CG       -50.8380   10.7980  -28.7380 C.3   163  LYS163      0.0035
     98  CD       -50.2890    9.5270  -28.0510 C.3   163  LYS163      0.0206
     99  CE       -50.0510    8.4280  -29.1080 C.3   163  LYS163      0.1093
    100  NZ       -49.5170    7.1370  -28.5530 N.3   163  LYS163     -0.1314
    101  N        -42.9590   10.5110  -37.4360 N.3   191  PRO191     -0.2102
    102  CA       -43.9290    9.6590  -38.1270 C.3   191  PRO191      0.1504
    103  C        -43.2850    8.4520  -38.8140 C.2   191  PRO191      0.2576
    104  O        -42.2980    8.5840  -39.5420 O.2   191  PRO191     -0.2718
    105  CB       -44.5710   10.6100  -39.1470 C.3   191  PRO191      0.0282
    106  CG       -43.5300   11.6840  -39.3770 C.3   191  PRO191      0.0208
    107  CD       -42.8190   11.8390  -38.0530 C.3   191  PRO191      0.0893
    108  N        -43.8620    7.2810  -38.5620 N.am  192  ILE192     -0.1966
    109  CA       -43.3910    6.0150  -39.1270 C.3   192  ILE192      0.1727
    110  C        -44.5440    5.3380  -39.8570 C.2   192  ILE192      0.2616
    111  O        -45.6750    5.3470  -39.3750 O.2   192  ILE192     -0.2715
    112  CB       -42.9150    5.0620  -38.0040 C.3   192  ILE192      0.0290
    113  CG1      -41.7590    5.6790  -37.2170 C.3   192  ILE192      0.0022
    114  CG2      -42.5330    3.6930  -38.5680 C.3   192  ILE192      0.0023
    115  CD1      -40.4450    5.6710  -37.9550 C.3   192  ILE192      0.0001
    116  N        -44.2740    4.7500  -41.0190 N.am  193  ARG193     -0.1963
    117  CA       -45.3170    4.0490  -41.7510 C.3   193  ARG193      0.1729
    118  C        -45.6220    2.7090  -41.0670 C.2   193  ARG193      0.2616
    119  O        -44.8180    1.7840  -41.1180 O.2   193  ARG193     -0.2715
    120  CB       -44.8820    3.8210  -43.2040 C.3   193  ARG193      0.0348
    121  CG       -44.6840    5.1220  -43.9980 C.3   193  ARG193      0.0492
    122  CD       -46.0270    5.8090  -44.2920 C.3   193  ARG193      0.2205
    123  NE       -45.8400    7.0530  -45.0380 N.pl3 193  ARG193     -0.0865
    124  CZ       -45.5800    7.1110  -46.3400 C.cat 193  ARG193      0.5346
    125  NH1      -45.4090    8.2900  -46.9280 N.pl3 193  ARG193      0.1354
    126  NH2      -45.4820    5.9920  -47.0590 N.pl3 193  ARG193      0.1354
    127  N        -46.7710    2.6200  -40.4060 N.am  194  THR194     -0.1951
    128  CA       -47.2240    1.3550  -39.8320 C.3   194  THR194      0.1897
    129  C        -48.6610    1.0750  -40.2620 C.2   194  THR194      0.2313
    130  O        -49.2680    1.8760  -40.9690 O.2   194  THR194     -0.2863
    131  CB       -47.1490    1.3690  -38.2940 C.3   194  THR194      0.1794
    132  OG1      -48.0340    2.3770  -37.7820 O.3   194  THR194     -0.2208
    133  CG2      -45.7210    1.6690  -37.8400 C.3   194  THR194      0.0378
    134  N        -51.4250    1.0900  -38.5150 N.3   196  ALA196     -0.1231
    135  CA       -52.4530    1.8410  -37.7850 C.3   196  ALA196      0.1694
    136  C        -53.2180    2.9000  -38.5940 C.2   196  ALA196      0.2591
    137  O        -54.4500    2.9120  -38.6110 O.2   196  ALA196     -0.2718
    138  CB       -51.8380    2.4790  -36.5740 C.3   196  ALA196      0.0304
    139  N        -52.4820    3.7980  -39.2370 N.am  197  MET197     -0.1979
    140  CA       -53.0990    4.8900  -39.9930 C.3   197  MET197      0.1605
    141  C        -52.8950    4.7330  -41.4870 C.2   197  MET197      0.2287
    142  O        -53.1110    5.6860  -42.2450 O.2   197  MET197     -0.2864
    143  CB       -52.5110    6.2350  -39.5590 C.3   197  MET197      0.0413
    144  CG       -52.9610    6.6860  -38.1960 C.3   197  MET197      0.0598
    145  SD       -52.2390    8.2800  -37.7800 S.3   197  MET197     -0.1393
    146  CE       -53.0530    9.3370  -38.9810 C.3   197  MET197      0.0692
    147  N        -53.3080    7.6080  -44.2940 N.3   201  VAL201     -0.1245
    148  CA       -52.0770    8.0990  -44.8980 C.3   201  VAL201      0.1561
    149  C        -52.0730    7.8800  -46.4180 C.2   201  VAL201      0.2260
    150  O        -51.5860    8.7250  -47.1750 O.2   201  VAL201     -0.2867
    151  CB       -50.8260    7.4610  -44.2190 C.3   201  VAL201      0.0252
    152  CG1      -49.5360    7.9110  -44.9070 C.3   201  VAL201      0.0019
    153  CG2      -50.7950    7.8020  -42.7370 C.3   201  VAL201      0.0019
    154  N        -51.2670   14.8630  -44.5140 N.3   213  ILE213     -0.1245
    155  CA       -50.2730   13.9880  -43.8950 C.3   213  ILE213      0.1561
    156  C        -48.9650   13.9650  -44.6940 C.2   213  ILE213      0.2260
    157  O        -47.8720   13.9660  -44.1130 O.2   213  ILE213     -0.2867
    158  CB       -50.8250   12.5680  -43.7020 C.3   213  ILE213      0.0252
    159  CG1      -51.8950   12.5830  -42.6110 C.3   213  ILE213      0.0019
    160  CG2      -49.7260   11.6050  -43.3010 C.3   213  ILE213      0.0019
    161  CD1      -52.6560   11.2870  -42.5130 C.3   213  ILE213      0.0001
    162  N        -47.1610   17.0390  -43.8190 N.3   216  LEU216     -0.1231
    163  CA       -46.5520   16.9140  -42.4970 C.3   216  LEU216      0.1693
    164  C        -45.2460   16.1160  -42.5720 C.2   216  LEU216      0.2591
    165  O        -44.2340   16.5010  -41.9870 O.2   216  LEU216     -0.2718
    166  CB       -47.5200   16.2550  -41.5150 C.3   216  LEU216      0.0284
    167  CG       -46.9580   16.1030  -40.0960 C.3   216  LEU216      0.0019
    168  CD1      -48.0310   16.4260  -39.0820 C.3   216  LEU216      0.0001
    169  CD2      -46.4170   14.6980  -39.8550 C.3   216  LEU216      0.0001
    170  N        -45.2760   15.0060  -43.2980 N.am  217  GLU217     -0.1979
    171  CA       -44.1020   14.1420  -43.4400 C.3   217  GLU217      0.1602
    172  C        -42.9560   14.8320  -44.1690 C.2   217  GLU217      0.2287
    173  O        -41.7950   14.7270  -43.7710 O.2   217  GLU217     -0.2864
    174  CB       -44.4700   12.8680  -44.2000 C.3   217  GLU217      0.0415
    175  CG       -45.2860   11.8570  -43.3980 C.3   217  GLU217      0.1163
    176  CD       -45.7070   10.6670  -44.2690 C.2   217  GLU217      0.3649
    177  OE1      -45.5300   10.7440  -45.5070 O.co2 217  GLU217     -0.2457
    178  OE2      -46.2050    9.6580  -43.7320 O.co2 217  GLU217     -0.2457
@<TRIPOS>BOND
     1   150   149    2
     2   126   124    1
     3   125   124    1
     4   149   148    1
     5   124   123    2
     6   177   176   ar
     7   123   122    1
     8   152   151    1
     9   148   147    1
    10   148   151    1
    11   156   157    2
    12   156   155    1
    13   154   155    1
    14   122   121    1
    15   176   178   ar
    16   176   175    1
    17   151   153    1
    18   174   171    1
    19   174   175    1
    20   172   173    2
    21   172   171    1
    22   121   120    1
    23   155   158    1
    24   162   163    1
    25   158   160    1
    26   158   159    1
    27   171   170    1
    28   170   164   am
    29   120   117    1
    30   159   161    1
    31   164   163    1
    32   164   165    2
    33   163   166    1
    34   142   141    2
    35   117   118    1
    36   117   116    1
    37   166   167    1
    38   141   140    1
    39   119   118    2
    40   118   127   am
    41   116   110   am
    42   130   129    2
    43    65    64    1
    44    65    66    1
    45    64    61    1
    46    71    68    1
    47   127   128    1
    48   129   128    1
    49   167   169    1
    50   167   168    1
    51   140   143    1
    52   140   139    1
    53   110   111    2
    54   110   109    1
    55   128   131    1
    56    66    60    1
    57   143   144    1
    58   104   103    2
    59    68    67    1
    60    68    69    1
    61   106   105    1
    62   106   107    1
    63    61    62    1
    64    61    60    1
    65    67    62   am
    66   139   136   am
    67    62    63    2
    68   105   102    1
    69   109   108    1
    70   109   112    1
    71    31    30    2
    72    36    35    2
    73    29    30    1
    74    29    28    1
    75   146   145    1
    76    30    32   am
    77   103   108   am
    78   103   102    1
    79    60    54   am
    80    28    25    1
    81   137   136    2
    82   136   135    1
    83    35    34    1
    84   114   112    1
    85   134   135    1
    86   131   133    1
    87   131   132    1
    88   144   145    1
    89    69    70    2
    90    69    72   am
    91   102   101    1
    92   107   101    1
    93   112   113    1
    94   115   113    1
    95    27    26    2
    96   135   138    1
    97    25    26    1
    98    25    24    1
    99    37    34    1
   100    37    38    1
   101    54    55    2
   102    54    53    1
   103    72    73    1
   104    34    33    1
   105    53    56    1
   106    53    52    1
   107    56    57    1
   108    40    39    1
   109    73    76    1
   110    73    74    1
   111    38    39    1
   112    57    58    1
   113    58    59    1
   114    51    50   ar
   115    51    49   ar
   116    76    77    1
   117    50    48   ar
   118    49    47   ar
   119    74    75    2
   120    78    77   ar
   121    78    80   ar
   122    77    79   ar
   123    19    18    2
   124    80    82   ar
   125    47    46   ar
   126    48    46   ar
   127    13    15   ar
   128    13    11   ar
   129    79    81   ar
   130    15    14   ar
   131    46    45    1
   132    18    17    1
   133    11    10   ar
   134    82    81   ar
   135    82    83    1
   136    88    89    1
   137    88    85    1
   138    20    21    1
   139    20    17    1
   140    21    22    1
   141    14    12   ar
   142    16    17    1
   143    16     7   am
   144    45    42    1
   145    89    90    1
   146    84    85    1
   147    10    12   ar
   148    10     9    1
   149    85    86    1
   150     4     3    2
   151     6     7    1
   152     6     9    1
   153     6     5    1
   154    91    90    1
   155     7     8    2
   156    42    43    1
   157    42    41    1
   158    22    23    1
   159    86    87    2
   160    43    44    2
   161     3     5   am
   162     3     2    1
   163     2     1    1
   164    99   100    1
   165    99    98    1
   166    97    98    1
   167    97    96    1
   168    96    93    1
   169    92    93    1
   170    93    94    1
   171    94    95    2
