@<TRIPOS>MOLECULE
tmp/4oxnB04.pdb
 130 124 0 0 0
SMALL
GASTEIGER

@<TRIPOS>ATOM
      1  N         11.8900   -7.4130   29.6190 N.3    40  PHE40      -0.1227
      2  CA        13.3030   -7.0520   29.6010 C.3    40  PHE40       0.1736
      3  C         14.0700   -7.6180   30.8020 C.2    40  PHE40       0.2595
      4  O         13.6830   -7.4030   31.9550 O.2    40  PHE40      -0.2718
      5  CB        13.4690   -5.5260   29.5260 C.3    40  PHE40       0.0547
      6  CG        14.8620   -5.0390   29.8670 C.ar   40  PHE40      -0.0202
      7  CD1       15.9640   -5.4330   29.1040 C.ar   40  PHE40      -0.0042
      8  CD2       15.0650   -4.1730   30.9360 C.ar   40  PHE40      -0.0042
      9  CE1       17.2440   -4.9720   29.4080 C.ar   40  PHE40      -0.0003
     10  CE2       16.3400   -3.7140   31.2560 C.ar   40  PHE40      -0.0003
     11  CZ        17.4310   -4.1090   30.4910 C.ar   40  PHE40      -0.0000
     12  N         15.1260   -8.3810   30.5150 N.am   41  ASP41      -0.1960
     13  CA        16.1520   -8.7070   31.5060 C.3    41  ASP41       0.1840
     14  C         15.7350   -9.7370   32.5770 C.2    41  ASP41       0.2621
     15  O         16.2750  -10.8380   32.6140 O.2    41  ASP41      -0.2715
     16  CB        16.6730   -7.4140   32.1530 C.3    41  ASP41       0.1450
     17  CG        17.8040   -7.6570   33.1410 C.2    41  ASP41       0.3671
     18  OD1       18.7390   -8.4160   32.8000 O.co2  41  ASP41      -0.2456
     19  OD2       17.7510   -7.0800   34.2550 O.co2  41  ASP41      -0.2456
     20  N         14.7910   -9.3830   33.4470 N.am   42  ARG42      -0.1977
     21  CA        14.3860  -10.2730   34.5430 C.3    42  ARG42       0.1597
     22  C         13.2080  -11.1650   34.1360 C.2    42  ARG42       0.2287
     23  O         12.0770  -10.9820   34.5920 O.2    42  ARG42      -0.2864
     24  CB        14.0630   -9.4480   35.7960 C.3    42  ARG42       0.0334
     25  CG        15.2940   -8.7890   36.4150 C.3    42  ARG42       0.0492
     26  CD        15.0620   -7.3200   36.7310 C.3    42  ARG42       0.2205
     27  NE        14.6240   -7.1110   38.1090 N.pl3  42  ARG42      -0.0865
     28  CZ        14.3030   -5.9270   38.6280 C.cat  42  ARG42       0.5346
     29  NH1       13.9160   -5.8480   39.8940 N.pl3  42  ARG42       0.1354
     30  NH2       14.3670   -4.8240   37.8870 N.pl3  42  ARG42       0.1354
     31  N         17.4130   -1.8920   23.5980 N.3    65  GLN65      -0.1245
     32  CA        18.7730   -1.4730   23.2830 C.3    65  GLN65       0.1566
     33  C         19.4940   -2.5420   22.4720 C.2    65  GLN65       0.2260
     34  O         20.6230   -2.3390   22.0240 O.2    65  GLN65      -0.2867
     35  CB        19.5740   -1.1940   24.5570 C.3    65  GLN65       0.0367
     36  CG        19.1010    0.0200   25.3390 C.3    65  GLN65       0.0905
     37  CD        20.1780    0.5830   26.2490 C.2    65  GLN65       0.2608
     38  OE1       20.4550    0.0360   27.3220 O.2    65  GLN65      -0.2717
     39  NE2       20.7960    1.6880   25.8220 N.am   65  GLN65      -0.0878
     40  N         12.9420    4.5330   31.1930 N.3    96  PHE96      -0.1227
     41  CA        14.0910    4.4470   32.0720 C.3    96  PHE96       0.1736
     42  C         14.8840    5.7240   31.9580 C.2    96  PHE96       0.2595
     43  O         15.0390    6.2830   30.8710 O.2    96  PHE96      -0.2718
     44  CB        14.9940    3.2650   31.6990 C.3    96  PHE96       0.0547
     45  CG        16.2630    3.1850   32.5190 C.ar   96  PHE96      -0.0202
     46  CD1       16.2340    2.7320   33.8270 C.ar   96  PHE96      -0.0042
     47  CD2       17.4840    3.5620   31.9780 C.ar   96  PHE96      -0.0042
     48  CE1       17.4080    2.6590   34.5890 C.ar   96  PHE96      -0.0003
     49  CE2       18.6510    3.4830   32.7260 C.ar   96  PHE96      -0.0003
     50  CZ        18.6120    3.0310   34.0390 C.ar   96  PHE96      -0.0000
     51  N         15.3870    6.1770   33.0930 N.am   97  MET97      -0.1966
     52  CA        16.3400    7.2650   33.1360 C.3    97  MET97       0.1721
     53  C         17.2030    6.9760   34.3460 C.2    97  MET97       0.2458
     54  O         16.6720    6.8000   35.4410 O.2    97  MET97      -0.2730
     55  CB        15.6350    8.6130   33.3260 C.3    97  MET97       0.0427
     56  CG        16.5880    9.8060   33.3560 C.3    97  MET97       0.0599
     57  SD        17.6260    9.9520   31.8560 S.3    97  MET97      -0.1393
     58  CE        16.3720   10.2990   30.6240 C.3    97  MET97       0.0692
     59  N         18.5280    6.9030   34.1580 N.am   98  PRO98      -0.2716
     60  CA        19.3850    6.6570   35.3270 C.3    98  PRO98       0.1536
     61  C         19.1690    7.7000   36.4340 C.2    98  PRO98       0.2598
     62  O         18.6820    8.8200   36.1860 O.2    98  PRO98      -0.2715
     63  CB        20.8030    6.7450   34.7560 C.3    98  PRO98       0.0310
     64  CG        20.6390    6.4270   33.2680 C.3    98  PRO98       0.0237
     65  CD        19.2900    6.9870   32.8980 C.3    98  PRO98       0.0939
     66  N         19.5170    7.3050   37.6520 N.am   99  GLN99      -0.1978
     67  CA        19.2680    8.0990   38.8530 C.3    99  GLN99       0.1601
     68  C         19.9350    9.4760   38.7980 C.2    99  GLN99       0.2287
     69  O         19.3690   10.4570   39.2650 O.2    99  GLN99      -0.2864
     70  CB        19.7220    7.3190   40.0910 C.3    99  GLN99       0.0394
     71  CG        19.4580    7.9830   41.4520 C.3    99  GLN99       0.0908
     72  CD        20.0950    7.2010   42.5980 C.2    99  GLN99       0.2608
     73  OE1       20.5510    6.0860   42.4000 O.2    99  GLN99      -0.2717
     74  NE2       20.1560    7.8060   43.7830 N.am   99  GLN99      -0.0878
     75  N         17.7160   12.2690   37.5370 N.3   102  MET102     -0.1245
     76  CA        16.4960   12.6090   38.2740 C.3   102  MET102      0.1570
     77  C         16.7790   13.0470   39.7120 C.2   102  MET102      0.2261
     78  O         17.9280   13.1410   40.1320 O.2   102  MET102     -0.2867
     79  CB        15.5620   11.4070   38.3240 C.3   102  MET102      0.0387
     80  CG        15.3810   10.6930   36.9930 C.3   102  MET102      0.0595
     81  SD        14.2500    9.3120   37.1440 S.3   102  MET102     -0.1393
     82  CE        12.7030   10.1980   37.3220 C.3   102  MET102      0.0692
     83  N         21.3560    7.0570   27.3340 N.3   117  LYS117     -0.1245
     84  CA        20.7380    5.7660   27.6380 C.3   117  LYS117      0.1561
     85  C         19.2460    5.9040   27.9390 C.2   117  LYS117      0.2260
     86  O         18.4320    5.1130   27.4600 O.2   117  LYS117     -0.2867
     87  CB        21.4370    5.0930   28.8200 C.3   117  LYS117      0.0271
     88  CG        20.9040    3.6960   29.1430 C.3   117  LYS117      0.0035
     89  CD        21.7380    3.0280   30.2390 C.3   117  LYS117      0.0206
     90  CE        21.3480    1.5670   30.4400 C.3   117  LYS117      0.1093
     91  NZ        21.8710    1.0190   31.7360 N.3   117  LYS117     -0.1314
     92  N         16.1430    4.3290   25.5900 N.3   121  ILE121     -0.1245
     93  CA        15.1050    3.4350   26.0790 C.3   121  ILE121      0.1561
     94  C         13.7220    4.0960   26.0930 C.2   121  ILE121      0.2260
     95  O         12.7320    3.4830   25.6810 O.2   121  ILE121     -0.2867
     96  CB        15.4940    2.8810   27.4750 C.3   121  ILE121      0.0252
     97  CG1       16.7130    1.9640   27.3370 C.3   121  ILE121      0.0019
     98  CG2       14.3260    2.1520   28.1380 C.3   121  ILE121      0.0019
     99  CD1       17.4250    1.6480   28.6440 C.3   121  ILE121      0.0001
    100  N          8.1740    2.1640   42.2740 N.3   197  ALA197     -0.1245
    101  CA         9.1060    3.2880   42.1310 C.3   197  ALA197      0.1562
    102  C          8.5420    4.6140   42.6430 C.2   197  ALA197      0.2260
    103  O          9.2360    5.3520   43.3360 O.2   197  ALA197     -0.2867
    104  CB         9.5650    3.4420   40.6700 C.3   197  ALA197      0.0290
    105  N          8.5560    4.7100   46.3510 N.3   200  ALA200     -0.1231
    106  CA         9.9340    4.8600   46.7910 C.3   200  ALA200      0.1694
    107  C         10.3590    6.3310   46.7250 C.2   200  ALA200      0.2591
    108  O         10.9480    6.8590   47.6780 O.2   200  ALA200     -0.2718
    109  CB        10.8610    3.9890   45.9560 C.3   200  ALA200      0.0304
    110  N         10.0440    6.9820   45.6050 N.am  201  ILE201     -0.1980
    111  CA        10.3550    8.3990   45.4120 C.3   201  ILE201      0.1595
    112  C          9.6770    9.3050   46.4410 C.2   201  ILE201      0.2287
    113  O         10.3140   10.1880   47.0100 O.2   201  ILE201     -0.2864
    114  CB         9.9940    8.8610   43.9940 C.3   201  ILE201      0.0276
    115  CG1       10.9050    8.1740   42.9730 C.3   201  ILE201      0.0022
    116  CG2       10.0920   10.3940   43.8700 C.3   201  ILE201      0.0022
    117  CD1       10.4770    8.4070   41.5270 C.3   201  ILE201      0.0001
    118  N         13.5960    8.1140   48.0940 N.3   205  ALA205     -0.1231
    119  CA        14.6040    7.2710   47.4440 C.3   205  ALA205      0.1694
    120  C         15.5040    8.0580   46.4900 C.2   205  ALA205      0.2591
    121  O         16.6480    7.6830   46.2620 O.2   205  ALA205     -0.2718
    122  CB        13.9490    6.1030   46.7120 C.3   205  ALA205      0.0304
    123  N         14.9770    9.1390   45.9230 N.am  206  LEU206     -0.1980
    124  CA        15.7750   10.0210   45.0820 C.3   206  LEU206      0.1596
    125  C         16.1460   11.3060   45.8430 C.2   206  LEU206      0.2287
    126  O         16.4000   12.3480   45.2350 O.2   206  LEU206     -0.2864
    127  CB        15.0210   10.3560   43.7900 C.3   206  LEU206      0.0297
    128  CG        14.8290    9.2140   42.7810 C.3   206  LEU206      0.0022
    129  CD1       14.0760    9.7010   41.5570 C.3   206  LEU206      0.0001
    130  CD2       16.1630    8.5780   42.3830 C.3   206  LEU206      0.0001
@<TRIPOS>BOND
     1    34    33    2
     2    33    32    1
     3    32    31    1
     4    32    35    1
     5    35    36    1
     6    36    37    1
     7    92    93    1
     8    95    94    2
     9    39    37   am
    10    93    94    1
    11    93    96    1
    12    37    38    2
    13    83    84    1
    14    97    96    1
    15    97    99    1
    16    86    85    2
    17    96    98    1
    18    84    85    1
    19    84    87    1
    20    87    88    1
    21     7     9   ar
    22     7     6   ar
    23    88    89    1
    24     9    11   ar
    25     5     2    1
    26     5     6    1
    27     2     1    1
    28     2     3    1
    29     6     8   ar
    30    89    90    1
    31    90    91    1
    32    11    10   ar
    33    12     3   am
    34    12    13    1
    35    58    57    1
    36     3     4    2
    37    43    42    2
    38     8    10   ar
    39    40    41    1
    40    13    16    1
    41    13    14    1
    42    44    41    1
    43    44    45    1
    44    57    56    1
    45    42    41    1
    46    42    51   am
    47    47    45   ar
    48    47    49   ar
    49    16    17    1
    50    45    46   ar
    51    14    15    2
    52    14    20   am
    53    49    50   ar
    54    18    17   ar
    55    65    64    1
    56    65    59    1
    57    51    52    1
    58    52    55    1
    59    52    53    1
    60    17    19   ar
    61    64    63    1
    62    55    56    1
    63    20    21    1
    64    46    48   ar
    65    50    48   ar
    66    22    21    1
    67    22    23    2
    68    59    53   am
    69    59    60    1
    70    53    54    2
    71    21    24    1
    72    63    60    1
    73    60    61    1
    74    24    25    1
    75    62    61    2
    76    25    26    1
    77    61    66   am
    78    26    27    1
    79    80    81    1
    80    80    79    1
    81    81    82    1
    82    75    76    1
    83    66    67    1
    84    30    28    1
    85    27    28    2
    86    76    79    1
    87    76    77    1
    88    28    29    1
    89    68    67    1
    90    68    69    2
    91    67    70    1
    92    77    78    2
    93    70    71    1
    94   104   101    1
    95    71    72    1
    96   117   115    1
    97   129   128    1
    98   101   100    1
    99   101   102    1
   100   130   128    1
   101    73    72    2
   102    72    74   am
   103   102   103    2
   104   128   127    1
   105   115   114    1
   106   127   124    1
   107   116   114    1
   108   114   111    1
   109   124   125    1
   110   124   123    1
   111   126   125    2
   112   111   110    1
   113   111   112    1
   114   110   107   am
   115   123   120   am
   116   109   106    1
   117   121   120    2
   118   105   106    1
   119   112   113    2
   120   120   119    1
   121   122   119    1
   122   107   106    1
   123   107   108    2
   124   119   118    1
