@<TRIPOS>MOLECULE
tmp/4oxvA00.pdb
 121 113 0 0 0
SMALL
GASTEIGER

@<TRIPOS>ATOM
      1  N         42.9000   65.5670    5.7610 N.3    19  ARG19      -0.1245
      2  CA        42.6190   65.2450    7.1290 C.3    19  ARG19       0.1563
      3  C         41.1690   65.4320    7.3380 C.2    19  ARG19       0.2260
      4  O         40.5430   66.2420    6.6870 O.2    19  ARG19      -0.2867
      5  CB        43.3570   66.1860    8.0640 C.3    19  ARG19       0.0307
      6  CG        44.8420   65.9580    8.0280 C.3    19  ARG19       0.0489
      7  CD        45.5680   67.2040    8.4140 C.3    19  ARG19       0.2205
      8  NE        45.2480   67.6560    9.7590 N.pl3  19  ARG19      -0.0865
      9  CZ        45.2720   68.9140   10.1650 C.cat  19  ARG19       0.5346
     10  NH1       45.0170   69.1930   11.4290 N.pl3  19  ARG19       0.1354
     11  NH2       45.5130   69.8950    9.3210 N.pl3  19  ARG19       0.1354
     12  N         48.3390   61.1010   10.4540 N.3    59  LEU59      -0.1245
     13  CA        49.2870   61.7290    9.5420 C.3    59  LEU59       0.1561
     14  C         50.2230   60.7190    8.9250 C.2    59  LEU59       0.2260
     15  O         50.5790   60.8890    7.7910 O.2    59  LEU59      -0.2867
     16  CB        50.0870   62.8530   10.2130 C.3    59  LEU59       0.0270
     17  CG        49.2260   63.9780   10.7710 C.3    59  LEU59       0.0019
     18  CD1       50.0630   64.8630   11.6820 C.3    59  LEU59       0.0001
     19  CD2       48.5700   64.7370    9.6370 C.3    59  LEU59       0.0001
     20  N         50.6750   60.1960    4.8580 N.3    63  TYR63      -0.1241
     21  CA        51.9520   60.1950    4.1100 C.3    63  TYR63       0.1605
     22  C         52.2270   58.7960    3.4710 C.2    63  TYR63       0.2264
     23  O         52.8310   58.7180    2.4290 O.2    63  TYR63      -0.2867
     24  CB        53.1260   60.6690    5.0090 C.3    63  TYR63       0.0534
     25  CG        53.1860   62.1710    5.2790 C.ar   63  TYR63      -0.0201
     26  CD1       53.4150   63.0850    4.2340 C.ar   63  TYR63      -0.0009
     27  CD2       53.0700   62.6800    6.5680 C.ar   63  TYR63      -0.0009
     28  CE1       53.5000   64.4490    4.4680 C.ar   63  TYR63       0.0417
     29  CE2       53.1340   64.0500    6.8160 C.ar   63  TYR63       0.0417
     30  CZ        53.3430   64.9360    5.7640 C.ar   63  TYR63       0.1957
     31  OH        53.4220   66.3140    5.9870 O.3    63  TYR63      -0.2866
     32  N         46.1730   69.3770    3.1030 N.3    77  ALA77      -0.1231
     33  CA        45.8760   69.0110    4.4840 C.3    77  ALA77       0.1694
     34  C         46.5510   69.8910    5.5500 C.2    77  ALA77       0.2593
     35  O         46.9260   69.4140    6.6260 O.2    77  ALA77      -0.2718
     36  CB        46.2140   67.5070    4.6930 C.3    77  ALA77       0.0304
     37  N         46.7470   71.1670    5.2450 N.am   78  GLY78      -0.1942
     38  CA        47.4060   72.0640    6.2020 C.3    78  GLY78       0.2014
     39  C         48.7190   71.4850    6.7110 C.2    78  GLY78       0.2639
     40  O         48.9540   71.4460    7.9140 O.2    78  GLY78      -0.2714
     41  N         49.5280   71.0020    5.7640 N.am   79  LEU79      -0.1963
     42  CA        50.7710   70.3210    6.0550 C.3    79  LEU79       0.1728
     43  C         51.9330   71.2970    6.1250 C.2    79  LEU79       0.2616
     44  O         52.1010   72.1540    5.2600 O.2    79  LEU79      -0.2715
     45  CB        51.0820   69.2320    4.9820 C.3    79  LEU79       0.0311
     46  CG        50.0710   68.1140    4.8950 C.3    79  LEU79       0.0022
     47  CD1       50.3350   67.2880    3.6520 C.3    79  LEU79       0.0001
     48  CD2       50.0540   67.2480    6.1750 C.3    79  LEU79       0.0001
     49  N         52.7370   71.1380    7.1590 N.am   80  THR80      -0.1951
     50  CA        53.9580   71.9020    7.3370 C.3    80  THR80       0.1897
     51  C         55.0670   71.1490    6.5870 C.2    80  THR80       0.2313
     52  O         55.3620   70.0000    6.8880 O.2    80  THR80      -0.2863
     53  CB        54.3170   72.0160    8.8400 C.3    80  THR80       0.1794
     54  OG1       53.3130   72.7630    9.5290 O.3    80  THR80      -0.2208
     55  CG2       55.6890   72.6900    9.0290 C.3    80  THR80       0.0378
     56  N         49.5590   65.5650   17.8960 N.3   121  LEU121     -0.1245
     57  CA        49.3250   64.4600   16.9450 C.3   121  LEU121      0.1561
     58  C         50.5880   63.7260   16.6250 C.2   121  LEU121      0.2260
     59  O         51.6610   64.3210   16.4240 O.2   121  LEU121     -0.2867
     60  CB        48.7940   64.9380   15.5940 C.3   121  LEU121      0.0270
     61  CG        47.3900   65.5340   15.4990 C.3   121  LEU121      0.0019
     62  CD1       46.8340   65.2890   14.1040 C.3   121  LEU121      0.0001
     63  CD2       46.4660   65.0150   16.5810 C.3   121  LEU121      0.0001
     64  N         53.1350   61.9220   14.4220 N.3   123  GLY123     -0.1210
     65  CA        53.6430   62.1190   13.0560 C.3   123  GLY123      0.1956
     66  C         53.5060   63.5400   12.5580 C.2   123  GLY123      0.2613
     67  O         53.5900   63.7490   11.3900 O.2   123  GLY123     -0.2717
     68  N         53.3040   64.5100   13.4580 N.am  124  SER124     -0.1938
     69  CA        53.1010   65.8910   13.1000 C.3   124  SER124      0.2055
     70  C         54.3960   66.7020   13.2330 C.2   124  SER124      0.2644
     71  O         55.3170   66.2830   13.9200 O.2   124  SER124     -0.2714
     72  CB        52.0440   66.5200   14.0220 C.3   124  SER124      0.2130
     73  OG        52.5810   66.7450   15.3220 O.3   124  SER124     -0.2179
     74  N         54.4510   67.8870   12.6260 N.am  125  SER125     -0.1935
     75  CA        55.6300   68.7660   12.7990 C.3   125  SER125      0.2055
     76  C         55.7490   69.3200   14.2310 C.2   125  SER125      0.2643
     77  O         56.8520   69.6280   14.7490 O.2   125  SER125     -0.2714
     78  CB        55.5700   69.9310   11.7930 C.3   125  SER125      0.2130
     79  OG        54.3520   70.6600   11.9490 O.3   125  SER125     -0.2179
     80  N         54.5940   69.4180   14.8630 N.am  126  HIS126     -0.1973
     81  CA        54.4850   69.6750   16.2780 C.3   126  HIS126      0.1656
     82  C         55.2530   68.6480   17.1340 C.2   126  HIS126      0.2291
     83  O         55.9670   69.0080   18.0890 O.2   126  HIS126     -0.2864
     84  CB        52.9800   69.6950   16.6410 C.3   126  HIS126      0.0771
     85  CG        52.1940   70.6540   15.7980 C.ar  126  HIS126      0.0820
     86  ND1       50.8850   70.4430   15.4270 N.ar  126  HIS126     -0.2267
     87  CD2       52.5610   71.8220   15.2180 C.ar  126  HIS126      0.1154
     88  CE1       50.4750   71.4520   14.6730 C.ar  126  HIS126      0.1986
     89  NE2       51.4780   72.3030   14.5380 N.ar  126  HIS126     -0.2212
     90  N         43.4860   67.6620   15.8140 N.3   150  VAL150     -0.1245
     91  CA        43.9330   68.8360   16.5200 C.3   150  VAL150      0.1561
     92  C         42.7730   69.4610   17.2900 C.2   150  VAL150      0.2260
     93  O         42.9430   69.9350   18.4120 O.2   150  VAL150     -0.2867
     94  CB        44.5080   69.8610   15.5200 C.3   150  VAL150      0.0252
     95  CG1       44.8750   71.1430   16.2380 C.3   150  VAL150      0.0019
     96  CG2       45.7520   69.2910   14.8280 C.3   150  VAL150      0.0019
     97  N         48.7910   74.8720   15.0190 N.3   168  ASP168     -0.1239
     98  CA        49.0950   75.9430   14.0700 C.3   168  ASP168      0.1674
     99  C         48.0680   77.0410   14.3210 C.2   168  ASP168      0.2266
    100  O         46.8840   76.7220   14.5320 O.2   168  ASP168     -0.2867
    101  CB        48.9850   75.4240   12.6300 C.3   168  ASP168      0.1410
    102  CG        49.9730   74.2940   12.3110 C.2   168  ASP168      0.3668
    103  OD1       51.1300   74.3280   12.8260 O.co2 168  ASP168     -0.2456
    104  OD2       49.5920   73.3780   11.5210 O.co2 168  ASP168     -0.2456
    105  N         44.5580   77.0830   12.7690 N.3   171  GLU171     -0.1245
    106  CA        43.6540   76.1400   13.4540 C.3   171  GLU171      0.1567
    107  C         43.1940   76.6590   14.7660 C.2   171  GLU171      0.2260
    108  O         42.0190   76.5450   15.1030 O.2   171  GLU171     -0.2867
    109  CB        44.2280   74.7320   13.5730 C.3   171  GLU171      0.0388
    110  CG        43.7410   73.8610   12.4260 C.3   171  GLU171      0.1160
    111  CD        43.7560   72.3630   12.6670 C.2   171  GLU171      0.3649
    112  OE1       42.6660   71.7680   12.9990 O.co2 171  GLU171     -0.2457
    113  OE2       44.8360   71.7810   12.4470 O.co2 171  GLU171     -0.2457
    114  N         52.5000   76.7290    4.7300 N.3   194  LEU194     -0.1245
    115  CA        51.9370   75.4120    4.5240 C.3   194  LEU194      0.1561
    116  C         52.1080   75.0550    3.0630 C.2   194  LEU194      0.2260
    117  O         52.1910   75.9380    2.2320 O.2   194  LEU194     -0.2867
    118  CB        50.4670   75.4160    4.8740 C.3   194  LEU194      0.0270
    119  CG        50.0360   75.6750    6.3250 C.3   194  LEU194      0.0019
    120  CD1       48.5380   75.4550    6.3700 C.3   194  LEU194      0.0001
    121  CD2       50.7420   74.7770    7.3330 C.3   194  LEU194      0.0001
@<TRIPOS>BOND
     1   117   116    2
     2    23    22    2
     3   116   115    1
     4    32    33    1
     5    22    21    1
     6    47    46    1
     7    21    20    1
     8    21    24    1
     9    26    28   ar
    10    26    25   ar
    11    28    30   ar
    12    33    36    1
    13    33    34    1
    14   115   114    1
    15   115   118    1
    16   118   119    1
    17    46    45    1
    18    46    48    1
    19    45    42    1
    20    24    25    1
    21    37    34   am
    22    37    38    1
    23    44    43    2
    24    25    27   ar
    25    34    35    2
    26     1     2    1
    27    41    42    1
    28    41    39   am
    29    30    31    1
    30    30    29   ar
    31    42    43    1
    32    43    49   am
    33    38    39    1
    34   119   120    1
    35   119   121    1
    36    27    29   ar
    37    51    52    2
    38    51    50    1
    39     4     3    2
    40    39    40    2
    41     2     3    1
    42     2     5    1
    43    49    50    1
    44    50    53    1
    45    15    14    2
    46     6     5    1
    47     6     7    1
    48     7     8    1
    49    53    55    1
    50    53    54    1
    51    14    13    1
    52    11     9    1
    53    13    16    1
    54    13    12    1
    55    19    17    1
    56     8     9    2
    57     9    10    1
    58    16    17    1
    59    17    18    1
    60    67    66    2
    61   104   102   ar
    62    78    79    1
    63    78    75    1
    64   102   101    1
    65   102   103   ar
    66   110   111    1
    67   110   109    1
    68   113   111   ar
    69    66    65    1
    70    66    68   am
    71    74    75    1
    72    74    70   am
    73   101    98    1
    74   111   112   ar
    75   105   106    1
    76    75    76    1
    77    65    64    1
    78    69    70    1
    79    69    68    1
    80    69    72    1
    81    70    71    2
    82   106   109    1
    83   106   107    1
    84    72    73    1
    85    98    99    1
    86    98    97    1
    87    62    61    1
    88    76    77    2
    89    76    80   am
    90    99   100    2
    91    89    88   ar
    92    89    87   ar
    93    88    86   ar
    94   107   108    2
    95    96    94    1
    96    80    81    1
    97    87    85   ar
    98    86    85   ar
    99    61    60    1
   100    61    63    1
   101    94    95    1
   102    94    91    1
   103    60    57    1
   104    85    84    1
   105    90    91    1
   106    81    84    1
   107    81    82    1
   108    59    58    2
   109    91    92    1
   110    58    57    1
   111    57    56    1
   112    82    83    2
   113    92    93    2
