@<TRIPOS>MOLECULE
tmp/4oxxA00.pdb
 150 148 0 0 0
SMALL
GASTEIGER

@<TRIPOS>ATOM
      1  N         -5.4290  -37.9690   -1.9300 N.3     9  THR9       -0.1203
      2  CA        -6.8380  -38.2460   -1.8550 C.3     9  THR9        0.1994
      3  C         -7.1920  -39.6060   -2.3670 C.2     9  THR9        0.2618
      4  O         -6.5130  -40.1170   -3.2720 O.2     9  THR9       -0.2717
      5  CB        -7.6100  -37.1700   -2.7170 C.3     9  THR9        0.1784
      6  OG1       -8.9840  -37.1610   -2.4180 O.3     9  THR9       -0.2211
      7  CG2       -7.4540  -37.3320   -4.2100 C.3     9  THR9        0.0376
      8  N         -8.3080  -40.1580   -1.8930 N.am   10  GLU10      -0.1965
      9  CA        -8.9660  -41.2770   -2.5970 C.3    10  GLU10       0.1733
     10  C        -10.3340  -40.8870   -3.1030 C.2    10  GLU10       0.2617
     11  O        -10.6940  -41.2590   -4.2000 O.2    10  GLU10      -0.2715
     12  CB        -9.1030  -42.5130   -1.7000 C.3    10  GLU10       0.0429
     13  CG        -7.7830  -43.1440   -1.3580 C.3    10  GLU10       0.1163
     14  CD        -7.0180  -43.7260   -2.5240 C.2    10  GLU10       0.3649
     15  OE1       -7.5600  -43.8940   -3.6340 O.co2  10  GLU10      -0.2457
     16  OE2       -5.8040  -44.0130   -2.3390 O.co2  10  GLU10      -0.2457
     17  N        -11.1220  -40.1360   -2.3120 N.am   11  THR11      -0.1937
     18  CA       -12.5070  -39.8680   -2.6960 C.3    11  THR11       0.2028
     19  C        -12.7880  -38.3930   -2.9890 C.2    11  THR11       0.2643
     20  O        -13.9400  -38.0210   -3.1910 O.2    11  THR11      -0.2714
     21  CB       -13.5310  -40.4400   -1.6430 C.3    11  THR11       0.1808
     22  OG1      -13.4340  -39.7610   -0.3730 O.3    11  THR11      -0.2208
     23  CG2      -13.2850  -41.8980   -1.3980 C.3    11  THR11       0.0379
     24  N        -11.7450  -37.5760   -3.1030 N.am   12  GLY12      -0.1939
     25  CA       -11.8610  -36.2050   -3.6050 C.3    12  GLY12       0.2014
     26  C        -11.8630  -35.1130   -2.5480 C.2    12  GLY12       0.2639
     27  O        -11.7240  -33.9360   -2.9210 O.2    12  GLY12      -0.2714
     28  N        -12.0110  -35.4090   -1.2590 N.am   13  ASN13      -0.1958
     29  CA       -12.0830  -34.3410   -0.2760 C.3    13  ASN13       0.1819
     30  C        -10.7900  -33.5510   -0.2550 C.2    13  ASN13       0.2621
     31  O        -10.8120  -32.3020   -0.2030 O.2    13  ASN13      -0.2715
     32  CB       -12.4150  -34.8610    1.1220 C.3    13  ASN13       0.1195
     33  CG       -13.7880  -35.4400    1.2190 C.2    13  ASN13       0.2630
     34  OD1      -14.6860  -35.0830    0.4510 O.2    13  ASN13      -0.2716
     35  ND2      -13.9870  -36.2890    2.2090 N.am   13  ASN13      -0.0877
     36  N         -9.6420  -34.2250   -0.2400 N.am   14  ALA14      -0.1977
     37  CA        -8.3770  -33.5060   -0.1270 C.3    14  ALA14       0.1597
     38  C         -8.1570  -32.6180   -1.3380 C.2    14  ALA14       0.2287
     39  O         -7.5450  -31.5470   -1.2280 O.2    14  ALA14      -0.2864
     40  CB        -7.2400  -34.4670    0.0620 C.3    14  ALA14       0.0319
     41  N         -5.4210  -37.0210    3.2630 N.3    57  ALA57      -0.1231
     42  CA        -6.3060  -37.9290    3.9860 C.3    57  ALA57       0.1694
     43  C         -5.5480  -39.1470    4.4910 C.2    57  ALA57       0.2593
     44  O         -4.4380  -39.4390    4.0480 O.2    57  ALA57      -0.2718
     45  CB        -7.4790  -38.3140    3.0830 C.3    57  ALA57       0.0304
     46  N         -6.1590  -39.8340    5.4390 N.am   58  THR58      -0.1939
     47  CA        -5.6250  -41.0430    6.0530 C.3    58  THR58       0.2028
     48  C         -6.4920  -42.2480    5.6720 C.2    58  THR58       0.2642
     49  O         -7.7300  -42.1800    5.7630 O.2    58  THR58      -0.2714
     50  CB        -5.6420  -40.9250    7.5930 C.3    58  THR58       0.1808
     51  OG1       -4.9090  -39.7560    8.0260 O.3    58  THR58      -0.2208
     52  CG2       -5.0100  -42.0960    8.2570 C.3    58  THR58       0.0379
     53  N         -5.8520  -43.3710    5.3640 N.am   59  TYR59      -0.1959
     54  CA        -6.5280  -44.6470    5.1200 C.3    59  TYR59       0.1771
     55  C         -5.6760  -45.7610    5.7190 C.2    59  TYR59       0.2620
     56  O         -4.5090  -45.5420    6.0910 O.2    59  TYR59      -0.2715
     57  CB        -6.7190  -44.9250    3.6040 C.3    59  TYR59       0.0574
     58  CG        -7.7900  -44.0640    2.9920 C.ar   59  TYR59      -0.0198
     59  CD1       -7.4790  -42.8230    2.4270 C.ar   59  TYR59      -0.0009
     60  CD2       -9.1250  -44.4570    3.0160 C.ar   59  TYR59      -0.0009
     61  CE1       -8.4670  -42.0020    1.8740 C.ar   59  TYR59       0.0417
     62  CE2      -10.1220  -43.6580    2.4590 C.ar   59  TYR59       0.0417
     63  CZ        -9.7870  -42.4390    1.8850 C.ar   59  TYR59       0.1957
     64  OH       -10.8120  -41.6850    1.3240 O.3    59  TYR59      -0.2866
     65  N         -6.2000  -47.0050    5.7250 N.am   60  GLY60      -0.1954
     66  CA        -5.3740  -48.1700    6.0890 C.3    60  GLY60       0.1869
     67  C         -4.7340  -48.0430    7.4870 C.2    60  GLY60       0.2309
     68  O         -5.3860  -47.5760    8.4200 O.2    60  GLY60      -0.2863
     69  N         -6.8650  -34.6800    6.7570 N.3    92  LEU92      -0.1231
     70  CA        -8.2280  -35.1940    6.7360 C.3    92  LEU92       0.1693
     71  C         -8.2740  -36.5830    7.3150 C.2    92  LEU92       0.2593
     72  O         -7.4330  -37.4430    7.0330 O.2    92  LEU92      -0.2718
     73  CB        -8.7710  -35.2520    5.3190 C.3    92  LEU92       0.0284
     74  CG        -8.9450  -33.9260    4.5780 C.3    92  LEU92       0.0019
     75  CD1       -7.6770  -33.4400    3.8920 C.3    92  LEU92       0.0001
     76  CD2      -10.0190  -34.1310    3.5080 C.3    92  LEU92       0.0001
     77  N         -9.3050  -36.8330    8.1330 N.am   93  GLY93      -0.1942
     78  CA        -9.5390  -38.1520    8.6950 C.3    93  GLY93       0.2014
     79  C        -10.9500  -38.2090    9.2460 C.2    93  GLY93       0.2638
     80  O        -11.8380  -37.4260    8.8900 O.2    93  GLY93      -0.2714
     81  N        -11.1770  -39.1650   10.1490 N.am   94  ASP94      -0.1971
     82  CA       -12.5180  -39.4230   10.6200 C.3    94  ASP94       0.1709
     83  C        -12.3400  -40.2340   11.8970 C.2    94  ASP94       0.2293
     84  O        -11.7750  -41.3340   11.8520 O.2    94  ASP94      -0.2864
     85  CB       -13.3170  -40.1940    9.5640 C.3    94  ASP94       0.1436
     86  CG       -14.7570  -40.4220    9.9540 C.2    94  ASP94       0.3671
     87  OD1      -15.0900  -40.2790   11.1150 O.co2  94  ASP94      -0.2456
     88  OD2      -15.5090  -40.8390    9.0780 O.co2  94  ASP94      -0.2456
     89  N        -12.6600  -43.9990   12.7170 N.3    97  TYR97      -0.1227
     90  CA       -11.5490  -44.9300   12.5050 C.3    97  TYR97       0.1736
     91  C        -10.4680  -44.7500   13.5540 C.2    97  TYR97       0.2596
     92  O        -10.2950  -43.6660   14.0950 O.2    97  TYR97      -0.2718
     93  CB       -10.9460  -44.7320   11.1200 C.3    97  TYR97       0.0548
     94  CG       -11.9390  -45.0220   10.0340 C.ar   97  TYR97      -0.0200
     95  CD1      -12.1440  -46.3130    9.5920 C.ar   97  TYR97      -0.0009
     96  CD2      -12.6880  -44.0020    9.4490 C.ar   97  TYR97      -0.0009
     97  CE1      -13.0840  -46.5870    8.6280 C.ar   97  TYR97       0.0417
     98  CE2      -13.6460  -44.2500    8.4680 C.ar   97  TYR97       0.0417
     99  CZ       -13.8310  -45.5780    8.0670 C.ar   97  TYR97       0.1957
    100  OH       -14.7660  -45.8670    7.0890 O.3    97  TYR97      -0.2866
    101  N         -9.7260  -45.8150   13.7770 N.am   98  THR98      -0.1939
    102  CA        -8.4760  -45.7240   14.5250 C.3    98  THR98       0.2028
    103  C         -7.4150  -45.0330   13.6390 C.2    98  THR98       0.2643
    104  O         -7.6830  -44.6380   12.4960 O.2    98  THR98      -0.2714
    105  CB        -8.0190  -47.1150   15.0080 C.3    98  THR98       0.1808
    106  OG1       -7.8790  -47.9620   13.8770 O.3    98  THR98      -0.2208
    107  CG2       -9.0310  -47.7070   15.9780 C.3    98  THR98       0.0379
    108  N         -6.2070  -44.8820   14.1490 N.am   99  THR99      -0.1936
    109  CA        -5.1520  -44.0990   13.5100 C.3    99  THR99       0.2028
    110  C         -5.7510  -42.7660   13.0000 C.2    99  THR99       0.2642
    111  O         -5.5370  -42.3550   11.8640 O.2    99  THR99      -0.2714
    112  CB        -4.3610  -44.8770   12.4300 C.3    99  THR99       0.1808
    113  OG1       -5.1660  -45.3560   11.3630 O.3    99  THR99      -0.2208
    114  CG2       -3.6180  -46.0480   13.0310 C.3    99  THR99       0.0379
    115  N         -6.4870  -42.0840   13.8810 N.am  100  PHE100     -0.1959
    116  CA        -7.2060  -40.8750   13.5070 C.3   100  PHE100      0.1771
    117  C         -6.2530  -39.7730   13.0150 C.2   100  PHE100      0.2619
    118  O         -5.3630  -39.3320   13.7460 O.2   100  PHE100     -0.2715
    119  CB        -8.0170  -40.3450   14.7060 C.3   100  PHE100      0.0574
    120  CG        -8.6150  -39.0120   14.4580 C.ar  100  PHE100     -0.0200
    121  CD1       -9.5420  -38.8100   13.4330 C.ar  100  PHE100     -0.0042
    122  CD2       -8.2430  -37.9210   15.2370 C.ar  100  PHE100     -0.0042
    123  CE1      -10.1240  -37.5400   13.2380 C.ar  100  PHE100     -0.0003
    124  CE2       -8.7680  -36.6560   15.0110 C.ar  100  PHE100     -0.0003
    125  CZ        -9.7510  -36.4740   14.0290 C.ar  100  PHE100     -0.0000
    126  N         -6.4250  -39.3610   11.7650 N.am  101  ASN101     -0.1972
    127  CA        -5.6660  -38.2650   11.2090 C.3   101  ASN101      0.1688
    128  C         -4.1470  -38.5110   11.2520 C.2   101  ASN101      0.2292
    129  O         -3.3510  -37.5530   11.2080 O.2   101  ASN101     -0.2864
    130  CB        -6.0270  -36.9180   11.8540 C.3   101  ASN101      0.1181
    131  CG        -6.7900  -36.0570   10.8750 C.2   101  ASN101      0.2629
    132  OD1       -6.2410  -35.6390    9.8570 O.2   101  ASN101     -0.2716
    133  ND2       -8.0720  -35.8390   11.1350 N.am  101  ASN101     -0.0877
    134  N         -9.0190  -32.3430   10.2930 N.3   125  HIS125     -0.1241
    135  CA       -10.4180  -32.3400    9.9350 C.3   125  HIS125      0.1621
    136  C        -11.0190  -33.7300   10.2070 C.2   125  HIS125      0.2264
    137  O        -10.3980  -34.7580    9.8710 O.2   125  HIS125     -0.2867
    138  CB       -10.6160  -31.9280    8.4850 C.3   125  HIS125      0.0745
    139  CG       -12.0510  -32.1150    8.0520 C.ar  125  HIS125      0.0817
    140  ND1      -13.1000  -31.2530    8.3160 N.ar  125  HIS125     -0.2268
    141  CD2      -12.5850  -33.2200    7.4640 C.ar  125  HIS125      0.1154
    142  CE1      -14.2200  -31.8230    7.8700 C.ar  125  HIS125      0.1986
    143  NE2      -13.9290  -33.0190    7.3820 N.ar  125  HIS125     -0.2212
    144  N        -14.3460  -36.0620    9.5490 N.3   127  THR127     -0.1218
    145  CA       -15.6220  -36.2280    8.8510 C.3   127  THR127      0.1862
    146  C        -16.7730  -36.3990    9.8290 C.2   127  THR127      0.2287
    147  O        -17.8850  -35.9660    9.5400 O.2   127  THR127     -0.2866
    148  CB       -15.4950  -37.4420    7.9270 C.3   127  THR127      0.1770
    149  OG1      -14.5890  -37.1290    6.8870 O.3   127  THR127     -0.2211
    150  CG2      -16.7860  -37.8460    7.3100 C.3   127  THR127      0.0375
@<TRIPOS>BOND
     1     7     5    1
     2    11    10    2
     3    15    14   ar
     4    25    24    1
     5    25    26    1
     6     4     3    2
     7    20    19    2
     8    24    19   am
     9    10     9    1
    10    10    17   am
    11    19    18    1
    12    27    26    2
    13     5     6    1
    14     5     2    1
    15    18    17    1
    16    18    21    1
    17     9     8    1
    18     9    12    1
    19    26    28   am
    20    14    16   ar
    21    14    13    1
    22     3     8   am
    23     3     2    1
    24     1     2    1
    25    12    13    1
    26    21    23    1
    27    21    22    1
    28    38    39    2
    29    38    37    1
    30    28    29    1
    31    29    30    1
    32    29    32    1
    33    30    36   am
    34    30    31    2
    35    36    37    1
    36    37    40    1
    37    34    33    2
    38    32    33    1
    39    33    35   am
    40    64    63    1
    41    61    63   ar
    42    61    59   ar
    43    63    62   ar
    44    59    58   ar
    45    62    60   ar
    46    58    60   ar
    47    58    57    1
    48    45    42    1
    49    41    42    1
    50    76    74    1
    51    57    54    1
    52    75    74    1
    53    42    43    1
    54    44    43    2
    55    43    46   am
    56    74    73    1
    57    54    53    1
    58    54    55    1
    59    73    70    1
    60    53    48   am
    61    46    47    1
    62    48    49    2
    63    48    47    1
    64    55    65   am
    65    55    56    2
    66    65    66    1
    67    47    50    1
    68    66    67    1
    69    70    69    1
    70    70    71    1
    71   149   148    1
    72    72    71    2
    73   100    99    1
    74   150   148    1
    75    71    77   am
    76   143   141   ar
    77   143   142   ar
    78   141   139   ar
    79    67    68    2
    80    50    51    1
    81    50    52    1
    82   142   140   ar
    83   148   145    1
    84   139   140   ar
    85   139   138    1
    86    99    98   ar
    87    99    97   ar
    88    77    78    1
    89    98    96   ar
    90   138   135    1
    91    97    95   ar
    92    78    79    1
    93   145   144    1
    94   145   146    1
    95    80    79    2
    96    88    86   ar
    97    79    81   am
    98    96    94   ar
    99   147   146    2
   100    85    86    1
   101    85    82    1
   102    95    94   ar
   103   132   131    2
   104   137   136    2
   105   135   136    1
   106   135   134    1
   107    86    87   ar
   108    94    93    1
   109    81    82    1
   110    82    83    1
   111   131   133   am
   112   131   130    1
   113    93    90    1
   114   129   128    2
   115   127   128    1
   116   127   126    1
   117   127   130    1
   118   113   112    1
   119   126   117   am
   120    84    83    2
   121   111   110    2
   122   112   114    1
   123   112   109    1
   124   104   103    2
   125    90    89    1
   126    90    91    1
   127   110   109    1
   128   110   115   am
   129   117   116    1
   130   117   118    2
   131   123   121   ar
   132   123   125   ar
   133   121   120   ar
   134   116   115    1
   135   116   119    1
   136   109   108    1
   137    91   101   am
   138    91    92    2
   139   103   108   am
   140   103   102    1
   141   101   102    1
   142   106   105    1
   143   125   124   ar
   144   120   119    1
   145   120   122   ar
   146   102   105    1
   147   105   107    1
   148   124   122   ar
