@<TRIPOS>MOLECULE
tmp/4oxyC01.pdb
 157 151 0 0 0
SMALL
GASTEIGER

@<TRIPOS>ATOM
      1  N        -12.4080    6.7760    2.7940 N.3    94  ILE94      -0.1231
      2  CA       -12.7460    5.4440    2.3330 C.3    94  ILE94       0.1692
      3  C        -13.4630    4.6640    3.4130 C.2    94  ILE94       0.2593
      4  O        -13.3670    4.9710    4.6050 O.2    94  ILE94      -0.2718
      5  CB       -11.4970    4.6340    1.9310 C.3    94  ILE94       0.0266
      6  CG1      -10.7170    4.2500    3.1750 C.3    94  ILE94       0.0019
      7  CG2      -10.6170    5.4250    0.9750 C.3    94  ILE94       0.0020
      8  CD1       -9.5630    3.3010    2.9000 C.3    94  ILE94       0.0001
      9  N        -14.1680    3.6280    2.9880 N.am   95  GLY95      -0.1942
     10  CA       -14.8260    2.7610    3.9350 C.3    95  GLY95       0.2014
     11  C        -15.6460    1.7280    3.2110 C.2    95  GLY95       0.2639
     12  O        -15.8930    1.8290    2.0090 O.2    95  GLY95      -0.2714
     13  N        -16.0720    0.7270    3.9570 N.am   96  PHE96      -0.1959
     14  CA       -16.7660   -0.3740    3.3540 C.3    96  PHE96       0.1771
     15  C        -17.3380   -1.2750    4.4220 C.2    96  PHE96       0.2619
     16  O        -16.7430   -1.4720    5.4720 O.2    96  PHE96      -0.2715
     17  CB       -15.8320   -1.1780    2.4480 C.3    96  PHE96       0.0574
     18  CG       -16.5030   -2.3530    1.8250 C.ar   96  PHE96      -0.0200
     19  CD1      -17.4210   -2.1740    0.8070 C.ar   96  PHE96      -0.0042
     20  CD2      -16.2610   -3.6320    2.2900 C.ar   96  PHE96      -0.0042
     21  CE1      -18.0680   -3.2460    0.2490 C.ar   96  PHE96      -0.0003
     22  CE2      -16.9010   -4.7140    1.7320 C.ar   96  PHE96      -0.0003
     23  CZ       -17.8070   -4.5210    0.7160 C.ar   96  PHE96      -0.0000
     24  N        -18.5060   -1.8200    4.1400 N.am   97  MET97      -0.1977
     25  CA       -19.0740   -2.8330    4.9930 C.3    97  MET97       0.1605
     26  C        -19.9350   -3.7390    4.1340 C.2    97  MET97       0.2287
     27  O        -20.8230   -3.2680    3.4330 O.2    97  MET97      -0.2864
     28  CB       -19.9020   -2.2010    6.1120 C.3    97  MET97       0.0413
     29  CG       -20.4350   -3.2190    7.1300 C.3    97  MET97       0.0598
     30  SD       -19.1550   -3.9880    8.1560 S.3    97  MET97      -0.1393
     31  CE       -18.4590   -2.5690    9.0200 C.3    97  MET97       0.0692
     32  N        -25.1880   -4.3300    7.1710 N.3   102  MET102     -0.1245
     33  CA       -25.8700   -3.0780    6.8760 C.3   102  MET102      0.1570
     34  C        -27.3800   -3.2460    6.7410 C.2   102  MET102      0.2261
     35  O        -27.8720   -4.3580    6.5700 O.2   102  MET102     -0.2867
     36  CB       -25.3430   -2.5300    5.5560 C.3   102  MET102      0.0387
     37  CG       -23.8680   -2.2250    5.5640 C.3   102  MET102      0.0595
     38  SD       -23.5470   -0.9410    6.7610 S.3   102  MET102     -0.1393
     39  CE       -24.3720    0.4420    5.9940 C.3   102  MET102      0.0692
     40  N        -18.9520    9.4310   10.4040 N.3   148  PHE148     -0.1241
     41  CA       -20.3870    9.6560   10.5510 C.3   148  PHE148      0.1605
     42  C        -20.6930    9.3850   12.0190 C.2   148  PHE148      0.2264
     43  O        -20.4490    8.2770   12.5100 O.2   148  PHE148     -0.2867
     44  CB       -21.2090    8.7470    9.6180 C.3   148  PHE148      0.0534
     45  CG       -22.6900    9.0500    9.6180 C.ar  148  PHE148     -0.0203
     46  CD1      -23.6060    8.1370   10.1430 C.ar  148  PHE148     -0.0042
     47  CD2      -23.1730   10.2480    9.0950 C.ar  148  PHE148     -0.0042
     48  CE1      -24.9810    8.4180   10.1460 C.ar  148  PHE148     -0.0003
     49  CE2      -24.5450   10.5340    9.0890 C.ar  148  PHE148     -0.0003
     50  CZ       -25.4460    9.6220    9.6200 C.ar  148  PHE148     -0.0000
     51  N        -28.4490    3.5800   15.5770 N.3   154  MET154     -0.1231
     52  CA       -29.4460    4.0160   14.6250 C.3   154  MET154      0.1687
     53  C        -29.8060    2.8660   13.7090 C.2   154  MET154      0.2434
     54  O        -29.0390    1.9140   13.5620 O.2   154  MET154     -0.2733
     55  CB       -28.9060    5.2010   13.8200 C.3   154  MET154      0.0400
     56  CG       -27.7140    4.8610   12.9390 C.3   154  MET154      0.0596
     57  SD       -26.8800    6.3300   12.2970 S.3   154  MET154     -0.1393
     58  CE       -25.8340    6.7510   13.6780 C.3   154  MET154      0.0692
     59  N        -30.9870    2.9390   13.0960 N.am  155  PRO155     -0.2718
     60  CA       -31.3380    1.9030   12.1180 C.3   155  PRO155      0.1535
     61  C        -30.4310    1.9670   10.9000 C.2   155  PRO155      0.2598
     62  O        -29.8810    3.0330   10.6100 O.2   155  PRO155     -0.2715
     63  CB       -32.7730    2.2680   11.7210 C.3   155  PRO155      0.0310
     64  CG       -32.9230    3.7380   12.1000 C.3   155  PRO155      0.0237
     65  CD       -32.0790    3.9020   13.3210 C.3   155  PRO155      0.0939
     66  N        -30.2740    0.8320   10.2210 N.am  156  ALA156     -0.1964
     67  CA       -29.5900    0.7400    8.9200 C.3   156  ALA156      0.1728
     68  C        -28.0650    0.8020    8.9660 C.2   156  ALA156      0.2616
     69  O        -27.3940    0.0270    8.2890 O.2   156  ALA156     -0.2715
     70  CB       -30.1440    1.7690    7.9080 C.3   156  ALA156      0.0334
     71  N        -27.5170    1.7110    9.7620 N.am  157  TYR157     -0.1974
     72  CA       -26.0820    1.9400    9.7280 C.3   157  TYR157      0.1639
     73  C        -25.3450    0.7790   10.3700 C.2   157  TYR157      0.2290
     74  O        -24.2310    0.4520    9.9750 O.2   157  TYR157     -0.2864
     75  CB       -25.7280    3.2760   10.3830 C.3   157  TYR157      0.0560
     76  CG       -24.4390    3.8880    9.8750 C.ar  157  TYR157     -0.0198
     77  CD1      -24.2200    4.0760    8.5100 C.ar  157  TYR157     -0.0009
     78  CD2      -23.4420    4.2890   10.7620 C.ar  157  TYR157     -0.0009
     79  CE1      -23.0300    4.6430    8.0490 C.ar  157  TYR157      0.0417
     80  CE2      -22.2590    4.8560   10.3130 C.ar  157  TYR157      0.0417
     81  CZ       -22.0570    5.0380    8.9640 C.ar  157  TYR157      0.1957
     82  OH       -20.8750    5.6010    8.5400 O.3   157  TYR157     -0.2866
     83  N        -21.4750   -0.5630   10.4160 N.3   160  MET160     -0.1245
     84  CA       -20.6590    0.5740    9.9980 C.3   160  MET160      0.1570
     85  C        -20.5270    1.5690   11.1610 C.2   160  MET160      0.2261
     86  O        -19.4840    2.2020   11.3300 O.2   160  MET160     -0.2867
     87  CB       -21.2320    1.2490    8.7470 C.3   160  MET160      0.0387
     88  CG       -20.2910    2.2570    8.1060 C.3   160  MET160      0.0595
     89  SD       -18.7110    1.5370    7.5930 S.3   160  MET160     -0.1393
     90  CE       -17.8130    3.0000    7.0710 C.3   160  MET160      0.0692
     91  N        -17.1600    3.0430   12.7300 N.3   164  LYS164     -0.1245
     92  CA       -16.9340    4.4880   12.9250 C.3   164  LYS164      0.1561
     93  C        -16.4890    4.8050   14.3540 C.2   164  LYS164      0.2260
     94  O        -15.6610    5.6910   14.5710 O.2   164  LYS164     -0.2867
     95  CB       -18.1710    5.3270   12.5530 C.3   164  LYS164      0.0271
     96  CG       -18.5060    5.4100   11.0580 C.3   164  LYS164      0.0035
     97  CD       -17.2980    5.8660   10.2210 C.3   164  LYS164      0.0206
     98  CE       -17.7310    6.1970    8.7990 C.3   164  LYS164      0.1093
     99  NZ       -16.5900    6.4890    7.8850 N.3   164  LYS164     -0.1314
    100  N        -25.6100   13.3980    6.0530 N.3   192  PRO192     -0.2102
    101  CA       -25.8580   12.4570    4.9540 C.3   192  PRO192      0.1504
    102  C        -25.6350   13.1200    3.6030 C.2   192  PRO192      0.2575
    103  O        -26.0900   14.2410    3.3960 O.2   192  PRO192     -0.2718
    104  CB       -27.3440   12.1110    5.1100 C.3   192  PRO192      0.0282
    105  CG       -27.7340   12.5980    6.4670 C.3   192  PRO192      0.0208
    106  CD       -26.8440   13.7470    6.7720 C.3   192  PRO192      0.0893
    107  N        -24.9410   12.4330    2.7040 N.am  193  ILE193     -0.1980
    108  CA       -24.6830   12.9360    1.3630 C.3   193  ILE193      0.1595
    109  C        -24.9640   11.8100    0.3870 C.2   193  ILE193      0.2287
    110  O        -24.4940   10.6880    0.5930 O.2   193  ILE193     -0.2864
    111  CB       -23.2030   13.3550    1.1830 C.3   193  ILE193      0.0276
    112  CG1      -22.8130   14.4450    2.1800 C.3   193  ILE193      0.0022
    113  CG2      -22.9480   13.8280   -0.2530 C.3   193  ILE193      0.0022
    114  CD1      -23.3490   15.8180    1.8140 C.3   193  ILE193      0.0001
    115  N        -24.1570    9.6120   -2.0750 N.3   195  THR195     -0.1218
    116  CA       -22.9620    9.1130   -2.7530 C.3   195  THR195      0.1862
    117  C        -23.1930    7.6870   -3.2400 C.2   195  THR195      0.2287
    118  O        -24.2520    7.1130   -2.9900 O.2   195  THR195     -0.2866
    119  CB       -21.7640    9.1060   -1.8060 C.3   195  THR195      0.1770
    120  OG1      -22.0810    8.2980   -0.6650 O.3   195  THR195     -0.2211
    121  CG2      -21.4440   10.5220   -1.3490 C.3   195  THR195      0.0375
    122  N        -21.7500    5.0510   -2.0610 N.3   197  ALA197     -0.1231
    123  CA       -21.8740    4.2370   -0.8540 C.3   197  ALA197      0.1694
    124  C        -23.2400    4.4010   -0.1970 C.2   197  ALA197      0.2591
    125  O        -23.8010    3.4460    0.3460 O.2   197  ALA197     -0.2718
    126  CB       -20.7740    4.5700    0.1370 C.3   197  ALA197      0.0304
    127  N        -23.7550    5.6250   -0.2300 N.am  198  MET198     -0.1979
    128  CA       -25.0890    5.9150    0.2780 C.3   198  MET198      0.1605
    129  C        -26.1250    5.0930   -0.4950 C.2   198  MET198      0.2287
    130  O        -27.0530    4.5170    0.0930 O.2   198  MET198     -0.2864
    131  CB       -25.3670    7.4190    0.1670 C.3   198  MET198      0.0413
    132  CG       -26.8330    7.8300    0.1940 C.3   198  MET198      0.0598
    133  SD       -27.5660    7.8590    1.8330 S.3   198  MET198     -0.1393
    134  CE       -26.7660    9.2820    2.5740 C.3   198  MET198      0.0692
    135  N        -24.2810    0.7370   -1.0030 N.3   201  ILE201     -0.1231
    136  CA       -24.0540    0.0250    0.2500 C.3   201  ILE201      0.1692
    137  C        -25.2720    0.1290    1.1710 C.2   201  ILE201      0.2591
    138  O        -25.9620   -0.8630    1.4040 O.2   201  ILE201     -0.2718
    139  CB       -22.7580    0.5070    0.9690 C.3   201  ILE201      0.0266
    140  CG1      -21.5400    0.3000    0.0600 C.3   201  ILE201      0.0019
    141  CG2      -22.5670   -0.2170    2.2980 C.3   201  ILE201      0.0020
    142  CD1      -20.2110    0.5560    0.7340 C.3   201  ILE201      0.0001
    143  N        -25.5370    1.3300    1.6800 N.am  202  VAL202     -0.1980
    144  CA       -26.6630    1.5570    2.5810 C.3   202  VAL202      0.1595
    145  C        -28.0120    1.3130    1.8950 C.2   202  VAL202      0.2287
    146  O        -28.8620    0.5980    2.4250 O.2   202  VAL202     -0.2864
    147  CB       -26.6500    2.9990    3.1630 C.3   202  VAL202      0.0276
    148  CG1      -27.9120    3.2610    3.9860 C.3   202  VAL202      0.0022
    149  CG2      -25.3950    3.2420    3.9940 C.3   202  VAL202      0.0022
    150  N        -34.5070   10.5000    5.5950 N.3   210  LEU210     -0.1245
    151  CA       -33.2420   10.8300    6.2500 C.3   210  LEU210      0.1561
    152  C        -32.8870   12.2960    6.0330 C.2   210  LEU210      0.2260
    153  O        -32.4390   12.9780    6.9580 O.2   210  LEU210     -0.2867
    154  CB       -32.1140    9.9370    5.7190 C.3   210  LEU210      0.0270
    155  CG       -30.7280   10.2450    6.2210 C.3   210  LEU210      0.0019
    156  CD1      -30.6060   10.2740    7.7350 C.3   210  LEU210      0.0001
    157  CD2      -29.6960    9.2940    5.6160 C.3   210  LEU210      0.0001
@<TRIPOS>BOND
     1   117   118    2
     2   117   116    1
     3   116   115    1
     4   116   119    1
     5   122   123    1
     6   119   121    1
     7   119   120    1
     8   135   136    1
     9   123   124    1
    10   123   126    1
    11   129   130    2
    12   129   128    1
    13   113   111    1
    14   127   124   am
    15   127   128    1
    16   124   125    2
    17   140   142    1
    18   140   139    1
    19   131   132    1
    20   131   128    1
    21   132   133    1
    22    21    23   ar
    23    21    19   ar
    24   136   139    1
    25   136   137    1
    26   109   110    2
    27   109   108    1
    28    23    22   ar
    29    19    18   ar
    30   139   141    1
    31     7     5    1
    32   137   138    2
    33   137   143   am
    34   111   108    1
    35   111   112    1
    36   108   107    1
    37   143   144    1
    38    22    20   ar
    39   114   112    1
    40    18    20   ar
    41    18    17    1
    42   133   134    1
    43   145   146    2
    44   145   144    1
    45     5     2    1
    46     5     6    1
    47    12    11    2
    48     2     1    1
    49     2     3    1
    50    17    14    1
    51   144   147    1
    52   107   102   am
    53     8     6    1
    54     9     3   am
    55     9    10    1
    56   147   148    1
    57   147   149    1
    58    11    10    1
    59    11    13   am
    60    14    13    1
    61    14    15    1
    62   103   102    2
    63     3     4    2
    64    27    26    2
    65   102   101    1
    66    26    25    1
    67    24    15   am
    68    24    25    1
    69    15    16    2
    70   101   104    1
    71   101   100    1
    72    25    28    1
    73   104   105    1
    74    36    37    1
    75    36    33    1
    76    37    38    1
    77   150   151    1
    78   157   155    1
    79   154   155    1
    80   154   151    1
    81    39    38    1
    82   152   151    1
    83   152   153    2
    84   100   106    1
    85    28    29    1
    86   155   156    1
    87   105   106    1
    88    35    34    2
    89    34    33    1
    90    33    32    1
    91    90    89    1
    92    29    30    1
    93    89    88    1
    94    99    98    1
    95    70    67    1
    96    79    77   ar
    97    79    81   ar
    98    88    87    1
    99    30    31    1
   100    69    68    2
   101    77    76   ar
   102    82    81    1
   103    87    84    1
   104    98    97    1
   105    67    68    1
   106    67    66    1
   107    81    80   ar
   108    68    71   am
   109    49    47   ar
   110    49    50   ar
   111    47    45   ar
   112    44    45    1
   113    44    41    1
   114    45    46   ar
   115    50    48   ar
   116    72    71    1
   117    72    73    1
   118    72    75    1
   119    76    75    1
   120    76    78   ar
   121    74    73    2
   122    84    83    1
   123    84    85    1
   124    46    48   ar
   125    66    61   am
   126    97    96    1
   127    80    78   ar
   128    40    41    1
   129    41    42    1
   130    62    61    2
   131    61    60    1
   132    96    95    1
   133    85    86    2
   134    63    64    1
   135    63    60    1
   136    42    43    2
   137    64    65    1
   138    60    59    1
   139    57    56    1
   140    57    58    1
   141    95    92    1
   142    91    92    1
   143    92    93    1
   144    56    55    1
   145    59    65    1
   146    59    53   am
   147    54    53    2
   148    53    52    1
   149    55    52    1
   150    93    94    2
   151    52    51    1
