@<TRIPOS>MOLECULE
tmp/4oyaA00.pdb
 185 179 0 0 0
SMALL
GASTEIGER

@<TRIPOS>ATOM
      1  N         16.4970   27.8900    7.0510 N.3    45  PHE45      -0.1241
      2  CA        16.6570   28.4820    5.7250 C.3    45  PHE45       0.1605
      3  C         16.9950   29.9300    5.8920 C.2    45  PHE45       0.2264
      4  O         16.1760   30.7030    6.3910 O.2    45  PHE45      -0.2867
      5  CB        15.3720   28.3040    4.8970 C.3    45  PHE45       0.0534
      6  CG        15.5670   28.3260    3.4040 C.ar   45  PHE45      -0.0203
      7  CD1       16.6040   27.6160    2.8090 C.ar   45  PHE45      -0.0042
      8  CD2       14.7050   29.0400    2.5900 C.ar   45  PHE45      -0.0042
      9  CE1       16.7790   27.6370    1.4300 C.ar   45  PHE45      -0.0003
     10  CE2       14.8780   29.0650    1.2110 C.ar   45  PHE45      -0.0003
     11  CZ        15.9020   28.3580    0.6410 C.ar   45  PHE45      -0.0000
     12  N         23.8640   22.2200    4.6750 N.3    94  LEU94      -0.1231
     13  CA        23.6010   21.2530    3.5860 C.3    94  LEU94       0.1693
     14  C         24.0420   21.7820    2.2440 C.2    94  LEU94       0.2592
     15  O         24.7020   21.0620    1.4990 O.2    94  LEU94      -0.2718
     16  CB        22.1310   20.8840    3.5010 C.3    94  LEU94       0.0284
     17  CG        21.5310   20.1680    4.6980 C.3    94  LEU94       0.0019
     18  CD1       20.1070   19.7290    4.3600 C.3    94  LEU94       0.0001
     19  CD2       22.4420   18.9490    5.1400 C.3    94  LEU94       0.0001
     20  N         23.6980   23.0380    1.9370 N.am   95  LYS95      -0.1966
     21  CA        23.8990   23.5970    0.5920 C.3    95  LYS95       0.1728
     22  C         23.8350   25.1150    0.5920 C.2    95  LYS95       0.2616
     23  O         23.1060   25.6940    1.3960 O.2    95  LYS95      -0.2715
     24  CB        22.7520   23.0710   -0.3100 C.3    95  LYS95       0.0311
     25  CG        23.1170   22.9290   -1.7600 C.3    95  LYS95       0.0038
     26  CD        22.0990   22.0910   -2.5310 C.3    95  LYS95       0.0206
     27  CE        22.2730   20.6010   -2.3420 C.3    95  LYS95       0.1093
     28  NZ        21.7540   19.8440   -3.5110 N.3    95  LYS95      -0.1314
     29  N         24.5990   25.7430   -0.3190 N.am   96  PHE96      -0.1960
     30  CA        24.5680   27.1640   -0.5950 C.3    96  PHE96       0.1771
     31  C         23.9460   27.3880   -1.9670 C.2    96  PHE96       0.2619
     32  O         24.1650   26.6180   -2.8990 O.2    96  PHE96      -0.2715
     33  CB        25.9580   27.8090   -0.5850 C.3    96  PHE96       0.0574
     34  CG        26.7800   27.7080    0.6750 C.ar   96  PHE96      -0.0200
     35  CD1       27.5010   26.5520    0.9670 C.ar   96  PHE96      -0.0042
     36  CD2       26.8570   28.7850    1.5680 C.ar   96  PHE96      -0.0042
     37  CE1       28.2860   26.4680    2.1390 C.ar   96  PHE96      -0.0003
     38  CE2       27.6310   28.7020    2.7340 C.ar   96  PHE96      -0.0003
     39  CZ        28.3410   27.5460    3.0130 C.ar   96  PHE96      -0.0000
     40  N         23.1650   28.4480   -2.0730 N.am   97  ALA97      -0.1977
     41  CA        22.7140   28.9960   -3.3590 C.3    97  ALA97       0.1597
     42  C         23.0420   30.4770   -3.3280 C.2    97  ALA97       0.2287
     43  O         23.3510   31.0260   -2.2540 O.2    97  ALA97      -0.2864
     44  CB        21.2160   28.8000   -3.5100 C.3    97  ALA97       0.0319
     45  N         21.0010   32.8710   -3.3400 N.3    99  ASP99      -0.1225
     46  CA        19.9630   33.5860   -2.5850 C.3    99  ASP99       0.1805
     47  C         19.7550   33.0490   -1.1340 C.2    99  ASP99       0.2597
     48  O         19.1510   33.7480   -0.3270 O.2    99  ASP99      -0.2718
     49  CB        18.6400   33.4510   -3.3430 C.3    99  ASP99       0.1424
     50  CG        18.1780   31.9960   -3.3960 C.2    99  ASP99       0.3668
     51  OD1       18.9170   31.1550   -3.9740 O.co2  99  ASP99      -0.2456
     52  OD2       17.1450   31.6770   -2.7580 O.co2  99  ASP99      -0.2456
     53  N         20.2380   31.8260   -0.8100 N.am  100  ALA100     -0.1979
     54  CA        20.0130   31.1950    0.4810 C.3   100  ALA100      0.1597
     55  C         21.0700   30.1530    0.8900 C.2   100  ALA100      0.2287
     56  O         21.8030   29.6120    0.0540 O.2   100  ALA100     -0.2864
     57  CB        18.6270   30.5460    0.5080 C.3   100  ALA100      0.0319
     58  N         20.9310   26.5440    3.4610 N.3   102  LEU102     -0.1245
     59  CA        20.0450   25.6440    4.1560 C.3   102  LEU102      0.1561
     60  C         20.8670   24.8470    5.1380 C.2   102  LEU102      0.2260
     61  O         21.9020   24.3010    4.7640 O.2   102  LEU102     -0.2867
     62  CB        19.3770   24.6880    3.1350 C.3   102  LEU102      0.0270
     63  CG        18.4010   23.6210    3.7190 C.3   102  LEU102      0.0019
     64  CD1       17.1280   24.2960    4.3500 C.3   102  LEU102      0.0001
     65  CD2       17.9610   22.6640    2.6290 C.3   102  LEU102      0.0001
     66  N         22.7590   15.1530   -4.1000 N.3   165  PHE165     -0.1227
     67  CA        21.7480   14.8340   -3.0800 C.3   165  PHE165      0.1736
     68  C         20.7390   15.9680   -2.9470 C.2   165  PHE165      0.2595
     69  O         21.0030   17.1100   -3.3580 O.2   165  PHE165     -0.2718
     70  CB        22.4090   14.5300   -1.7070 C.3   165  PHE165      0.0547
     71  CG        22.7710   15.7970   -0.9410 C.ar  165  PHE165     -0.0202
     72  CD1       21.8840   16.3470   -0.0110 C.ar  165  PHE165     -0.0042
     73  CD2       23.9770   16.4440   -1.1710 C.ar  165  PHE165     -0.0042
     74  CE1       22.2080   17.5310    0.6770 C.ar  165  PHE165     -0.0003
     75  CE2       24.3090   17.6180   -0.4720 C.ar  165  PHE165     -0.0003
     76  CZ        23.4210   18.1480    0.4490 C.ar  165  PHE165     -0.0000
     77  N         19.5990   15.6400   -2.3400 N.am  166  LEU166     -0.1966
     78  CA        18.5270   16.5490   -1.9970 C.3   166  LEU166      0.1728
     79  C         17.9110   16.1010   -0.6840 C.2   166  LEU166      0.2616
     80  O         17.8650   14.9050   -0.4060 O.2   166  LEU166     -0.2715
     81  CB        17.4200   16.4710   -3.0690 C.3   166  LEU166      0.0311
     82  CG        17.6400   17.1880   -4.3840 C.3   166  LEU166      0.0022
     83  CD1       16.5170   16.8230   -5.3920 C.3   166  LEU166      0.0001
     84  CD2       17.6980   18.6980   -4.1790 C.3   166  LEU166      0.0001
     85  N         17.4510   17.0560    0.1270 N.am  167  VAL167     -0.1977
     86  CA        16.4830   16.7660    1.1950 C.3   167  VAL167      0.1596
     87  C         15.1180   17.1860    0.6640 C.2   167  VAL167      0.2287
     88  O         15.0030   18.2170   -0.0210 O.2   167  VAL167     -0.2864
     89  CB        16.7960   17.4150    2.5750 C.3   167  VAL167      0.0276
     90  CG1       18.0000   16.7560    3.2330 C.3   167  VAL167      0.0022
     91  CG2       16.9750   18.9350    2.4810 C.3   167  VAL167      0.0022
     92  N         10.9100   20.2620    4.5940 N.3   172  VAL172     -0.1245
     93  CA        11.6040   20.9680    3.5040 C.3   172  VAL172      0.1561
     94  C         10.6400   21.9620    2.8130 C.2   172  VAL172      0.2260
     95  O         11.0050   23.1310    2.6500 O.2   172  VAL172     -0.2867
     96  CB        12.2510   19.9630    2.5060 C.3   172  VAL172      0.0252
     97  CG1       12.8280   20.6690    1.2800 C.3   172  VAL172      0.0019
     98  CG2       13.3430   19.1550    3.1970 C.3   172  VAL172      0.0019
     99  N         10.6860   26.5100    3.2930 N.3   176  ARG176     -0.1245
    100  CA        10.5890   27.5090    2.2350 C.3   176  ARG176      0.1563
    101  C          9.3590   28.3900    2.3910 C.2   176  ARG176      0.2260
    102  O          9.4840   29.5960    2.2130 O.2   176  ARG176     -0.2867
    103  CB        10.6890   26.9040    0.8380 C.3   176  ARG176      0.0307
    104  CG        11.7890   27.5840    0.0390 C.3   176  ARG176      0.0489
    105  CD        11.2940   28.7020   -0.8620 C.3   176  ARG176      0.2205
    106  NE        12.3690   29.6340   -1.2210 N.pl3 176  ARG176     -0.0865
    107  CZ        13.1960   29.4810   -2.2530 C.cat 176  ARG176      0.5346
    108  NH1       13.0890   28.4230   -3.0490 N.pl3 176  ARG176      0.1354
    109  NH2       14.1380   30.3840   -2.4950 N.pl3 176  ARG176      0.1354
    110  N         17.7290   26.4890  -16.6650 N.3   295  PHE295     -0.1241
    111  CA        17.1300   26.1280  -15.3860 C.3   295  PHE295      0.1605
    112  C         15.9450   25.1860  -15.6560 C.2   295  PHE295      0.2264
    113  O         14.9140   25.6100  -16.1980 O.2   295  PHE295     -0.2867
    114  CB        16.7290   27.3860  -14.5760 C.3   295  PHE295      0.0534
    115  CG        17.1250   27.3800  -13.1040 C.ar  295  PHE295     -0.0203
    116  CD1       16.9530   26.2360  -12.3170 C.ar  295  PHE295     -0.0042
    117  CD2       17.6720   28.5200  -12.5080 C.ar  295  PHE295     -0.0042
    118  CE1       17.3310   26.2300  -10.9540 C.ar  295  PHE295     -0.0003
    119  CE2       18.0210   28.5230  -11.1480 C.ar  295  PHE295     -0.0003
    120  CZ        17.8530   27.3740  -10.3830 C.ar  295  PHE295     -0.0000
    121  N         18.0180   21.6280   -6.4810 N.3   335  PHE335     -0.1227
    122  CA        17.2020   22.1690   -5.3830 C.3   335  PHE335      0.1736
    123  C         15.8410   21.5940   -5.5150 C.2   335  PHE335      0.2595
    124  O         15.4310   21.2740   -6.6350 O.2   335  PHE335     -0.2718
    125  CB        17.0050   23.7010   -5.5110 C.3   335  PHE335      0.0547
    126  CG        18.2220   24.5750   -5.6210 C.ar  335  PHE335     -0.0202
    127  CD1       18.3240   25.5230   -6.6360 C.ar  335  PHE335     -0.0042
    128  CD2       19.2500   24.4860   -4.6850 C.ar  335  PHE335     -0.0042
    129  CE1       19.4420   26.3540   -6.7260 C.ar  335  PHE335     -0.0003
    130  CE2       20.3700   25.3240   -4.7730 C.ar  335  PHE335     -0.0003
    131  CZ        20.4520   26.2540   -5.7920 C.ar  335  PHE335     -0.0000
    132  N         15.1170   21.5020   -4.3880 N.am  336  MET336     -0.1965
    133  CA        13.7420   21.0040   -4.3610 C.3   336  MET336      0.1736
    134  C         12.9270   21.5240   -3.1620 C.2   336  MET336      0.2616
    135  O         13.3130   21.2820   -2.0300 O.2   336  MET336     -0.2715
    136  CB        13.7410   19.4610   -4.3960 C.3   336  MET336      0.0427
    137  CG        12.3760   18.8720   -4.2430 C.3   336  MET336      0.0599
    138  SD        12.3060   17.3710   -5.1660 S.3   336  MET336     -0.1393
    139  CE        10.5790   17.0610   -5.0230 C.3   336  MET336      0.0692
    140  N         11.8030   22.2150   -3.4050 N.am  337  PHE337     -0.1960
    141  CA        10.9410   22.7110   -2.3150 C.3   337  PHE337      0.1771
    142  C          9.4700   22.5540   -2.5770 C.2   337  PHE337      0.2619
    143  O          8.8700   21.6980   -1.9570 O.2   337  PHE337     -0.2715
    144  CB        11.2270   24.1730   -1.9360 C.3   337  PHE337      0.0574
    145  CG        12.5300   24.4280   -1.2380 C.ar  337  PHE337     -0.0200
    146  CD1       13.5260   25.1770   -1.8480 C.ar  337  PHE337     -0.0042
    147  CD2       12.7630   23.9320    0.0380 C.ar  337  PHE337     -0.0042
    148  CE1       14.7280   25.4280   -1.1920 C.ar  337  PHE337     -0.0003
    149  CE2       13.9770   24.1660    0.6880 C.ar  337  PHE337     -0.0003
    150  CZ        14.9540   24.9120    0.0690 C.ar  337  PHE337     -0.0000
    151  N          8.8790   23.3840   -3.4840 N.am  338  ASP338     -0.1971
    152  CA         7.4370   23.4340   -3.8330 C.3   338  ASP338      0.1709
    153  C          7.0700   22.1880   -4.6400 C.2   338  ASP338      0.2293
    154  O          6.1960   22.1960   -5.5090 O.2   338  ASP338     -0.2864
    155  CB         7.1250   24.7280   -4.6160 C.3   338  ASP338      0.1436
    156  CG         8.3540   25.3450   -5.2530 C.2   338  ASP338      0.3671
    157  OD1        8.9290   26.2820   -4.6470 O.co2 338  ASP338     -0.2456
    158  OD2        8.8150   24.8150   -6.2930 O.co2 338  ASP338     -0.2456
    159  N         14.5400   21.1440   -9.2490 N.3   342  SER342     -0.1217
    160  CA        15.1230   22.1310  -10.1770 C.3   342  SER342      0.1889
    161  C         16.6200   21.8900  -10.3730 C.2   342  SER342      0.2288
    162  O         17.3640   21.8220   -9.3930 O.2   342  SER342     -0.2866
    163  CB        14.9160   23.5550   -9.6580 C.3   342  SER342      0.2089
    164  OG        13.5520   23.9270   -9.7280 O.3   342  SER342     -0.2183
    165  N         15.2800   31.1370  -13.4000 N.3   414  ALA414     -0.1245
    166  CA        14.5240   30.5040  -12.3120 C.3   414  ALA414      0.1562
    167  C         13.0600   30.9980  -12.3110 C.2   414  ALA414      0.2260
    168  O         12.1350   30.1910  -12.1490 O.2   414  ALA414     -0.2867
    169  CB        15.1810   30.8030  -10.9690 C.3   414  ALA414      0.0290
    170  N         11.0100   29.6370  -15.5940 N.3   417  MET417     -0.1230
    171  CA        10.5470   28.2520  -15.5140 C.3   417  MET417      0.1702
    172  C          9.3060   28.1140  -14.5760 C.2   417  MET417      0.2592
    173  O          8.4830   27.2320  -14.7990 O.2   417  MET417     -0.2718
    174  CB        11.6970   27.2760  -15.1690 C.3   417  MET417      0.0401
    175  CG        11.9760   27.1750  -13.7030 C.3   417  MET417      0.0596
    176  SD        13.5370   26.4020  -13.1990 S.3   417  MET417     -0.1393
    177  CE        13.4550   26.8470  -11.4890 C.3   417  MET417      0.0692
    178  N          9.1560   29.0030  -13.5580 N.am  418  MET418     -0.1979
    179  CA         7.9970   28.9770  -12.6640 C.3   418  MET418      0.1605
    180  C          6.8240   29.7500  -13.2630 C.2   418  MET418      0.2287
    181  O          5.6830   29.3110  -13.1500 O.2   418  MET418     -0.2864
    182  CB         8.3620   29.5290  -11.2590 C.3   418  MET418      0.0413
    183  CG         9.5060   28.7470  -10.5610 C.3   418  MET418      0.0598
    184  SD         9.4170   26.9270  -10.6980 S.3   418  MET418     -0.1393
    185  CE         7.9640   26.5910   -9.6710 C.3   418  MET418      0.0692
@<TRIPOS>BOND
     1   110   111    1
     2   113   112    2
     3   112   111    1
     4   170   171    1
     5   171   174    1
     6   171   172    1
     7   111   114    1
     8   174   175    1
     9   173   172    2
    10   172   178   am
    11   114   115    1
    12   175   176    1
    13   178   179    1
    14   165   166    1
    15   180   181    2
    16   180   179    1
    17   176   177    1
    18   115   117   ar
    19   115   116   ar
    20   179   182    1
    21   117   119   ar
    22   116   118   ar
    23   166   167    1
    24   166   169    1
    25   167   168    2
    26   182   183    1
    27   119   120   ar
    28   118   120   ar
    29   184   183    1
    30   184   185    1
    31   161   160    1
    32   161   162    2
    33   160   163    1
    34   160   159    1
    35   164   163    1
    36   129   127   ar
    37   129   131   ar
    38   127   126   ar
    39   124   123    2
    40   121   122    1
    41   158   156   ar
    42   131   130   ar
    43   126   125    1
    44   126   128   ar
    45   123   122    1
    46   123   132   am
    47   125   122    1
    48   154   153    2
    49    83    82    1
    50   156   157   ar
    51   156   155    1
    52   138   139    1
    53   138   137    1
    54   130   128   ar
    55   153   152    1
    56   155   152    1
    57   136   133    1
    58   136   137    1
    59   132   133    1
    60    82    84    1
    61    82    81    1
    62   133   134    1
    63    66    67    1
    64    51    50   ar
    65   152   151    1
    66    28    27    1
    67    44    41    1
    68   151   142   am
    69   140   134   am
    70   140   141    1
    71    50    49    1
    72    50    52   ar
    73    41    42    1
    74    41    40    1
    75    69    68    2
    76    49    46    1
    77    45    46    1
    78    42    43    2
    79   134   135    2
    80    67    68    1
    81    67    70    1
    82    81    78    1
    83   108   107    1
    84    68    77   am
    85    32    31    2
    86    46    47    1
    87   142   141    1
    88   142   143    2
    89    26    27    1
    90    26    25    1
    91   109   107    1
    92    77    78    1
    93   141   144    1
    94   107   106    2
    95    40    31   am
    96    78    79    1
    97    31    30    1
    98   144   145    1
    99   146   145   ar
   100   146   148   ar
   101    25    24    1
   102    70    71    1
   103   145   147   ar
   104   106   105    1
   105   148   150   ar
   106    73    71   ar
   107    73    75   ar
   108    47    53   am
   109    47    48    2
   110    71    72   ar
   111   105   104    1
   112    53    54    1
   113    79    80    2
   114    79    85   am
   115    30    33    1
   116    30    29    1
   117    33    34    1
   118    75    76   ar
   119    29    22   am
   120    24    21    1
   121    88    87    2
   122    72    74   ar
   123   147   149   ar
   124   104   103    1
   125    56    55    2
   126   150   149   ar
   127    85    86    1
   128    76    74   ar
   129    54    57    1
   130    54    55    1
   131    22    21    1
   132    22    23    2
   133    21    20    1
   134    11    10   ar
   135    11     9   ar
   136    87    86    1
   137    34    35   ar
   138    34    36   ar
   139   103   100    1
   140    35    37   ar
   141    86    89    1
   142    10     8   ar
   143    97    96    1
   144     9     7   ar
   145    15    14    2
   146    36    38   ar
   147    20    14   am
   148    37    39   ar
   149   102   101    2
   150   100   101    1
   151   100    99    1
   152    14    13    1
   153    91    89    1
   154    96    98    1
   155    96    93    1
   156    89    90    1
   157     8     6   ar
   158    65    63    1
   159    95    94    2
   160    38    39   ar
   161     7     6   ar
   162    94    93    1
   163    62    63    1
   164    62    59    1
   165     6     5    1
   166    58    59    1
   167    16    13    1
   168    16    17    1
   169    93    92    1
   170    13    12    1
   171    63    64    1
   172    59    60    1
   173    18    17    1
   174    17    19    1
   175    61    60    2
   176     5     2    1
   177     2     3    1
   178     2     1    1
   179     3     4    2
