@<TRIPOS>MOLECULE
tmp/4oybA00.pdb
 167 158 0 0 0
SMALL
GASTEIGER

@<TRIPOS>ATOM
      1  N         16.6180   27.9400    6.9020 N.3    45  PHE45      -0.1241
      2  CA        16.8310   28.5040    5.5690 C.3    45  PHE45       0.1605
      3  C         17.0710   29.9740    5.7590 C.2    45  PHE45       0.2264
      4  O         16.1960   30.6840    6.2600 O.2    45  PHE45      -0.2867
      5  CB        15.5970   28.2180    4.7240 C.3    45  PHE45       0.0534
      6  CG        15.8130   28.3110    3.2310 C.ar   45  PHE45      -0.0203
      7  CD1       16.9670   27.8280    2.6270 C.ar   45  PHE45      -0.0042
      8  CD2       14.8460   28.8840    2.4290 C.ar   45  PHE45      -0.0042
      9  CE1       17.1560   27.9150    1.2690 C.ar   45  PHE45      -0.0003
     10  CE2       15.0310   28.9740    1.0630 C.ar   45  PHE45      -0.0003
     11  CZ        16.1860   28.4900    0.4810 C.ar   45  PHE45      -0.0000
     12  N         23.9280   22.2960    4.5700 N.3    94  LEU94      -0.1231
     13  CA        23.6640   21.3500    3.4540 C.3    94  LEU94       0.1693
     14  C         24.1010   21.8500    2.0690 C.2    94  LEU94       0.2591
     15  O         24.8170   21.1450    1.3590 O.2    94  LEU94      -0.2718
     16  CB        22.1860   20.9410    3.4230 C.3    94  LEU94       0.0284
     17  CG        21.6420   20.2200    4.6450 C.3    94  LEU94       0.0019
     18  CD1       20.2100   19.7610    4.3800 C.3    94  LEU94       0.0001
     19  CD2       22.5480   19.0790    5.0370 C.3    94  LEU94       0.0001
     20  N         23.6740   23.0590    1.6820 N.am   95  LYS95      -0.1980
     21  CA        24.0350   23.6870    0.3870 C.3    95  LYS95       0.1596
     22  C         23.9500   25.1840    0.4680 C.2    95  LYS95       0.2287
     23  O         23.2160   25.7280    1.3120 O.2    95  LYS95      -0.2864
     24  CB        23.0750   23.2930   -0.7760 C.3    95  LYS95       0.0298
     25  CG        23.1450   21.8570   -1.1870 C.3    95  LYS95       0.0038
     26  CD        22.3520   21.6140   -2.4620 C.3    95  LYS95       0.0206
     27  CE        22.1300   20.1270   -2.6010 C.3    95  LYS95       0.1093
     28  NZ        21.8350   19.6920   -3.9880 N.3    95  LYS95      -0.1314
     29  N         23.2980   28.5620   -2.1480 N.3    97  ALA97      -0.1245
     30  CA        22.8880   29.1220   -3.4420 C.3    97  ALA97       0.1562
     31  C         23.0530   30.6350   -3.3690 C.2    97  ALA97       0.2260
     32  O         23.1720   31.2030   -2.2830 O.2    97  ALA97      -0.2867
     33  CB        21.4430   28.7990   -3.7210 C.3    97  ALA97       0.0290
     34  N         21.0710   33.0500   -3.3690 N.3    99  ASP99      -0.1225
     35  CA        20.1200   33.7690   -2.5240 C.3    99  ASP99       0.1805
     36  C         19.8270   33.1070   -1.1680 C.2    99  ASP99       0.2597
     37  O         19.1200   33.7110   -0.3610 O.2    99  ASP99      -0.2718
     38  CB        18.8280   34.0300   -3.2970 C.3    99  ASP99       0.1424
     39  CG        19.0610   34.8940   -4.5440 C.2    99  ASP99       0.3668
     40  OD1       19.8310   34.4740   -5.4370 O.co2  99  ASP99      -0.2456
     41  OD2       18.4790   35.9920   -4.6370 O.co2  99  ASP99      -0.2456
     42  N         20.3520   31.9000   -0.9170 N.am  100  ALA100     -0.1979
     43  CA        20.2100   31.2610    0.3730 C.3   100  ALA100      0.1597
     44  C         21.3070   30.2430    0.8190 C.2   100  ALA100      0.2287
     45  O         22.1770   29.8060    0.0590 O.2   100  ALA100     -0.2864
     46  CB        18.8440   30.5990    0.4250 C.3   100  ALA100      0.0319
     47  N         20.9770   26.5350    3.3410 N.3   102  LEU102     -0.1245
     48  CA        20.1060   25.6450    4.0570 C.3   102  LEU102      0.1561
     49  C         20.9370   24.8530    5.0470 C.2   102  LEU102      0.2260
     50  O         21.9430   24.2520    4.6620 O.2   102  LEU102     -0.2867
     51  CB        19.4690   24.6670    3.0580 C.3   102  LEU102      0.0270
     52  CG        18.5560   23.5730    3.6310 C.3   102  LEU102      0.0019
     53  CD1       17.3470   24.2060    4.2870 C.3   102  LEU102      0.0001
     54  CD2       18.1450   22.5910    2.5390 C.3   102  LEU102      0.0001
     55  N         22.9310   15.1170   -4.0650 N.3   165  PHE165     -0.1227
     56  CA        21.9240   14.8570   -3.0610 C.3   165  PHE165      0.1736
     57  C         20.9180   16.0080   -2.9310 C.2   165  PHE165      0.2595
     58  O         21.1660   17.1760   -3.3240 O.2   165  PHE165     -0.2718
     59  CB        22.5370   14.5790   -1.6700 C.3   165  PHE165      0.0547
     60  CG        22.9080   15.8380   -0.9350 C.ar  165  PHE165     -0.0202
     61  CD1       22.0300   16.4100   -0.0250 C.ar  165  PHE165     -0.0042
     62  CD2       24.1260   16.4430   -1.1540 C.ar  165  PHE165     -0.0042
     63  CE1       22.3740   17.5590    0.6400 C.ar  165  PHE165     -0.0003
     64  CE2       24.4710   17.6170   -0.4700 C.ar  165  PHE165     -0.0003
     65  CZ        23.5900   18.1520    0.4130 C.ar  165  PHE165     -0.0000
     66  N         19.7810   15.6320   -2.3680 N.am  166  LEU166     -0.1966
     67  CA        18.7180   16.5250   -1.9450 C.3   166  LEU166      0.1728
     68  C         18.0920   16.0450   -0.6600 C.2   166  LEU166      0.2616
     69  O         18.0080   14.8420   -0.4010 O.2   166  LEU166     -0.2715
     70  CB        17.6010   16.5560   -2.9710 C.3   166  LEU166      0.0311
     71  CG        17.9020   17.1570   -4.3010 C.3   166  LEU166      0.0022
     72  CD1       16.8140   16.7620   -5.3050 C.3   166  LEU166      0.0001
     73  CD2       17.9620   18.6610   -4.0960 C.3   166  LEU166      0.0001
     74  N         17.6420   16.9930    0.1580 N.am  167  VAL167     -0.1977
     75  CA        16.6440   16.6700    1.1400 C.3   167  VAL167      0.1596
     76  C         15.2870   17.1150    0.6150 C.2   167  VAL167      0.2287
     77  O         15.1520   18.1660   -0.0640 O.2   167  VAL167     -0.2864
     78  CB        16.9170   17.2550    2.5500 C.3   167  VAL167      0.0276
     79  CG1       18.0870   16.5550    3.1780 C.3   167  VAL167      0.0022
     80  CG2       17.0990   18.7610    2.5510 C.3   167  VAL167      0.0022
     81  N         10.9670   20.1850    4.4810 N.3   172  VAL172     -0.1245
     82  CA        11.7420   20.9180    3.4970 C.3   172  VAL172      0.1561
     83  C         10.8720   21.9890    2.7900 C.2   172  VAL172      0.2260
     84  O         11.2550   23.1340    2.6840 O.2   172  VAL172     -0.2867
     85  CB        12.4150   19.9630    2.5030 C.3   172  VAL172      0.0252
     86  CG1       13.0850   20.7480    1.3950 C.3   172  VAL172      0.0019
     87  CG2       13.4250   19.0780    3.2350 C.3   172  VAL172      0.0019
     88  N         11.0250   26.5610    3.2570 N.3   176  ARG176     -0.1245
     89  CA        10.9820   27.5330    2.1560 C.3   176  ARG176      0.1563
     90  C          9.8020   28.4820    2.3440 C.2   176  ARG176      0.2260
     91  O          9.9590   29.7050    2.2480 O.2   176  ARG176     -0.2867
     92  CB        10.8840   26.8270    0.8040 C.3   176  ARG176      0.0307
     93  CG        10.8610   27.7690   -0.4060 C.3   176  ARG176      0.0489
     94  CD        12.2480   28.1980   -0.8590 C.3   176  ARG176      0.2205
     95  NE        12.3370   29.6430   -1.0960 N.pl3 176  ARG176     -0.0865
     96  CZ        13.3460   30.2440   -1.7200 C.cat 176  ARG176      0.5346
     97  NH1       14.3650   29.5290   -2.1790 N.pl3 176  ARG176      0.1354
     98  NH2       13.3360   31.5610   -1.8860 N.pl3 176  ARG176      0.1354
     99  N         17.8540   26.4190  -16.6760 N.3   295  PHE295     -0.1241
    100  CA        17.2870   26.0960  -15.3940 C.3   295  PHE295      0.1605
    101  C         16.0890   25.1830  -15.6480 C.2   295  PHE295      0.2264
    102  O         15.0550   25.6100  -16.2080 O.2   295  PHE295     -0.2867
    103  CB        16.9080   27.3650  -14.6220 C.3   295  PHE295      0.0534
    104  CG        17.2590   27.3300  -13.1380 C.ar  295  PHE295     -0.0203
    105  CD1       17.0920   26.2000  -12.3460 C.ar  295  PHE295     -0.0042
    106  CD2       17.7670   28.4830  -12.5510 C.ar  295  PHE295     -0.0042
    107  CE1       17.4300   26.2260  -10.9910 C.ar  295  PHE295     -0.0003
    108  CE2       18.1000   28.5210  -11.2230 C.ar  295  PHE295     -0.0003
    109  CZ        17.9340   27.3930  -10.4360 C.ar  295  PHE295     -0.0000
    110  N         18.1770   21.6210   -6.5970 N.3   335  PHE335     -0.1227
    111  CA        17.3900   22.1880   -5.5390 C.3   335  PHE335      0.1736
    112  C         16.0090   21.5660   -5.6000 C.2   335  PHE335      0.2595
    113  O         15.5420   21.1570   -6.6480 O.2   335  PHE335     -0.2718
    114  CB        17.1970   23.7040   -5.7250 C.3   335  PHE335      0.0547
    115  CG        18.4550   24.4980   -5.7980 C.ar  335  PHE335     -0.0202
    116  CD1       18.6390   25.4150   -6.8340 C.ar  335  PHE335     -0.0042
    117  CD2       19.4550   24.3500   -4.8520 C.ar  335  PHE335     -0.0042
    118  CE1       19.7860   26.1600   -6.9260 C.ar  335  PHE335     -0.0003
    119  CE2       20.6240   25.1060   -4.9380 C.ar  335  PHE335     -0.0003
    120  CZ        20.7870   26.0080   -5.9730 C.ar  335  PHE335     -0.0000
    121  N         15.3480   21.4960   -4.4670 N.am  336  MET336     -0.1965
    122  CA        13.9820   21.0200   -4.4500 C.3   336  MET336      0.1736
    123  C         13.2070   21.4710   -3.2370 C.2   336  MET336      0.2616
    124  O         13.6040   21.2230   -2.1100 O.2   336  MET336     -0.2715
    125  CB        13.9530   19.5040   -4.4850 C.3   336  MET336      0.0427
    126  CG        12.5280   18.9880   -4.4210 C.3   336  MET336      0.0599
    127  SD        12.4250   17.3870   -5.1340 S.3   336  MET336     -0.1393
    128  CE        10.6860   17.1390   -4.8270 C.3   336  MET336      0.0692
    129  N         12.0950   22.1380   -3.4670 N.am  337  PHE337     -0.1974
    130  CA        11.2010   22.4600   -2.3640 C.3   337  PHE337      0.1639
    131  C          9.8060   21.9660   -2.7060 C.2   337  PHE337      0.2290
    132  O          9.5990   20.7520   -2.8380 O.2   337  PHE337     -0.2864
    133  CB        11.2930   23.9520   -1.9970 C.3   337  PHE337      0.0560
    134  CG        12.5580   24.3110   -1.2880 C.ar  337  PHE337     -0.0200
    135  CD1       13.5590   25.0260   -1.9300 C.ar  337  PHE337     -0.0042
    136  CD2       12.7530   23.9300    0.0330 C.ar  337  PHE337     -0.0042
    137  CE1       14.7320   25.3580   -1.2730 C.ar  337  PHE337     -0.0003
    138  CE2       13.9300   24.2590    0.7050 C.ar  337  PHE337     -0.0003
    139  CZ        14.9230   24.9750    0.0500 C.ar  337  PHE337     -0.0000
    140  N          8.0490   23.4320   -5.1530 N.3   339  LYS339     -0.1245
    141  CA         7.9010   23.8520   -6.5380 C.3   339  LYS339      0.1561
    142  C          8.4220   22.8400   -7.5410 C.2   339  LYS339      0.2260
    143  O          8.3230   23.0740   -8.7460 O.2   339  LYS339     -0.2867
    144  CB         8.6550   25.1640   -6.7390 C.3   339  LYS339      0.0271
    145  CG         9.3920   25.6400   -5.4930 C.3   339  LYS339      0.0035
    146  CD        10.8480   25.2070   -5.4720 C.3   339  LYS339      0.0206
    147  CE        11.6150   25.8350   -6.6190 C.3   339  LYS339      0.1093
    148  NZ        11.4210   25.0340   -7.8620 N.3   339  LYS339     -0.1314
    149  N         14.6710   21.2110   -9.2620 N.3   342  SER342     -0.1217
    150  CA        15.2690   22.0900  -10.2810 C.3   342  SER342      0.1889
    151  C         16.7780   21.8680  -10.4340 C.2   342  SER342      0.2288
    152  O         17.5320   21.7400   -9.4550 O.2   342  SER342     -0.2866
    153  CB        14.8890   23.5540  -10.0730 C.3   342  SER342      0.2089
    154  OG        15.5540   24.1230   -8.9740 O.3   342  SER342     -0.2183
    155  N         15.4000   31.1970  -13.4070 N.3   414  ALA414     -0.1245
    156  CA        14.6430   30.5120  -12.3560 C.3   414  ALA414      0.1562
    157  C         13.1920   30.9690  -12.2910 C.2   414  ALA414      0.2260
    158  O         12.2990   30.1860  -12.0250 O.2   414  ALA414     -0.2867
    159  CB        15.2940   30.7300  -10.9890 C.3   414  ALA414      0.0290
    160  N         11.1680   29.5690  -15.5020 N.3   417  MET417     -0.1245
    161  CA        10.7180   28.1900  -15.4230 C.3   417  MET417      0.1570
    162  C          9.4440   28.0450  -14.5620 C.2   417  MET417      0.2261
    163  O          8.6770   27.1400  -14.7800 O.2   417  MET417     -0.2867
    164  CB        11.8440   27.2420  -14.9850 C.3   417  MET417      0.0387
    165  CG        12.1460   27.2850  -13.5120 C.3   417  MET417      0.0595
    166  SD        13.6510   26.3810  -13.0910 S.3   417  MET417     -0.1393
    167  CE        13.6080   26.7820  -11.3500 C.3   417  MET417      0.0692
@<TRIPOS>BOND
     1    99   100    1
     2   102   101    2
     3   101   100    1
     4   160   161    1
     5   161   164    1
     6   161   162    1
     7   100   103    1
     8   164   165    1
     9   163   162    2
    10   103   104    1
    11   165   166    1
    12   155   156    1
    13   104   106   ar
    14   104   105   ar
    15   166   167    1
    16   106   108   ar
    17   156   157    1
    18   156   159    1
    19   105   107   ar
    20   157   158    2
    21   108   109   ar
    22   107   109   ar
    23   151   150    1
    24   151   152    2
    25   150   153    1
    26   150   149    1
    27   153   154    1
    28   143   142    2
    29   148   147    1
    30   142   141    1
    31   118   116   ar
    32   118   120   ar
    33   116   115   ar
    34   144   141    1
    35   144   145    1
    36   113   112    2
    37   147   146    1
    38   110   111    1
    39   141   140    1
    40   120   119   ar
    41   115   114    1
    42   115   117   ar
    43   114   111    1
    44   112   111    1
    45   112   121   am
    46   145   146    1
    47    40    39   ar
    48    72    71    1
    49   127   128    1
    50   127   126    1
    51   119   117   ar
    52    41    39   ar
    53    39    38    1
    54   125   122    1
    55   125   126    1
    56   121   122    1
    57   122   123    1
    58    71    73    1
    59    71    70    1
    60    55    56    1
    61    28    27    1
    62    33    30    1
    63   129   123   am
    64   129   130    1
    65    30    31    1
    66    30    29    1
    67    31    32    2
    68    34    35    1
    69    58    57    2
    70    38    35    1
    71   123   124    2
    72    56    57    1
    73    56    59    1
    74    70    67    1
    75    57    66   am
    76   132   131    2
    77   131   130    1
    78    27    26    1
    79    35    36    1
    80    26    25    1
    81    66    67    1
    82   130   133    1
    83    97    96    1
    84   133   134    1
    85    67    68    1
    86   135   134   ar
    87   135   137   ar
    88    98    96    1
    89    96    95    2
    90    59    60    1
    91   134   136   ar
    92   137   139   ar
    93    25    24    1
    94    36    42   am
    95    36    37    2
    96    62    60   ar
    97    62    64   ar
    98    95    94    1
    99    60    61   ar
   100    42    43    1
   101    94    93    1
   102    24    21    1
   103    68    69    2
   104    68    74   am
   105    64    65   ar
   106    93    92    1
   107    77    76    2
   108    61    63   ar
   109   136   138   ar
   110   139   138   ar
   111    45    44    2
   112    74    75    1
   113    43    46    1
   114    43    44    1
   115    21    22    1
   116    21    20    1
   117    65    63   ar
   118    22    23    2
   119    11    10   ar
   120    11     9   ar
   121    76    75    1
   122    92    89    1
   123    10     8   ar
   124    75    78    1
   125     9     7   ar
   126    15    14    2
   127    86    85    1
   128    20    14   am
   129    14    13    1
   130    89    90    1
   131    89    88    1
   132    91    90    2
   133     8     6   ar
   134    85    87    1
   135    85    82    1
   136    54    52    1
   137    78    80    1
   138    78    79    1
   139     7     6   ar
   140    84    83    2
   141    83    82    1
   142    51    52    1
   143    51    48    1
   144     6     5    1
   145    47    48    1
   146    16    13    1
   147    16    17    1
   148    13    12    1
   149    82    81    1
   150    52    53    1
   151    48    49    1
   152    18    17    1
   153    17    19    1
   154    50    49    2
   155     5     2    1
   156     2     3    1
   157     2     1    1
   158     3     4    2
