@<TRIPOS>MOLECULE
tmp/4oyiA00.pdb
 120 115 0 0 0
SMALL
GASTEIGER

@<TRIPOS>ATOM
      1  N         16.3540   27.7290    6.9330 N.3    45  PHE45      -0.1241
      2  CA        16.5610   28.2730    5.5910 C.3    45  PHE45       0.1605
      3  C         16.8090   29.7410    5.7770 C.2    45  PHE45       0.2264
      4  O         15.9520   30.4480    6.2860 O.2    45  PHE45      -0.2867
      5  CB        15.3250   28.0020    4.7400 C.3    45  PHE45       0.0534
      6  CG        15.5440   28.1270    3.2530 C.ar   45  PHE45      -0.0203
      7  CD1       16.6120   27.4990    2.6360 C.ar   45  PHE45      -0.0042
      8  CD2       14.6860   28.8660    2.4770 C.ar   45  PHE45      -0.0042
      9  CE1       16.8240   27.6040    1.2800 C.ar   45  PHE45      -0.0003
     10  CE2       14.8910   28.9770    1.1100 C.ar   45  PHE45      -0.0003
     11  CZ        15.9610   28.3450    0.5140 C.ar   45  PHE45      -0.0000
     12  N         23.6580   22.1480    4.5690 N.3    94  LEU94      -0.1231
     13  CA        23.4150   21.1720    3.4860 C.3    94  LEU94       0.1693
     14  C         23.8430   21.6590    2.0970 C.2    94  LEU94       0.2591
     15  O         24.5390   20.9430    1.3820 O.2    94  LEU94      -0.2718
     16  CB        21.9540   20.7780    3.4490 C.3    94  LEU94       0.0284
     17  CG        21.4170   20.0090    4.6560 C.3    94  LEU94       0.0019
     18  CD1       19.9780   19.5600    4.4080 C.3    94  LEU94       0.0001
     19  CD2       22.3030   18.8570    5.0400 C.3    94  LEU94       0.0001
     20  N         23.4180   22.8680    1.7290 N.am   95  LYS95      -0.1980
     21  CA        23.7640   23.5040    0.4380 C.3    95  LYS95       0.1596
     22  C         23.6930   24.9930    0.5290 C.2    95  LYS95       0.2287
     23  O         22.9680   25.5550    1.3840 O.2    95  LYS95      -0.2864
     24  CB        22.8120   23.0810   -0.7040 C.3    95  LYS95       0.0298
     25  CG        22.8370   21.6270   -1.0260 C.3    95  LYS95       0.0038
     26  CD        22.1440   21.3910   -2.3520 C.3    95  LYS95       0.0206
     27  CE        22.0010   19.9160   -2.5320 C.3    95  LYS95       0.1093
     28  NZ        21.5550   19.5720   -3.8860 N.3    95  LYS95      -0.1314
     29  N         22.9280   28.3060   -2.0890 N.3    97  ALA97      -0.1245
     30  CA        22.5040   28.8690   -3.3750 C.3    97  ALA97       0.1562
     31  C         22.8630   30.3390   -3.3490 C.2    97  ALA97       0.2260
     32  O         23.2410   30.8840   -2.3040 O.2    97  ALA97      -0.2867
     33  CB        21.0180   28.7270   -3.5710 C.3    97  ALA97       0.0290
     34  N         20.2720   31.7940   -0.8400 N.3   100  ALA100     -0.1245
     35  CA        19.9550   31.1320    0.4000 C.3   100  ALA100      0.1562
     36  C         20.9860   30.0660    0.8290 C.2   100  ALA100      0.2260
     37  O         21.7960   29.6110    0.0450 O.2   100  ALA100     -0.2867
     38  CB        18.5800   30.4900    0.2710 C.3   100  ALA100      0.0290
     39  N         20.7460   26.3630    3.3640 N.3   102  LEU102     -0.1245
     40  CA        19.8890   25.4790    4.0960 C.3   102  LEU102      0.1561
     41  C         20.7150   24.7020    5.0750 C.2   102  LEU102      0.2260
     42  O         21.7160   24.1090    4.6880 O.2   102  LEU102     -0.2867
     43  CB        19.2220   24.4990    3.1310 C.3   102  LEU102      0.0270
     44  CG        18.2970   23.4300    3.7190 C.3   102  LEU102      0.0019
     45  CD1       17.1000   24.0810    4.4100 C.3   102  LEU102      0.0001
     46  CD2       17.8270   22.4460    2.6640 C.3   102  LEU102      0.0001
     47  N         22.5830   15.0080   -4.0300 N.3   165  PHE165     -0.1227
     48  CA        21.5950   14.7000   -3.0060 C.3   165  PHE165      0.1736
     49  C         20.5750   15.8100   -2.8800 C.2   165  PHE165      0.2595
     50  O         20.7990   16.9660   -3.3030 O.2   165  PHE165     -0.2718
     51  CB        22.2400   14.4430   -1.6390 C.3   165  PHE165      0.0547
     52  CG        22.6480   15.6980   -0.9290 C.ar  165  PHE165     -0.0202
     53  CD1       21.8010   16.2900   -0.0250 C.ar  165  PHE165     -0.0042
     54  CD2       23.8710   16.2730   -1.1730 C.ar  165  PHE165     -0.0042
     55  CE1       22.1650   17.4380    0.6290 C.ar  165  PHE165     -0.0003
     56  CE2       24.2480   17.4480   -0.5070 C.ar  165  PHE165     -0.0003
     57  CZ        23.3710   18.0070    0.3900 C.ar  165  PHE165     -0.0000
     58  N         19.4520   15.4320   -2.2950 N.am  166  LEU166     -0.1966
     59  CA        18.4000   16.3320   -1.9160 C.3   166  LEU166      0.1728
     60  C         17.7990   15.8500   -0.6250 C.2   166  LEU166      0.2616
     61  O         17.7420   14.6630   -0.3540 O.2   166  LEU166     -0.2715
     62  CB        17.2990   16.3280   -2.9760 C.3   166  LEU166      0.0311
     63  CG        17.6080   16.9720   -4.3120 C.3   166  LEU166      0.0022
     64  CD1       16.5460   16.5450   -5.3320 C.3   166  LEU166      0.0001
     65  CD2       17.6380   18.4770   -4.1530 C.3   166  LEU166      0.0001
     66  N         17.3460   16.7990    0.1730 N.am  167  VAL167     -0.1977
     67  CA        16.3740   16.4700    1.1890 C.3   167  VAL167      0.1596
     68  C         15.0070   16.9230    0.6680 C.2   167  VAL167      0.2287
     69  O         14.8830   17.9670   -0.0110 O.2   167  VAL167     -0.2864
     70  CB        16.7000   17.0870    2.5660 C.3   167  VAL167      0.0276
     71  CG1       17.8630   16.3820    3.2110 C.3   167  VAL167      0.0022
     72  CG2       16.8900   18.5940    2.5180 C.3   167  VAL167      0.0022
     73  N         10.7460   20.0730    4.5020 N.3   172  VAL172     -0.1245
     74  CA        11.5610   20.8090    3.5350 C.3   172  VAL172      0.1561
     75  C         10.7020   21.8720    2.8310 C.2   172  VAL172      0.2260
     76  O         11.0830   23.0180    2.7190 O.2   172  VAL172     -0.2867
     77  CB        12.1860   19.8450    2.5180 C.3   172  VAL172      0.0252
     78  CG1       12.8620   20.6160    1.4140 C.3   172  VAL172      0.0019
     79  CG2       13.1950   18.9290    3.2010 C.3   172  VAL172      0.0019
     80  N         10.8210   26.3480    3.2930 N.3   176  ARG176     -0.1245
     81  CA        10.7840   27.3150    2.1730 C.3   176  ARG176      0.1563
     82  C          9.6210   28.2900    2.3510 C.2   176  ARG176      0.2260
     83  O          9.7950   29.5130    2.2460 O.2   176  ARG176     -0.2867
     84  CB        10.6810   26.5650    0.8380 C.3   176  ARG176      0.0307
     85  CG        10.3200   27.3950   -0.4110 C.3   176  ARG176      0.0489
     86  CD        11.2620   28.5630   -0.7070 C.3   176  ARG176      0.2205
     87  NE        12.4440   28.2050   -1.5000 N.pl3 176  ARG176     -0.0865
     88  CZ        13.2900   29.0770   -2.0670 C.cat 176  ARG176      0.5346
     89  NH1       13.1100   30.3950   -1.9450 N.pl3 176  ARG176      0.1354
     90  NH2       14.3340   28.6310   -2.7680 N.pl3 176  ARG176      0.1354
     91  N         17.8840   21.4680   -6.5600 N.3   335  PHE335     -0.1227
     92  CA        17.0700   22.0060   -5.4850 C.3   335  PHE335      0.1736
     93  C         15.7050   21.3800   -5.5250 C.2   335  PHE335      0.2595
     94  O         15.2370   20.9670   -6.5780 O.2   335  PHE335     -0.2718
     95  CB        16.8650   23.5180   -5.6590 C.3   335  PHE335      0.0547
     96  CG        18.1140   24.3330   -5.6290 C.ar  335  PHE335     -0.0202
     97  CD1       18.3080   25.3210   -6.5900 C.ar  335  PHE335     -0.0042
     98  CD2       19.0990   24.1380   -4.6600 C.ar  335  PHE335     -0.0042
     99  CE1       19.4520   26.0940   -6.5890 C.ar  335  PHE335     -0.0003
    100  CE2       20.2520   24.9170   -4.6610 C.ar  335  PHE335     -0.0003
    101  CZ        20.4230   25.8900   -5.6210 C.ar  335  PHE335     -0.0000
    102  N         15.0470   21.3040   -4.3810 N.am  336  MET336     -0.1965
    103  CA        13.6980   20.7850   -4.3450 C.3   336  MET336      0.1736
    104  C         12.8320   21.2830   -3.1970 C.2   336  MET336      0.2616
    105  O         13.2060   21.1990   -2.0500 O.2   336  MET336     -0.2715
    106  CB        13.6890   19.2530   -4.3320 C.3   336  MET336      0.0427
    107  CG        12.2840   18.6970   -4.3050 C.3   336  MET336      0.0599
    108  SD        12.1970   17.1390   -5.1300 S.3   336  MET336     -0.1393
    109  CE        10.4440   16.8560   -4.9550 C.3   336  MET336      0.0692
    110  N         11.6700   21.7950   -3.5670 N.am  337  PHE337     -0.1974
    111  CA        10.6400   22.3540   -2.6590 C.3   337  PHE337      0.1639
    112  C          9.3680   22.3800   -3.4930 C.2   337  PHE337      0.2290
    113  O          9.3950   22.0660   -4.6910 O.2   337  PHE337     -0.2864
    114  CB        10.8530   23.8330   -2.2960 C.3   337  PHE337      0.0560
    115  CG        12.0680   24.1490   -1.4790 C.ar  337  PHE337     -0.0200
    116  CD1       13.0050   25.0400   -1.9870 C.ar  337  PHE337     -0.0042
    117  CD2       12.2910   23.5860   -0.2300 C.ar  337  PHE337     -0.0042
    118  CE1       14.1460   25.3710   -1.2780 C.ar  337  PHE337     -0.0003
    119  CE2       13.4450   23.9170    0.4940 C.ar  337  PHE337     -0.0003
    120  CZ        14.3710   24.8110   -0.0350 C.ar  337  PHE337     -0.0000
@<TRIPOS>BOND
     1    97    99   ar
     2    97    96   ar
     3    99   101   ar
     4    94    93    2
     5    91    92    1
     6    95    96    1
     7    95    92    1
     8    96    98   ar
     9   101   100   ar
    10    93    92    1
    11    93   102   am
    12    64    63    1
    13   108   109    1
    14   108   107    1
    15   113   112    2
    16   100    98   ar
    17   102   103    1
    18   103   106    1
    19   103   104    1
    20   106   107    1
    21    63    65    1
    22    63    62    1
    23    47    48    1
    24    28    27    1
    25    33    30    1
    26   110   104   am
    27   110   111    1
    28   112   111    1
    29    30    31    1
    30    30    29    1
    31    31    32    2
    32    50    49    2
    33   104   105    2
    34    48    49    1
    35    48    51    1
    36    62    59    1
    37    49    58   am
    38    90    88    1
    39   111   114    1
    40    27    26    1
    41    26    25    1
    42   114   115    1
    43    58    59    1
    44    88    89    1
    45    88    87    2
    46   116   115   ar
    47   116   118   ar
    48    59    60    1
    49    51    52    1
    50    87    86    1
    51   115   117   ar
    52   118   120   ar
    53    54    52   ar
    54    54    56   ar
    55    25    24    1
    56    52    53   ar
    57    34    35    1
    58    86    85    1
    59    24    21    1
    60    60    61    2
    61    60    66   am
    62    56    57   ar
    63    85    84    1
    64   117   119   ar
    65   120   119   ar
    66    53    55   ar
    67    69    68    2
    68    37    36    2
    69    66    67    1
    70    38    35    1
    71    57    55   ar
    72    35    36    1
    73    21    22    1
    74    21    20    1
    75    11    10   ar
    76    11     9   ar
    77    22    23    2
    78    68    67    1
    79    84    81    1
    80    10     8   ar
    81    67    70    1
    82     9     7   ar
    83    15    14    2
    84    78    77    1
    85    20    14   am
    86    14    13    1
    87    81    82    1
    88    81    80    1
    89    83    82    2
    90     8     6   ar
    91    77    79    1
    92    77    74    1
    93    72    70    1
    94    70    71    1
    95     7     6   ar
    96    46    44    1
    97    76    75    2
    98    75    74    1
    99    43    44    1
   100    43    40    1
   101     6     5    1
   102    39    40    1
   103    16    13    1
   104    16    17    1
   105    13    12    1
   106    74    73    1
   107    44    45    1
   108    40    41    1
   109    18    17    1
   110    17    19    1
   111    42    41    2
   112     5     2    1
   113     2     3    1
   114     2     1    1
   115     3     4    2
