@<TRIPOS>MOLECULE
tmp/4oymA00.pdb
 128 123 0 0 0
SMALL
GASTEIGER

@<TRIPOS>ATOM
      1  N         16.4290   27.9320    8.5610 N.3    45  PHE45      -0.1241
      2  CA        16.6320   28.5160    7.2210 C.3    45  PHE45       0.1605
      3  C         16.9130   29.9680    7.3950 C.2    45  PHE45       0.2264
      4  O         16.0520   30.6880    7.8950 O.2    45  PHE45      -0.2867
      5  CB        15.3880   28.2900    6.3570 C.3    45  PHE45       0.0534
      6  CG        15.5950   28.4060    4.8690 C.ar   45  PHE45      -0.0203
      7  CD1       16.5400   27.6210    4.2180 C.ar   45  PHE45      -0.0042
      8  CD2       14.8140   29.2630    4.1110 C.ar   45  PHE45      -0.0042
      9  CE1       16.7170   27.7100    2.8400 C.ar   45  PHE45      -0.0003
     10  CE2       14.9940   29.3590    2.7280 C.ar   45  PHE45      -0.0003
     11  CZ        15.9380   28.5740    2.1040 C.ar   45  PHE45      -0.0000
     12  N         23.7600   22.2850    6.2060 N.3    94  LEU94      -0.1231
     13  CA        23.4790   21.3520    5.0940 C.3    94  LEU94       0.1693
     14  C         23.8930   21.8680    3.7540 C.2    94  LEU94       0.2591
     15  O         24.5560   21.1420    3.0100 O.2    94  LEU94      -0.2718
     16  CB        21.9670   20.9860    5.0400 C.3    94  LEU94       0.0284
     17  CG        21.4420   20.2050    6.2510 C.3    94  LEU94       0.0019
     18  CD1       19.9880   19.7390    6.0130 C.3    94  LEU94       0.0001
     19  CD2       22.3960   18.9970    6.6090 C.3    94  LEU94       0.0001
     20  N         23.5100   23.1080    3.4220 N.am   95  LYS95      -0.1980
     21  CA        23.7290   23.6560    2.0740 C.3    95  LYS95       0.1596
     22  C         23.6960   25.1800    2.1170 C.2    95  LYS95       0.2287
     23  O         23.0070   25.7510    2.9880 O.2    95  LYS95      -0.2864
     24  CB        22.5740   23.1950    1.1410 C.3    95  LYS95       0.0298
     25  CG        22.7700   21.8150    0.5510 C.3    95  LYS95       0.0038
     26  CD        22.0990   21.6420   -0.7960 C.3    95  LYS95       0.0206
     27  CE        21.6720   20.2050   -0.8790 C.3    95  LYS95       0.1093
     28  NZ        21.5940   19.7310   -2.2730 N.3    95  LYS95      -0.1314
     29  N         23.0180   28.5380   -0.5810 N.3    97  ALA97      -0.1245
     30  CA        22.6500   29.0600   -1.9040 C.3    97  ALA97       0.1562
     31  C         22.9110   30.5460   -1.8680 C.2    97  ALA97       0.2260
     32  O         23.1950   31.0940   -0.7950 O.2    97  ALA97      -0.2867
     33  CB        21.1780   28.8070   -2.1530 C.3    97  ALA97       0.0290
     34  N         20.7770   32.9070   -1.8110 N.3    99  ASP99      -0.1225
     35  CA        19.8910   33.6880   -0.9560 C.3    99  ASP99       0.1805
     36  C         19.6580   33.0540    0.4420 C.2    99  ASP99       0.2597
     37  O         19.0070   33.6820    1.2630 O.2    99  ASP99      -0.2718
     38  CB        18.5760   33.9980   -1.6830 C.3    99  ASP99       0.1424
     39  CG        18.7710   34.7030   -3.0270 C.2    99  ASP99       0.3668
     40  OD1       19.4190   34.1130   -3.9230 O.co2  99  ASP99      -0.2456
     41  OD2       18.2710   35.8380   -3.1840 O.co2  99  ASP99      -0.2456
     42  N         20.2020   31.8420    0.7270 N.am  100  ALA100     -0.1979
     43  CA        19.9510   31.1730    1.9980 C.3   100  ALA100      0.1597
     44  C         21.0130   30.1970    2.4710 C.2   100  ALA100      0.2287
     45  O         21.8420   29.7170    1.6850 O.2   100  ALA100     -0.2864
     46  CB        18.6260   30.4420    1.9290 C.3   100  ALA100      0.0319
     47  N         20.8310   26.5190    4.9830 N.3   102  LEU102     -0.1245
     48  CA        19.9480   25.6430    5.7210 C.3   102  LEU102      0.1561
     49  C         20.7940   24.8520    6.6870 C.2   102  LEU102      0.2260
     50  O         21.8220   24.2690    6.2760 O.2   102  LEU102     -0.2867
     51  CB        19.2700   24.6800    4.7100 C.3   102  LEU102      0.0270
     52  CG        18.3700   23.5760    5.2990 C.3   102  LEU102      0.0019
     53  CD1       17.1210   24.2010    5.9980 C.3   102  LEU102      0.0001
     54  CD2       17.8920   22.6020    4.2120 C.3   102  LEU102      0.0001
     55  N         22.7400   15.1930   -2.5300 N.3   165  PHE165     -0.1227
     56  CA        21.7490   14.8790   -1.5080 C.3   165  PHE165      0.1736
     57  C         20.7190   16.0030   -1.3770 C.2   165  PHE165      0.2595
     58  O         20.9790   17.1460   -1.7700 O.2   165  PHE165     -0.2718
     59  CB        22.4090   14.5760   -0.1520 C.3   165  PHE165      0.0547
     60  CG        22.7670   15.8530    0.5980 C.ar  165  PHE165     -0.0202
     61  CD1       21.8880   16.3980    1.5330 C.ar  165  PHE165     -0.0042
     62  CD2       23.9630   16.5060    0.3560 C.ar  165  PHE165     -0.0042
     63  CE1       22.2130   17.5820    2.2170 C.ar  165  PHE165     -0.0003
     64  CE2       24.2970   17.6890    1.0530 C.ar  165  PHE165     -0.0003
     65  CZ        23.4090   18.2150    1.9650 C.ar  165  PHE165     -0.0000
     66  N         19.5940   15.6660   -0.7970 N.am  166  LEU166     -0.1966
     67  CA        18.4940   16.5670   -0.4600 C.3   166  LEU166      0.1728
     68  C         17.8610   16.1190    0.8330 C.2   166  LEU166      0.2616
     69  O         17.7960   14.9060    1.1090 O.2   166  LEU166     -0.2715
     70  CB        17.3960   16.4640   -1.5390 C.3   166  LEU166      0.0311
     71  CG        17.6100   17.1460   -2.8300 C.3   166  LEU166      0.0022
     72  CD1       16.4910   16.7470   -3.8030 C.3   166  LEU166      0.0001
     73  CD2       17.6210   18.6650   -2.6260 C.3   166  LEU166      0.0001
     74  N         17.4010   17.0900    1.6460 N.am  167  VAL167     -0.1977
     75  CA        16.4470   16.7730    2.6930 C.3   167  VAL167      0.1596
     76  C         15.0600   17.1770    2.1840 C.2   167  VAL167      0.2287
     77  O         14.8940   18.2300    1.5320 O.2   167  VAL167     -0.2864
     78  CB        16.7400   17.3470    4.0920 C.3   167  VAL167      0.0276
     79  CG1       17.9330   16.6450    4.7340 C.3   167  VAL167      0.0022
     80  CG2       16.9010   18.8730    4.0620 C.3   167  VAL167      0.0022
     81  N         10.8430   20.2480    6.1070 N.3   172  VAL172     -0.1245
     82  CA        11.5570   20.9500    5.0350 C.3   172  VAL172      0.1561
     83  C         10.6330   22.0010    4.3380 C.2   172  VAL172      0.2260
     84  O         11.0110   23.1660    4.2170 O.2   172  VAL172     -0.2867
     85  CB        12.2100   19.9440    4.0440 C.3   172  VAL172      0.0252
     86  CG1       12.8220   20.6590    2.8350 C.3   172  VAL172      0.0019
     87  CG2       13.2850   19.0960    4.7530 C.3   172  VAL172      0.0019
     88  N         10.8470   26.6150    4.8410 N.3   176  ARG176     -0.1245
     89  CA        10.7950   27.5880    3.7570 C.3   176  ARG176      0.1563
     90  C          9.5920   28.5030    3.9540 C.2   176  ARG176      0.2260
     91  O          9.7500   29.7230    3.8720 O.2   176  ARG176     -0.2867
     92  CB        10.6830   26.8770    2.3930 C.3   176  ARG176      0.0307
     93  CG        10.2200   27.8170    1.2580 C.3   176  ARG176      0.0489
     94  CD        11.0740   27.7840    0.0170 C.3   176  ARG176      0.2205
     95  NE        12.3020   28.5650    0.1430 N.pl3 176  ARG176     -0.0865
     96  CZ        13.2060   28.6880   -0.8260 C.cat 176  ARG176      0.5346
     97  NH1       13.0260   28.0790   -1.9930 N.pl3 176  ARG176      0.1354
     98  NH2       14.2950   29.4190   -0.6360 N.pl3 176  ARG176      0.1354
     99  N         17.8500   21.6050   -4.8720 N.3   335  PHE335     -0.1227
    100  CA        17.0670   22.1860   -3.7750 C.3   335  PHE335      0.1736
    101  C         15.6890   21.6300   -3.8910 C.2   335  PHE335      0.2595
    102  O         15.2520   21.3520   -5.0120 O.2   335  PHE335     -0.2718
    103  CB        16.8930   23.7110   -3.9860 C.3   335  PHE335      0.0547
    104  CG        18.1200   24.5620   -4.0490 C.ar  335  PHE335     -0.0202
    105  CD1       18.2390   25.5650   -5.0080 C.ar  335  PHE335     -0.0042
    106  CD2       19.1490   24.3980   -3.1230 C.ar  335  PHE335     -0.0042
    107  CE1       19.3650   26.3820   -5.0460 C.ar  335  PHE335     -0.0003
    108  CE2       20.2790   25.2290   -3.1600 C.ar  335  PHE335     -0.0003
    109  CZ        20.3720   26.2150   -4.1190 C.ar  335  PHE335     -0.0000
    110  N         14.9770   21.4980   -2.7620 N.am  336  MET336     -0.1965
    111  CA        13.6030   21.0260   -2.8040 C.3   336  MET336      0.1736
    112  C         12.7600   21.5030   -1.6440 C.2   336  MET336      0.2616
    113  O         13.0820   21.2020   -0.4990 O.2   336  MET336     -0.2715
    114  CB        13.5570   19.4850   -2.9080 C.3   336  MET336      0.0427
    115  CG        12.1690   18.9630   -2.8450 C.3   336  MET336      0.0599
    116  SD        12.1750   17.3790   -3.5540 S.3   336  MET336     -0.1393
    117  CE        10.4770   17.0140   -3.3790 C.3   336  MET336      0.0692
    118  N         11.6720   22.2360   -1.9310 N.am  337  PHE337     -0.1974
    119  CA        10.8080   22.7510   -0.8650 C.3   337  PHE337      0.1639
    120  C          9.3400   22.5470   -1.1190 C.2   337  PHE337      0.2290
    121  O          8.7870   21.6860   -0.4730 O.2   337  PHE337     -0.2864
    122  CB        11.0940   24.2150   -0.5240 C.3   337  PHE337      0.0560
    123  CG        12.3600   24.4580    0.2520 C.ar  337  PHE337     -0.0200
    124  CD1       13.3940   25.2030   -0.2940 C.ar  337  PHE337     -0.0042
    125  CD2       12.5170   23.9510    1.5340 C.ar  337  PHE337     -0.0042
    126  CE1       14.5590   25.4450    0.4310 C.ar  337  PHE337     -0.0003
    127  CE2       13.6920   24.1820    2.2570 C.ar  337  PHE337     -0.0003
    128  CZ        14.7080   24.9230    1.6980 C.ar  337  PHE337     -0.0000
@<TRIPOS>BOND
     1   107   105   ar
     2   107   109   ar
     3   102   101    2
     4   105   104   ar
     5    99   100    1
     6   109   108   ar
     7   104   103    1
     8   104   106   ar
     9   103   100    1
    10    40    39   ar
    11   101   100    1
    12   101   110   am
    13    72    71    1
    14   116   117    1
    15   116   115    1
    16    41    39   ar
    17   108   106   ar
    18    39    38    1
    19   114   115    1
    20   114   111    1
    21    71    73    1
    22    71    70    1
    23   111   110    1
    24   111   112    1
    25    55    56    1
    26    28    27    1
    27    33    30    1
    28    97    96    1
    29   118   112   am
    30   118   119    1
    31    30    31    1
    32    30    29    1
    33    31    32    2
    34    34    35    1
    35    58    57    2
    36    38    35    1
    37   112   113    2
    38    70    67    1
    39    56    57    1
    40    56    59    1
    41    57    66   am
    42   120   119    1
    43   120   121    2
    44    35    36    1
    45    27    26    1
    46   119   122    1
    47    96    98    1
    48    96    95    2
    49    66    67    1
    50    26    25    1
    51   122   123    1
    52    67    68    1
    53   124   123   ar
    54   124   126   ar
    55    59    60    1
    56    94    95    1
    57    94    93    1
    58   123   125   ar
    59    62    60   ar
    60    62    64   ar
    61   126   128   ar
    62    36    42   am
    63    36    37    2
    64    25    24    1
    65    60    61   ar
    66    42    43    1
    67    68    69    2
    68    68    74   am
    69    64    65   ar
    70    24    21    1
    71    93    92    1
    72    77    76    2
    73    61    63   ar
    74   125   127   ar
    75    74    75    1
    76    45    44    2
    77   128   127   ar
    78    46    43    1
    79    65    63   ar
    80    43    44    1
    81    21    22    1
    82    21    20    1
    83    11    10   ar
    84    11     9   ar
    85    22    23    2
    86    76    75    1
    87    92    89    1
    88    75    78    1
    89    10     8   ar
    90    86    85    1
    91     9     7   ar
    92    15    14    2
    93    20    14   am
    94    14    13    1
    95    89    90    1
    96    89    88    1
    97    91    90    2
    98    85    87    1
    99    85    82    1
   100    80    78    1
   101    78    79    1
   102     8     6   ar
   103    54    52    1
   104    84    83    2
   105     7     6   ar
   106    83    82    1
   107    51    52    1
   108    51    48    1
   109     6     5    1
   110    47    48    1
   111    82    81    1
   112    16    13    1
   113    16    17    1
   114    13    12    1
   115    52    53    1
   116    48    49    1
   117    18    17    1
   118    17    19    1
   119    50    49    2
   120     5     2    1
   121     2     3    1
   122     2     1    1
   123     3     4    2
