@<TRIPOS>MOLECULE
tmp/4oyoA01.pdb
 124 121 0 0 0
SMALL
GASTEIGER

@<TRIPOS>ATOM
      1  N         16.7640   28.1650    6.9630 N.3    45  PHE45      -0.1241
      2  CA        16.9980   28.7330    5.6160 C.3    45  PHE45       0.1605
      3  C         17.3040   30.1950    5.7920 C.2    45  PHE45       0.2264
      4  O         16.4360   30.9400    6.2710 O.2    45  PHE45      -0.2867
      5  CB        15.7570   28.4980    4.7260 C.3    45  PHE45       0.0534
      6  CG        15.9420   28.6230    3.2300 C.ar   45  PHE45      -0.0203
      7  CD1       16.9260   27.8920    2.5690 C.ar   45  PHE45      -0.0042
      8  CD2       15.1040   29.4320    2.4770 C.ar   45  PHE45      -0.0042
      9  CE1       17.0890   27.9960    1.1820 C.ar   45  PHE45      -0.0003
     10  CE2       15.2640   29.5430    1.0880 C.ar   45  PHE45      -0.0003
     11  CZ        16.2510   28.8230    0.4460 C.ar   45  PHE45      -0.0000
     12  N         24.0660   22.4410    4.6890 N.3    94  LEU94      -0.1231
     13  CA        23.7970   21.4720    3.5810 C.3    94  LEU94       0.1693
     14  C         24.2660   21.9800    2.2330 C.2    94  LEU94       0.2591
     15  O         24.9270   21.2330    1.4920 O.2    94  LEU94      -0.2718
     16  CB        22.3070   21.1190    3.4930 C.3    94  LEU94       0.0284
     17  CG        21.7580   20.3300    4.6930 C.3    94  LEU94       0.0019
     18  CD1       20.2900   19.8960    4.4330 C.3    94  LEU94       0.0001
     19  CD2       22.6640   19.1150    4.9970 C.3    94  LEU94       0.0001
     20  N         23.9510   23.2450    1.9170 N.am   95  LYS95      -0.1980
     21  CA        24.1920   23.7990    0.5800 C.3    95  LYS95       0.1596
     22  C         24.1200   25.3040    0.5970 C.2    95  LYS95       0.2287
     23  O         23.4160   25.8870    1.4270 O.2    95  LYS95      -0.2864
     24  CB        23.0910   23.2910   -0.3960 C.3    95  LYS95       0.0298
     25  CG        23.6780   22.9040   -1.7490 C.3    95  LYS95       0.0038
     26  CD        22.7320   22.0150   -2.5440 C.3    95  LYS95       0.0206
     27  CE        22.9850   20.5240   -2.4060 C.3    95  LYS95       0.1093
     28  NZ        22.4130   19.8130   -3.5930 N.3    95  LYS95      -0.1314
     29  N         23.2260   28.3950   -2.2330 N.3    97  ALA97      -0.1245
     30  CA        22.6490   28.5400   -3.5920 C.3    97  ALA97       0.1562
     31  C         22.1160   29.9220   -3.6910 C.2    97  ALA97       0.2260
     32  O         21.4280   30.3680   -2.7650 O.2    97  ALA97      -0.2867
     33  CB        21.5190   27.5240   -3.8180 C.3    97  ALA97       0.0290
     34  N         21.3480   32.3430   -0.7130 N.3   100  ALA100     -0.1231
     35  CA        20.8990   31.6250    0.4830 C.3   100  ALA100      0.1694
     36  C         21.8870   30.5440    0.9950 C.2   100  ALA100      0.2592
     37  O         22.8280   30.1210    0.2920 O.2   100  ALA100     -0.2718
     38  CB        19.5910   30.9360    0.1770 C.3   100  ALA100      0.0304
     39  N         21.6280   30.0730    2.2330 N.am  101  LEU101     -0.1966
     40  CA        22.1760   28.7690    2.6300 C.3   101  LEU101      0.1728
     41  C         21.1300   28.0150    3.4250 C.2   101  LEU101      0.2616
     42  O         20.2400   28.6430    4.0140 O.2   101  LEU101     -0.2715
     43  CB        23.5180   28.8960    3.3900 C.3   101  LEU101      0.0311
     44  CG        23.5160   29.6840    4.6920 C.3   101  LEU101      0.0022
     45  CD1       23.1080   28.7650    5.8970 C.3   101  LEU101      0.0001
     46  CD2       24.9260   30.2070    4.9940 C.3   101  LEU101      0.0001
     47  N         21.2230   26.6870    3.4310 N.am  102  LEU102     -0.1977
     48  CA        20.3090   25.8420    4.1740 C.3   102  LEU102      0.1596
     49  C         21.1240   25.0280    5.1470 C.2   102  LEU102      0.2287
     50  O         22.0910   24.3700    4.7310 O.2   102  LEU102     -0.2864
     51  CB        19.5850   24.8690    3.2010 C.3   102  LEU102      0.0297
     52  CG        18.5670   23.9290    3.8700 C.3   102  LEU102      0.0022
     53  CD1       17.4090   24.7050    4.4320 C.3   102  LEU102      0.0001
     54  CD2       18.0380   22.8770    2.8690 C.3   102  LEU102      0.0001
     55  N         23.0460   15.3580   -4.1400 N.3   165  PHE165     -0.1227
     56  CA        22.0380   15.0330   -3.1450 C.3   165  PHE165      0.1736
     57  C         20.9910   16.2080   -3.0270 C.2   165  PHE165      0.2595
     58  O         21.2790   17.3690   -3.3940 O.2   165  PHE165     -0.2718
     59  CB        22.6820   14.7010   -1.7910 C.3   165  PHE165      0.0547
     60  CG        23.0160   15.9450   -0.9840 C.ar  165  PHE165     -0.0202
     61  CD1       22.0840   16.4890   -0.0980 C.ar  165  PHE165     -0.0042
     62  CD2       24.2440   16.5660   -1.1190 C.ar  165  PHE165     -0.0042
     63  CE1       22.3890   17.6350    0.6450 C.ar  165  PHE165     -0.0003
     64  CE2       24.5450   17.7260   -0.3790 C.ar  165  PHE165     -0.0003
     65  CZ        23.6070   18.2420    0.4880 C.ar  165  PHE165     -0.0000
     66  N         19.8450   15.8740   -2.4930 N.am  166  LEU166     -0.1966
     67  CA        18.6980   16.7540   -2.2690 C.3   166  LEU166      0.1728
     68  C         18.1020   16.3370   -0.9420 C.2   166  LEU166      0.2616
     69  O         18.1440   15.1560   -0.5750 O.2   166  LEU166     -0.2715
     70  CB        17.5620   16.4790   -3.3100 C.3   166  LEU166      0.0311
     71  CG        17.8110   16.5560   -4.7890 C.3   166  LEU166      0.0022
     72  CD1       16.7030   15.8430   -5.5340 C.3   166  LEU166      0.0001
     73  CD2       17.8120   17.9660   -5.2380 C.3   166  LEU166      0.0001
     74  N         17.5480   17.3080   -0.2150 N.am  167  VAL167     -0.1977
     75  CA        16.6170   16.9720    0.8590 C.3   167  VAL167      0.1596
     76  C         15.1790   17.3140    0.3910 C.2   167  VAL167      0.2287
     77  O         14.9680   18.3020   -0.3450 O.2   167  VAL167     -0.2864
     78  CB        16.9590   17.5910    2.2380 C.3   167  VAL167      0.0276
     79  CG1       18.2140   16.9400    2.8340 C.3   167  VAL167      0.0022
     80  CG2       17.0770   19.1190    2.1910 C.3   167  VAL167      0.0022
     81  N         11.0840   20.5240    4.4080 N.3   172  VAL172     -0.1245
     82  CA        11.8220   21.2590    3.3790 C.3   172  VAL172      0.1561
     83  C         10.9410   22.3390    2.6870 C.2   172  VAL172      0.2260
     84  O         11.3480   23.4970    2.5900 O.2   172  VAL172     -0.2867
     85  CB        12.5160   20.2970    2.3650 C.3   172  VAL172      0.0252
     86  CG1       13.2960   21.0870    1.3140 C.3   172  VAL172      0.0019
     87  CG2       13.4630   19.3140    3.0920 C.3   172  VAL172      0.0019
     88  N         21.4410   21.4830   -7.4940 N.3   334  VAL334     -0.1231
     89  CA        20.1380   20.8090   -7.6050 C.3   334  VAL334      0.1692
     90  C         19.4220   21.0730   -6.2970 C.2   334  VAL334      0.2592
     91  O         20.0660   21.0970   -5.2390 O.2   334  VAL334     -0.2718
     92  CB        20.2570   19.2680   -7.8910 C.3   334  VAL334      0.0266
     93  CG1       20.9810   18.9770   -9.1890 C.3   334  VAL334      0.0020
     94  CG2       20.9680   18.5250   -6.7560 C.3   334  VAL334      0.0020
     95  N         18.1300   21.2750   -6.3360 N.am  335  PHE335     -0.1962
     96  CA        17.3760   21.4470   -5.0980 C.3   335  PHE335      0.1771
     97  C         15.9440   21.1020   -5.3590 C.2   335  PHE335      0.2619
     98  O         15.5130   21.0890   -6.5230 O.2   335  PHE335     -0.2715
     99  CB        17.5720   22.8770   -4.4940 C.3   335  PHE335      0.0574
    100  CG        17.2840   23.9810   -5.4970 C.ar  335  PHE335     -0.0200
    101  CD1       16.0000   24.4800   -5.6530 C.ar  335  PHE335     -0.0042
    102  CD2       18.3020   24.5090   -6.2830 C.ar  335  PHE335     -0.0042
    103  CE1       15.7240   25.4960   -6.5950 C.ar  335  PHE335     -0.0003
    104  CE2       18.0310   25.5160   -7.2280 C.ar  335  PHE335     -0.0003
    105  CZ        16.7430   26.0100   -7.3650 C.ar  335  PHE335     -0.0000
    106  N         15.1750   20.7970   -4.2950 N.am  336  MET336     -0.1963
    107  CA        13.7810   20.4040   -4.5030 C.3   336  MET336      0.1736
    108  C         12.8590   20.9750   -3.4370 C.2   336  MET336      0.2616
    109  O         13.0700   20.7460   -2.2540 O.2   336  MET336     -0.2715
    110  CB        13.6120   18.8540   -4.5870 C.3   336  MET336      0.0427
    111  CG        12.1820   18.4050   -4.7840 C.3   336  MET336      0.0599
    112  SD        12.2600   16.7100   -5.3530 S.3   336  MET336     -0.1393
    113  CE        10.5420   16.4040   -5.6510 C.3   336  MET336      0.0692
    114  N         11.8330   21.7140   -3.8780 N.am  337  PHE337     -0.1974
    115  CA        10.8160   22.3060   -3.0090 C.3   337  PHE337      0.1639
    116  C          9.5090   22.1440   -3.7310 C.2   337  PHE337      0.2290
    117  O          9.4890   22.1040   -4.9670 O.2   337  PHE337     -0.2864
    118  CB        11.0650   23.8230   -2.8170 C.3   337  PHE337      0.0560
    119  CG        12.2470   24.2760   -1.9840 C.ar  337  PHE337     -0.0200
    120  CD1       13.3140   24.9440   -2.5710 C.ar  337  PHE337     -0.0042
    121  CD2       12.2710   24.0720   -0.6130 C.ar  337  PHE337     -0.0042
    122  CE1       14.3940   25.3870   -1.8020 C.ar  337  PHE337     -0.0003
    123  CE2       13.3540   24.5110    0.1580 C.ar  337  PHE337     -0.0003
    124  CZ        14.4110   25.1620   -0.4420 C.ar  337  PHE337     -0.0000
@<TRIPOS>BOND
     1    93    92    1
     2    92    89    1
     3    92    94    1
     4    89    88    1
     5    89    90    1
     6   105   104   ar
     7   105   103   ar
     8   104   102   ar
     9   103   101   ar
    10    98    97    2
    11    95    90   am
    12    95    96    1
    13    90    91    2
    14   102   100   ar
    15   101   100   ar
    16   113   112    1
    17    72    71    1
    18   100    99    1
    19    97    96    1
    20    97   106   am
    21   112   111    1
    22    73    71    1
    23    96    99    1
    24   117   116    2
    25    71    70    1
    26   111   110    1
    27   110   107    1
    28   107   106    1
    29   107   108    1
    30    55    56    1
    31   114   108   am
    32   114   115    1
    33    33    30    1
    34   116   115    1
    35    31    30    1
    36    31    32    2
    37    28    27    1
    38    30    29    1
    39   108   109    2
    40    58    57    2
    41    70    67    1
    42    56    57    1
    43    56    59    1
    44    57    66   am
    45   115   118    1
    46   118   119    1
    47   120   119   ar
    48   120   122   ar
    49    26    27    1
    50    26    25    1
    51    66    67    1
    52    67    68    1
    53   119   121   ar
    54   122   124   ar
    55    59    60    1
    56    25    24    1
    57    62    60   ar
    58    62    64   ar
    59    60    61   ar
    60    68    69    2
    61    68    74   am
    62    34    35    1
    63   121   123   ar
    64   124   123   ar
    65    24    21    1
    66    64    65   ar
    67    77    76    2
    68    74    75    1
    69    61    63   ar
    70    38    35    1
    71    37    36    2
    72    76    75    1
    73    11    10   ar
    74    11     9   ar
    75    35    36    1
    76    65    63   ar
    77    21    22    1
    78    21    20    1
    79    22    23    2
    80    75    78    1
    81    36    39   am
    82    10     8   ar
    83     9     7   ar
    84    86    85    1
    85    15    14    2
    86    20    14   am
    87    80    78    1
    88    39    40    1
    89    14    13    1
    90    78    79    1
    91    85    87    1
    92    85    82    1
    93     8     6   ar
    94     7     6   ar
    95    84    83    2
    96    40    43    1
    97    40    41    1
    98    83    82    1
    99    54    52    1
   100    51    52    1
   101    51    48    1
   102     6     5    1
   103    82    81    1
   104    43    44    1
   105    41    47   am
   106    41    42    2
   107    47    48    1
   108    16    13    1
   109    16    17    1
   110    13    12    1
   111    52    53    1
   112    48    49    1
   113    18    17    1
   114    44    46    1
   115    44    45    1
   116    17    19    1
   117     5     2    1
   118    50    49    2
   119     2     3    1
   120     2     1    1
   121     3     4    2
