@<TRIPOS>MOLECULE
tmp/4oyoA00.pdb
 102 97 0 0 0
SMALL
GASTEIGER

@<TRIPOS>ATOM
      1  N         16.7640   28.1650    6.9630 N.3    45  PHE45      -0.1241
      2  CA        16.9980   28.7330    5.6160 C.3    45  PHE45       0.1605
      3  C         17.3040   30.1950    5.7920 C.2    45  PHE45       0.2264
      4  O         16.4360   30.9400    6.2710 O.2    45  PHE45      -0.2867
      5  CB        15.7570   28.4980    4.7260 C.3    45  PHE45       0.0534
      6  CG        15.9420   28.6230    3.2300 C.ar   45  PHE45      -0.0203
      7  CD1       16.9260   27.8920    2.5690 C.ar   45  PHE45      -0.0042
      8  CD2       15.1040   29.4320    2.4770 C.ar   45  PHE45      -0.0042
      9  CE1       17.0890   27.9960    1.1820 C.ar   45  PHE45      -0.0003
     10  CE2       15.2640   29.5430    1.0880 C.ar   45  PHE45      -0.0003
     11  CZ        16.2510   28.8230    0.4460 C.ar   45  PHE45      -0.0000
     12  N         18.4550   33.7100    4.0350 N.3    47  ASP47      -0.1239
     13  CA        18.5420   34.4160    2.7490 C.3    47  ASP47       0.1674
     14  C         19.3030   35.7420    2.9480 C.2    47  ASP47       0.2266
     15  O         18.9670   36.4980    3.8550 O.2    47  ASP47      -0.2867
     16  CB        17.1130   34.6190    2.2110 C.3    47  ASP47       0.1410
     17  CG        16.9720   35.4520    0.9410 C.2    47  ASP47       0.3668
     18  OD1       15.9170   36.1060    0.7740 O.co2  47  ASP47      -0.2456
     19  OD2       17.9150   35.4680    0.1360 O.co2  47  ASP47      -0.2456
     20  N         23.2260   28.3950   -2.2330 N.3    97  ALA97      -0.1231
     21  CA        22.6490   28.5400   -3.5920 C.3    97  ALA97       0.1694
     22  C         22.1160   29.9220   -3.6910 C.2    97  ALA97       0.2593
     23  O         21.4280   30.3680   -2.7650 O.2    97  ALA97      -0.2718
     24  CB        21.5190   27.5240   -3.8180 C.3    97  ALA97       0.0304
     25  N         22.4260   30.5930   -4.7980 N.am   98  GLY98      -0.1942
     26  CA        21.9260   31.9400   -5.0450 C.3    98  GLY98       0.2014
     27  C         22.3900   32.8530   -3.9380 C.2    98  GLY98       0.2639
     28  O         23.6030   32.9750   -3.7170 O.2    98  GLY98      -0.2714
     29  N         21.4170   33.4610   -3.2110 N.am   99  ASP99      -0.1957
     30  CA        21.6890   34.3780   -2.1000 C.3    99  ASP99       0.1840
     31  C         21.6310   33.6720   -0.7200 C.2    99  ASP99       0.2621
     32  O         21.8460   34.3250    0.3170 O.2    99  ASP99      -0.2715
     33  CB        20.6630   35.5400   -2.1290 C.3    99  ASP99       0.1450
     34  CG        20.8760   36.5890   -3.2290 C.2    99  ASP99       0.3671
     35  OD1       22.0030   36.6460   -3.8010 O.co2  99  ASP99      -0.2456
     36  OD2       19.9170   37.3460   -3.5210 O.co2  99  ASP99      -0.2456
     37  N         21.3480   32.3430   -0.7130 N.am  100  ALA100     -0.1977
     38  CA        20.8990   31.6250    0.4830 C.3   100  ALA100      0.1597
     39  C         21.8870   30.5440    0.9950 C.2   100  ALA100      0.2287
     40  O         22.8280   30.1210    0.2920 O.2   100  ALA100     -0.2864
     41  CB        19.5910   30.9360    0.1770 C.3   100  ALA100      0.0319
     42  N         11.1360   26.9600    3.1400 N.3   176  ARG176     -0.1245
     43  CA        11.1810   27.9940    2.1040 C.3   176  ARG176      0.1563
     44  C          9.9780   28.9080    2.2230 C.2   176  ARG176      0.2260
     45  O         10.1160   30.1150    2.0670 O.2   176  ARG176     -0.2867
     46  CB        11.2520   27.4030    0.6910 C.3   176  ARG176      0.0307
     47  CG        11.5050   28.4770   -0.3850 C.3   176  ARG176      0.0489
     48  CD        11.1810   27.9690   -1.7780 C.3   176  ARG176      0.2205
     49  NE         9.7460   27.7440   -1.9720 N.pl3 176  ARG176     -0.0865
     50  CZ         8.8940   28.6600   -2.4250 C.cat 176  ARG176      0.5346
     51  NH1        9.3210   29.8800   -2.7350 N.pl3 176  ARG176      0.1354
     52  NH2        7.6090   28.3640   -2.5700 N.pl3 176  ARG176      0.1354
     53  N         10.8040   31.3090    5.2500 N.3   179  GLN179     -0.1231
     54  CA        11.7580   32.3720    4.8520 C.3   179  GLN179      0.1698
     55  C         11.0910   33.4450    3.9200 C.2   179  GLN179      0.2592
     56  O         11.4230   34.6270    4.0110 O.2   179  GLN179     -0.2718
     57  CB        12.9910   31.7490    4.1800 C.3   179  GLN179      0.0381
     58  CG        14.0860   32.7480    3.7090 C.3   179  GLN179      0.0905
     59  CD        13.7530   33.3790    2.3740 C.2   179  GLN179      0.2608
     60  OE1       13.8280   34.5960    2.2090 O.2   179  GLN179     -0.2717
     61  NE2       13.2380   32.5990    1.4420 N.am  179  GLN179     -0.0878
     62  N         10.1880   33.0150    3.0510 N.am  180  ASN180     -0.1974
     63  CA         9.4710   33.8950    2.0960 C.3   180  ASN180      0.1688
     64  C          8.4890   34.8640    2.7750 C.2   180  ASN180      0.2292
     65  O          8.2040   35.9280    2.2160 O.2   180  ASN180     -0.2864
     66  CB         8.7470   33.0630    1.0660 C.3   180  ASN180      0.1181
     67  CG         9.4840   32.9600   -0.2390 C.2   180  ASN180      0.2629
     68  OD1       10.3730   32.1160   -0.4190 O.2   180  ASN180     -0.2716
     69  ND2        9.1320   33.8300   -1.1770 N.am  180  ASN180     -0.0877
     70  N         18.1300   21.2750   -6.3360 N.3   335  PHE335     -0.1241
     71  CA        17.3760   21.4470   -5.0980 C.3   335  PHE335      0.1605
     72  C         15.9440   21.1020   -5.3590 C.2   335  PHE335      0.2264
     73  O         15.5130   21.0890   -6.5230 O.2   335  PHE335     -0.2867
     74  CB        17.5720   22.8770   -4.4940 C.3   335  PHE335      0.0534
     75  CG        17.2840   23.9810   -5.4970 C.ar  335  PHE335     -0.0203
     76  CD1       16.0000   24.4800   -5.6530 C.ar  335  PHE335     -0.0042
     77  CD2       18.3020   24.5090   -6.2830 C.ar  335  PHE335     -0.0042
     78  CE1       15.7240   25.4960   -6.5950 C.ar  335  PHE335     -0.0003
     79  CE2       18.0310   25.5160   -7.2280 C.ar  335  PHE335     -0.0003
     80  CZ        16.7430   26.0100   -7.3650 C.ar  335  PHE335     -0.0000
     81  N         11.8330   21.7140   -3.8780 N.3   337  PHE337     -0.1241
     82  CA        10.8160   22.3060   -3.0090 C.3   337  PHE337      0.1605
     83  C          9.5090   22.1440   -3.7310 C.2   337  PHE337      0.2264
     84  O          9.4890   22.1040   -4.9670 O.2   337  PHE337     -0.2867
     85  CB        11.0650   23.8230   -2.8170 C.3   337  PHE337      0.0534
     86  CG        12.2470   24.2760   -1.9840 C.ar  337  PHE337     -0.0203
     87  CD1       13.3140   24.9440   -2.5710 C.ar  337  PHE337     -0.0042
     88  CD2       12.2710   24.0720   -0.6130 C.ar  337  PHE337     -0.0042
     89  CE1       14.3940   25.3870   -1.8020 C.ar  337  PHE337     -0.0003
     90  CE2       13.3540   24.5110    0.1580 C.ar  337  PHE337     -0.0003
     91  CZ        14.4110   25.1620   -0.4420 C.ar  337  PHE337     -0.0000
     92  N         12.9530   32.2070  -12.3240 N.3   415  ARG415     -0.1245
     93  CA        11.6010   32.7460  -12.3010 C.3   415  ARG415      0.1563
     94  C         10.8630   32.3560  -13.5730 C.2   415  ARG415      0.2260
     95  O          9.6620   32.0690  -13.5080 O.2   415  ARG415     -0.2867
     96  CB        11.5720   34.2610  -12.1030 C.3   415  ARG415      0.0307
     97  CG        12.2390   34.7890  -10.8280 C.3   415  ARG415      0.0489
     98  CD        11.7280   34.1670   -9.5400 C.3   415  ARG415      0.2205
     99  NE        12.6260   34.4690   -8.4210 N.pl3 415  ARG415     -0.0865
    100  CZ        12.3990   34.1240   -7.1570 C.cat 415  ARG415      0.5346
    101  NH1       11.2950   33.4630   -6.8290 N.pl3 415  ARG415      0.1354
    102  NH2       13.2730   34.4390   -6.2110 N.pl3 415  ARG415      0.1354
@<TRIPOS>BOND
     1    94    95    2
     2    94    93    1
     3    92    93    1
     4    93    96    1
     5    96    97    1
     6    97    98    1
     7    98    99    1
     8    99   100    2
     9    80    79   ar
    10    80    78   ar
    11    79    77   ar
    12   100   101    1
    13   100   102    1
    14    78    76   ar
    15    73    72    2
    16    70    71    1
    17    77    75   ar
    18    76    75   ar
    19    75    74    1
    20    72    71    1
    21    71    74    1
    22    26    25    1
    23    26    27    1
    24    84    83    2
    25    25    22   am
    26    27    28    2
    27    27    29   am
    28    81    82    1
    29    24    21    1
    30    35    34   ar
    31    83    82    1
    32    22    21    1
    33    22    23    2
    34    21    20    1
    35    36    34   ar
    36    34    33    1
    37    29    30    1
    38    82    85    1
    39    85    86    1
    40    51    50    1
    41    87    86   ar
    42    87    89   ar
    43    52    50    1
    44    50    49    2
    45    33    30    1
    46    30    31    1
    47    86    88   ar
    48    49    48    1
    49    89    91   ar
    50    48    47    1
    51    69    67   am
    52    31    37   am
    53    31    32    2
    54    37    38    1
    55    88    90   ar
    56    91    90   ar
    57    68    67    2
    58    47    46    1
    59    67    66    1
    60    19    17   ar
    61    41    38    1
    62    40    39    2
    63    11    10   ar
    64    11     9   ar
    65    38    39    1
    66    46    43    1
    67    18    17   ar
    68    17    16    1
    69    66    63    1
    70    10     8   ar
    71     9     7   ar
    72    61    59   am
    73    45    44    2
    74    63    64    1
    75    63    62    1
    76    43    44    1
    77    43    42    1
    78    60    59    2
    79    16    13    1
    80    65    64    2
    81    59    58    1
    82     8     6   ar
    83     7     6   ar
    84    13    14    1
    85    13    12    1
    86    14    15    2
    87    62    55   am
    88     6     5    1
    89    58    57    1
    90    55    56    2
    91    55    54    1
    92    57    54    1
    93     5     2    1
    94    54    53    1
    95     2     3    1
    96     2     1    1
    97     3     4    2
