@<TRIPOS>MOLECULE
tmp/4oyoA02.pdb
 121 113 0 0 0
SMALL
GASTEIGER

@<TRIPOS>ATOM
      1  N         22.0940   39.5300   -4.7500 N.3    52  THR52      -0.1218
      2  CA        22.1180   39.4570   -6.2350 C.3    52  THR52       0.1862
      3  C         22.0270   40.8230   -6.9240 C.2    52  THR52       0.2287
      4  O         22.8030   41.0930   -7.8410 O.2    52  THR52      -0.2866
      5  CB        21.0320   38.5100   -6.7500 C.3    52  THR52       0.1770
      6  OG1       21.3870   37.2050   -6.3230 O.3    52  THR52      -0.2211
      7  CG2       20.9160   38.5020   -8.2770 C.3    52  THR52       0.0375
      8  N         23.2260   28.3950   -2.2330 N.3    97  ALA97      -0.1231
      9  CA        22.6490   28.5400   -3.5920 C.3    97  ALA97       0.1694
     10  C         22.1160   29.9220   -3.6910 C.2    97  ALA97       0.2593
     11  O         21.4280   30.3680   -2.7650 O.2    97  ALA97      -0.2718
     12  CB        21.5190   27.5240   -3.8180 C.3    97  ALA97       0.0304
     13  N         22.4260   30.5930   -4.7980 N.am   98  GLY98      -0.1942
     14  CA        21.9260   31.9400   -5.0450 C.3    98  GLY98       0.2014
     15  C         22.3900   32.8530   -3.9380 C.2    98  GLY98       0.2638
     16  O         23.6030   32.9750   -3.7170 O.2    98  GLY98      -0.2714
     17  N         21.4170   33.4610   -3.2110 N.am   99  ASP99      -0.1971
     18  CA        21.6890   34.3780   -2.1000 C.3    99  ASP99       0.1709
     19  C         21.6310   33.6720   -0.7200 C.2    99  ASP99       0.2293
     20  O         21.8460   34.3250    0.3170 O.2    99  ASP99      -0.2864
     21  CB        20.6630   35.5400   -2.1290 C.3    99  ASP99       0.1436
     22  CG        20.8760   36.5890   -3.2290 C.2    99  ASP99       0.3671
     23  OD1       22.0030   36.6460   -3.8010 O.co2  99  ASP99      -0.2456
     24  OD2       19.9170   37.3460   -3.5210 O.co2  99  ASP99      -0.2456
     25  N         17.8170   26.4260  -16.5890 N.3   295  PHE295     -0.1241
     26  CA        17.2660   26.0730  -15.2880 C.3   295  PHE295      0.1605
     27  C         16.0790   25.1390  -15.5440 C.2   295  PHE295      0.2264
     28  O         15.0680   25.5420  -16.1410 O.2   295  PHE295     -0.2867
     29  CB        16.8700   27.3390  -14.5120 C.3   295  PHE295      0.0534
     30  CG        17.2650   27.3470  -13.0420 C.ar  295  PHE295     -0.0203
     31  CD1       17.0630   26.2200  -12.2380 C.ar  295  PHE295     -0.0042
     32  CD2       17.8250   28.4920  -12.4610 C.ar  295  PHE295     -0.0042
     33  CE1       17.4310   26.2230  -10.8800 C.ar  295  PHE295     -0.0003
     34  CE2       18.1780   28.5050  -11.1150 C.ar  295  PHE295     -0.0003
     35  CZ        17.9710   27.3740  -10.3320 C.ar  295  PHE295     -0.0000
     36  N         23.8990   23.3510   -9.3170 N.3   333  LYS333     -0.1245
     37  CA        23.0990   23.1580   -8.1100 C.3   333  LYS333      0.1561
     38  C         21.9140   22.2860   -8.4740 C.2   333  LYS333      0.2260
     39  O         21.4230   22.3310   -9.6230 O.2   333  LYS333     -0.2867
     40  CB        22.5540   24.5050   -7.5470 C.3   333  LYS333      0.0271
     41  CG        23.5610   25.5190   -7.0210 C.3   333  LYS333      0.0035
     42  CD        24.4150   25.0210   -5.8240 C.3   333  LYS333      0.0206
     43  CE        25.6280   25.9210   -5.6820 C.3   333  LYS333      0.1093
     44  NZ        26.5120   25.4590   -4.5640 N.3   333  LYS333     -0.1314
     45  N         18.1300   21.2750   -6.3360 N.3   335  PHE335     -0.1241
     46  CA        17.3760   21.4470   -5.0980 C.3   335  PHE335      0.1605
     47  C         15.9440   21.1020   -5.3590 C.2   335  PHE335      0.2264
     48  O         15.5130   21.0890   -6.5230 O.2   335  PHE335     -0.2867
     49  CB        17.5720   22.8770   -4.4940 C.3   335  PHE335      0.0534
     50  CG        17.2840   23.9810   -5.4970 C.ar  335  PHE335     -0.0203
     51  CD1       16.0000   24.4800   -5.6530 C.ar  335  PHE335     -0.0042
     52  CD2       18.3020   24.5090   -6.2830 C.ar  335  PHE335     -0.0042
     53  CE1       15.7240   25.4960   -6.5950 C.ar  335  PHE335     -0.0003
     54  CE2       18.0310   25.5160   -7.2280 C.ar  335  PHE335     -0.0003
     55  CZ        16.7430   26.0100   -7.3650 C.ar  335  PHE335     -0.0000
     56  N         20.1300   23.5990  -11.8120 N.3   344  LEU344     -0.1245
     57  CA        20.7420   24.8260  -12.3210 C.3   344  LEU344      0.1561
     58  C         21.9170   24.3950  -13.2030 C.2   344  LEU344      0.2260
     59  O         22.9950   24.0080  -12.6840 O.2   344  LEU344     -0.2867
     60  CB        21.2750   25.6800  -11.1220 C.3   344  LEU344      0.0270
     61  CG        21.6460   27.1470  -11.3860 C.3   344  LEU344      0.0019
     62  CD1       22.1180   27.8260  -10.0930 C.3   344  LEU344      0.0001
     63  CD2       22.6860   27.3500  -12.4390 C.3   344  LEU344      0.0001
     64  N         27.0270   30.0550   -8.5000 N.3   405  VAL405     -0.1231
     65  CA        26.8230   31.0510   -9.5560 C.3   405  VAL405      0.1692
     66  C         25.6990   32.0020   -9.0700 C.2   405  VAL405      0.2592
     67  O         24.6660   31.5320   -8.5490 O.2   405  VAL405     -0.2718
     68  CB        26.5550   30.3840  -10.9370 C.3   405  VAL405      0.0266
     69  CG1       27.7600   29.5460  -11.3500 C.3   405  VAL405      0.0020
     70  CG2       25.3140   29.5160  -10.8860 C.3   405  VAL405      0.0020
     71  N         25.9170   33.3100   -9.2030 N.am  406  ILE406     -0.1966
     72  CA        25.0440   34.3540   -8.6320 C.3   406  ILE406      0.1727
     73  C         24.8530   35.4490   -9.6690 C.2   406  ILE406      0.2616
     74  O         25.8040   35.9670  -10.2550 O.2   406  ILE406     -0.2715
     75  CB        25.6330   34.9590   -7.2920 C.3   406  ILE406      0.0290
     76  CG1       25.8740   33.8530   -6.2210 C.3   406  ILE406      0.0022
     77  CG2       24.6860   36.0540   -6.7290 C.3   406  ILE406      0.0023
     78  CD1       26.6820   34.2860   -5.0220 C.3   406  ILE406      0.0001
     79  N         23.6040   35.8190   -9.9030 N.am  407  GLY407     -0.1955
     80  CA        23.4060   36.9590  -10.7880 C.3   407  GLY407      0.1869
     81  C         21.9810   37.1110  -11.2530 C.2   407  GLY407      0.2309
     82  O         21.1940   36.1920  -11.1180 O.2   407  GLY407     -0.2863
     83  N         20.7360   34.4070  -13.5160 N.3   410  VAL410     -0.1231
     84  CA        20.3760   33.1650  -12.8230 C.3   410  VAL410      0.1692
     85  C         18.9580   33.2560  -12.2180 C.2   410  VAL410      0.2592
     86  O         18.1450   32.3390  -12.3910 O.2   410  VAL410     -0.2718
     87  CB        21.4350   32.7540  -11.7470 C.3   410  VAL410      0.0266
     88  CG1       21.1080   31.3700  -11.1970 C.3   410  VAL410      0.0020
     89  CG2       22.8650   32.8000  -12.3200 C.3   410  VAL410      0.0020
     90  N         18.6490   34.3560  -11.5070 N.am  411  ASN411     -0.1974
     91  CA        17.3470   34.5530  -10.8860 C.3   411  ASN411      0.1688
     92  C         16.2520   34.5850  -12.0240 C.2   411  ASN411      0.2292
     93  O         15.1730   34.0160  -11.8680 O.2   411  ASN411     -0.2864
     94  CB        17.3180   35.8840  -10.1300 C.3   411  ASN411      0.1181
     95  CG        15.9680   36.1160   -9.5120 C.2   411  ASN411      0.2629
     96  OD1       15.4690   35.3000   -8.6960 O.2   411  ASN411     -0.2716
     97  ND2       15.2710   37.1150  -10.0360 N.am  411  ASN411     -0.0877
     98  N         15.4610   31.0740  -13.2310 N.3   414  ALA414     -0.1231
     99  CA        14.6560   30.4450  -12.1770 C.3   414  ALA414      0.1694
    100  C         13.1860   30.8980  -12.2000 C.2   414  ALA414      0.2591
    101  O         12.2730   30.0720  -12.1090 O.2   414  ALA414     -0.2718
    102  CB        15.2740   30.7020  -10.7960 C.3   414  ALA414      0.0304
    103  N         12.9530   32.2070  -12.3240 N.am  415  ARG415     -0.1980
    104  CA        11.6010   32.7460  -12.3010 C.3   415  ARG415      0.1597
    105  C         10.8630   32.3560  -13.5730 C.2   415  ARG415      0.2287
    106  O          9.6620   32.0690  -13.5080 O.2   415  ARG415     -0.2864
    107  CB        11.5720   34.2610  -12.1030 C.3   415  ARG415      0.0334
    108  CG        12.2390   34.7890  -10.8280 C.3   415  ARG415      0.0492
    109  CD        11.7280   34.1670   -9.5400 C.3   415  ARG415      0.2205
    110  NE        12.6260   34.4690   -8.4210 N.pl3 415  ARG415     -0.0865
    111  CZ        12.3990   34.1240   -7.1570 C.cat 415  ARG415      0.5346
    112  NH1       11.2950   33.4630   -6.8290 N.pl3 415  ARG415      0.1354
    113  NH2       13.2730   34.4390   -6.2110 N.pl3 415  ARG415      0.1354
    114  N         11.1760   29.5650  -15.3460 N.3   417  MET417     -0.1245
    115  CA        10.7250   28.1680  -15.3220 C.3   417  MET417      0.1570
    116  C          9.4780   27.9940  -14.4130 C.2   417  MET417      0.2261
    117  O          8.6650   27.1210  -14.6650 O.2   417  MET417     -0.2867
    118  CB        11.8810   27.1980  -14.9830 C.3   417  MET417      0.0387
    119  CG        12.1080   27.0290  -13.5290 C.3   417  MET417      0.0595
    120  SD        13.6500   26.1830  -13.0780 S.3   417  MET417     -0.1393
    121  CE        13.5790   26.5390  -11.3800 C.3   417  MET417      0.0692
@<TRIPOS>BOND
     1    25    26    1
     2    28    27    2
     3    27    26    1
     4   114   115    1
     5   115   118    1
     6   115   116    1
     7    26    29    1
     8   118   119    1
     9   117   116    2
    10    29    30    1
    11   105   106    2
    12   105   104    1
    13   119   120    1
    14    83    84    1
    15    98    99    1
    16    58    59    2
    17    58    57    1
    18   120   121    1
    19    30    32   ar
    20    30    31   ar
    21    84    85    1
    22    84    87    1
    23    32    34   ar
    24    63    61    1
    25    86    85    2
    26   103   104    1
    27   103   100   am
    28    57    56    1
    29    57    60    1
    30    89    87    1
    31   104   107    1
    32    31    33   ar
    33    85    90   am
    34   100    99    1
    35   100   101    2
    36    99   102    1
    37   107   108    1
    38    92    93    2
    39    92    91    1
    40    87    88    1
    41    90    91    1
    42    61    60    1
    43    61    62    1
    44    69    68    1
    45    81    82    2
    46    81    80    1
    47    34    35   ar
    48    68    70    1
    49    68    65    1
    50    91    94    1
    51    33    35   ar
    52   108   109    1
    53    80    79    1
    54    74    73    2
    55    94    95    1
    56    97    95   am
    57    79    73   am
    58    73    72    1
    59    39    38    2
    60    65    66    1
    61    65    64    1
    62   109   110    1
    63    95    96    2
    64    36    37    1
    65    71    66   am
    66    71    72    1
    67    66    67    2
    68    72    75    1
    69    38    37    1
    70   110   111    2
    71     7     5    1
    72    37    40    1
    73     4     3    2
    74    40    41    1
    75    55    54   ar
    76    55    53   ar
    77    75    77    1
    78    75    76    1
    79    54    52   ar
    80   111   112    1
    81   111   113    1
    82    41    42    1
    83     3     2    1
    84     5     6    1
    85     5     2    1
    86    53    51   ar
    87    48    47    2
    88    45    46    1
    89    52    50   ar
    90     2     1    1
    91    76    78    1
    92    42    43    1
    93    43    44    1
    94    51    50   ar
    95    50    49    1
    96    47    46    1
    97    46    49    1
    98    14    13    1
    99    14    15    1
   100    13    10   am
   101    15    16    2
   102    15    17   am
   103    12     9    1
   104    23    22   ar
   105    10     9    1
   106    10    11    2
   107     9     8    1
   108    24    22   ar
   109    22    21    1
   110    17    18    1
   111    21    18    1
   112    18    19    1
   113    19    20    2
