@<TRIPOS>MOLECULE
tmp/4oypA00.pdb
 91 88 0 0 0
SMALL
GASTEIGER

@<TRIPOS>ATOM
      1  N         16.6080   28.2540    8.5140 N.3    45  PHE45      -0.1241
      2  CA        16.7720   28.7970    7.1740 C.3    45  PHE45       0.1605
      3  C         17.0930   30.2560    7.2960 C.2    45  PHE45       0.2264
      4  O         16.2190   31.0540    7.5620 O.2    45  PHE45      -0.2867
      5  CB        15.5340   28.5210    6.2820 C.3    45  PHE45       0.0534
      6  CG        15.7100   28.6440    4.7800 C.ar   45  PHE45      -0.0203
      7  CD1       16.8870   28.2450    4.1630 C.ar   45  PHE45      -0.0042
      8  CD2       14.6830   29.1200    3.9820 C.ar   45  PHE45      -0.0042
      9  CE1       17.0430   28.3510    2.7810 C.ar   45  PHE45      -0.0003
     10  CE2       14.8380   29.2280    2.5950 C.ar   45  PHE45      -0.0003
     11  CZ        16.0170   28.8480    2.0040 C.ar   45  PHE45      -0.0000
     12  N         23.6540   23.2820    3.5580 N.3    95  LYS95      -0.1245
     13  CA        23.6720   23.8090    2.2070 C.3    95  LYS95       0.1561
     14  C         23.7210   25.3340    2.1690 C.2    95  LYS95       0.2260
     15  O         23.0360   25.9930    2.9220 O.2    95  LYS95      -0.2867
     16  CB        22.4090   23.3170    1.4530 C.3    95  LYS95       0.0271
     17  CG        22.5240   23.3430   -0.0780 C.3    95  LYS95       0.0035
     18  CD        21.4910   22.4390   -0.7330 C.3    95  LYS95       0.0206
     19  CE        21.8740   20.9680   -0.6610 C.3    95  LYS95       0.1093
     20  NZ        20.7670   20.1190   -1.1640 N.3    95  LYS95      -0.1314
     21  N         23.0910   28.2510   -0.7750 N.3    97  ALA97      -0.1231
     22  CA        22.6120   28.5530   -2.1200 C.3    97  ALA97       0.1694
     23  C         22.2820   30.0050   -2.0570 C.2    97  ALA97       0.2593
     24  O         21.4340   30.3850   -1.2430 O.2    97  ALA97      -0.2718
     25  CB        21.3610   27.7310   -2.4610 C.3    97  ALA97       0.0304
     26  N         22.9650   30.8000   -2.8860 N.am   98  GLY98      -0.1942
     27  CA        22.7640   32.2410   -3.0130 C.3    98  GLY98       0.2014
     28  C         21.3820   32.6690   -2.5640 C.2    98  GLY98       0.2639
     29  O         20.3710   32.1280   -3.0350 O.2    98  GLY98      -0.2714
     30  N         21.3500   33.6310   -1.6350 N.am   99  ASP99      -0.1957
     31  CA        20.2080   34.1600   -0.8630 C.3    99  ASP99       0.1840
     32  C         20.1100   33.5250    0.5530 C.2    99  ASP99       0.2621
     33  O         19.5460   34.1760    1.4360 O.2    99  ASP99      -0.2715
     34  CB        18.8510   34.1030   -1.6220 C.3    99  ASP99       0.1450
     35  CG        18.8180   34.8560   -2.9570 C.2    99  ASP99       0.3671
     36  OD1       17.7080   35.0810   -3.4850 O.co2  99  ASP99      -0.2456
     37  OD2       19.9060   35.1860   -3.4880 O.co2  99  ASP99      -0.2456
     38  N         20.6760   32.2930    0.7920 N.am  100  ALA100     -0.1977
     39  CA        20.4420   31.5700    2.0410 C.3   100  ALA100      0.1597
     40  C         21.4480   30.4360    2.4250 C.2   100  ALA100      0.2287
     41  O         22.2780   29.9900    1.6260 O.2   100  ALA100     -0.2864
     42  CB        19.0360   30.9980    2.0200 C.3   100  ALA100      0.0319
     43  N         20.9450   26.6150    4.8610 N.3   102  LEU102     -0.1245
     44  CA        20.0690   25.7370    5.5990 C.3   102  LEU102      0.1561
     45  C         20.8940   24.9790    6.6260 C.2   102  LEU102      0.2260
     46  O         21.8890   24.3800    6.2520 O.2   102  LEU102     -0.2867
     47  CB        19.3550   24.7680    4.6330 C.3   102  LEU102      0.0270
     48  CG        18.3260   23.8140    5.2630 C.3   102  LEU102      0.0019
     49  CD1       17.1370   24.5760    5.8420 C.3   102  LEU102      0.0001
     50  CD2       17.8200   22.8330    4.2450 C.3   102  LEU102      0.0001
     51  N         10.7030   26.8500    4.8220 N.3   176  ARG176     -0.1245
     52  CA        10.6680   27.7220    3.6490 C.3   176  ARG176      0.1563
     53  C          9.5000   28.7140    3.7810 C.2   176  ARG176      0.2260
     54  O          9.6790   29.9110    3.5550 O.2   176  ARG176     -0.2867
     55  CB        10.5590   26.8780    2.3610 C.3   176  ARG176      0.0307
     56  CG        11.7990   25.9670    2.1170 C.3   176  ARG176      0.0489
     57  CD        11.8600   25.4130    0.6890 C.3   176  ARG176      0.2205
     58  NE        11.8190   26.4860   -0.3250 N.pl3 176  ARG176     -0.0865
     59  CZ        12.8710   27.1650   -0.7760 C.cat 176  ARG176      0.5346
     60  NH1       14.0860   26.9050   -0.3170 N.pl3 176  ARG176      0.1354
     61  NH2       12.7130   28.1120   -1.6890 N.pl3 176  ARG176      0.1354
     62  N         17.7840   21.2510   -4.5770 N.3   335  PHE335     -0.1227
     63  CA        17.0620   21.5320   -3.3260 C.3   335  PHE335      0.1736
     64  C         15.6050   21.6900   -3.6230 C.2   335  PHE335      0.2595
     65  O         15.2330   21.9320   -4.7810 O.2   335  PHE335     -0.2718
     66  CB        17.5860   22.7810   -2.5750 C.3   335  PHE335      0.0547
     67  CG        17.6900   24.0230   -3.4270 C.ar  335  PHE335     -0.0202
     68  CD1       16.6520   24.9400   -3.4740 C.ar  335  PHE335     -0.0042
     69  CD2       18.8280   24.2740   -4.1820 C.ar  335  PHE335     -0.0042
     70  CE1       16.7530   26.0870   -4.2560 C.ar  335  PHE335     -0.0003
     71  CE2       18.9240   25.4180   -4.9750 C.ar  335  PHE335     -0.0003
     72  CZ        17.8870   26.3190   -5.0060 C.ar  335  PHE335     -0.0000
     73  N         14.7810   21.5480   -2.5730 N.am  336  MET336     -0.1965
     74  CA        13.3540   21.8130   -2.6370 C.3   336  MET336      0.1736
     75  C         13.0860   23.3140   -2.6870 C.2   336  MET336      0.2616
     76  O         13.6680   24.0830   -1.9200 O.2   336  MET336     -0.2715
     77  CB        12.5830   21.1490   -1.4700 C.3   336  MET336      0.0427
     78  CG        12.7080   19.6110   -1.4180 C.3   336  MET336      0.0599
     79  SD        12.2240   18.6850   -2.9170 S.3   336  MET336     -0.1393
     80  CE        10.4980   18.9710   -2.9220 C.3   336  MET336      0.0692
     81  N         12.2140   23.7180   -3.6200 N.am  337  PHE337     -0.1974
     82  CA        11.5160   25.0100   -3.6330 C.3   337  PHE337      0.1639
     83  C         10.2080   24.7990   -2.8430 C.2   337  PHE337      0.2290
     84  O          9.8970   23.6480   -2.5130 O.2   337  PHE337     -0.2864
     85  CB        11.1890   25.3690   -5.0990 C.3   337  PHE337      0.0560
     86  CG        12.1860   26.2600   -5.8070 C.ar  337  PHE337     -0.0200
     87  CD1       11.7600   27.3700   -6.5280 C.ar  337  PHE337     -0.0042
     88  CD2       13.5500   25.9970   -5.7470 C.ar  337  PHE337     -0.0042
     89  CE1       12.6820   28.2030   -7.1760 C.ar  337  PHE337     -0.0003
     90  CE2       14.4690   26.8250   -6.4010 C.ar  337  PHE337     -0.0003
     91  CZ        14.0290   27.9220   -7.1090 C.ar  337  PHE337     -0.0000
@<TRIPOS>BOND
     1    89    91   ar
     2    89    87   ar
     3    91    90   ar
     4    87    86   ar
     5    90    88   ar
     6    86    88   ar
     7    86    85    1
     8    85    82    1
     9    72    71   ar
    10    72    70   ar
    11    71    69   ar
    12    65    64    2
    13    62    63    1
    14    70    68   ar
    15    69    67   ar
    16    82    81    1
    17    82    83    1
    18    64    63    1
    19    64    73   am
    20    81    75   am
    21    37    35   ar
    22    36    35   ar
    23    68    67   ar
    24    67    66    1
    25    63    66    1
    26    29    28    2
    27    27    26    1
    28    27    28    1
    29    35    34    1
    30    80    79    1
    31    79    78    1
    32    26    23   am
    33    83    84    2
    34    75    74    1
    35    75    76    2
    36    74    73    1
    37    74    77    1
    38    28    30   am
    39    25    22    1
    40    22    23    1
    41    22    21    1
    42    23    24    2
    43    61    59    1
    44    30    31    1
    45    34    31    1
    46    77    78    1
    47    20    19    1
    48    31    32    1
    49    59    58    2
    50    59    60    1
    51    18    19    1
    52    18    17    1
    53    58    57    1
    54    17    16    1
    55    32    38   am
    56    32    33    2
    57    57    56    1
    58    38    39    1
    59    16    13    1
    60    41    40    2
    61    11    10   ar
    62    11     9   ar
    63    42    39    1
    64    39    40    1
    65    56    55    1
    66    14    13    1
    67    14    15    2
    68    13    12    1
    69    55    52    1
    70    10     8   ar
    71     9     7   ar
    72    54    53    2
    73    52    53    1
    74    52    51    1
    75     8     6   ar
    76     7     6   ar
    77    50    48    1
    78    47    48    1
    79    47    44    1
    80     6     5    1
    81    43    44    1
    82    48    49    1
    83    44    45    1
    84    46    45    2
    85     5     2    1
    86     2     3    1
    87     2     1    1
    88     3     4    2
