@<TRIPOS>MOLECULE
tmp/4oyqC00.pdb
 95 91 0 0 0
SMALL
GASTEIGER

@<TRIPOS>ATOM
      1  N         23.9040   -6.5870   19.2000 N.3     1  PRO1       -0.2102
      2  CA        22.9460   -6.1300   18.2000 C.3     1  PRO1        0.1504
      3  C         22.3600   -4.8200   18.7270 C.2     1  PRO1        0.2575
      4  O         22.1230   -4.6980   19.9300 O.2     1  PRO1       -0.2718
      5  CB        21.8980   -7.2430   18.1660 C.3     1  PRO1        0.0282
      6  CG        22.2550   -8.1760   19.3180 C.3     1  PRO1        0.0208
      7  CD        23.2340   -7.4310   20.1930 C.3     1  PRO1        0.0893
      8  N         22.1590   -3.8480   17.8530 N.am    2  MET2       -0.1980
      9  CA        21.6200   -2.5550   18.2610 C.3     2  MET2        0.1605
     10  C         20.4550   -2.2460   17.3660 C.2     2  MET2        0.2287
     11  O         20.6100   -2.2620   16.1490 O.2     2  MET2       -0.2864
     12  CB        22.6600   -1.4500   18.1320 C.3     2  MET2        0.0413
     13  CG        24.0490   -1.8550   18.5670 C.3     2  MET2        0.0598
     14  SD        25.2570   -0.6040   18.0740 S.3     2  MET2       -0.1393
     15  CE        26.7380   -1.6170   18.0850 C.3     2  MET2        0.0692
     16  N         21.3090  -14.2790   21.1260 N.3    32  LYS32      -0.1245
     17  CA        22.3060  -13.6130   21.9620 C.3    32  LYS32       0.1561
     18  C         21.7240  -13.2330   23.3190 C.2    32  LYS32       0.2260
     19  O         20.5200  -13.0000   23.4370 O.2    32  LYS32      -0.2867
     20  CB        22.8520  -12.3810   21.2450 C.3    32  LYS32       0.0271
     21  CG        23.4880  -12.7180   19.9090 C.3    32  LYS32       0.0035
     22  CD        24.1620  -11.5270   19.2600 C.3    32  LYS32       0.0206
     23  CE        24.6950  -11.9120   17.8880 C.3    32  LYS32       0.1093
     24  NZ        25.3920  -13.2380   17.9260 N.3    32  LYS32      -0.1314
     25  N         23.7170   -8.0580   25.8350 N.3    36  TYR36      -0.1241
     26  CA        24.4050   -7.5150   24.6580 C.3    36  TYR36       0.1605
     27  C         23.5680   -6.5430   23.8340 C.2    36  TYR36       0.2264
     28  O         24.0830   -5.8840   22.9390 O.2    36  TYR36      -0.2867
     29  CB        24.8420   -8.6580   23.7340 C.3    36  TYR36       0.0534
     30  CG        25.9830   -9.4480   24.2930 C.ar   36  TYR36      -0.0201
     31  CD1       27.2920   -9.0410   24.0860 C.ar   36  TYR36      -0.0009
     32  CD2       25.7540  -10.5860   25.0540 C.ar   36  TYR36      -0.0009
     33  CE1       28.3550   -9.7610   24.6150 C.ar   36  TYR36       0.0417
     34  CE2       26.8060  -11.3080   25.5850 C.ar   36  TYR36       0.0417
     35  CZ        28.0980  -10.8860   25.3590 C.ar   36  TYR36       0.1957
     36  OH        29.1300  -11.6150   25.8910 O.3    36  TYR36      -0.2866
     37  N         22.0250   -3.0380   13.6730 N.3    62  HIS62      -0.1226
     38  CA        23.4570   -3.2890   13.5350 C.3    62  HIS62       0.1752
     39  C         23.7780   -4.5430   14.3230 C.2    62  HIS62       0.2597
     40  O         23.3000   -4.7180   15.4330 O.2    62  HIS62      -0.2718
     41  CB        24.2970   -2.1170   14.0760 C.3    62  HIS62       0.0759
     42  CG        24.1960   -0.8560   13.2740 C.ar   62  HIS62       0.0818
     43  ND1       23.0880   -0.0350   13.3080 N.ar   62  HIS62      -0.2268
     44  CD2       25.0870   -0.2500   12.4530 C.ar   62  HIS62       0.1154
     45  CE1       23.2920    1.0090   12.5250 C.ar   62  HIS62       0.1986
     46  NE2       24.4990    0.9040   11.9960 N.ar   62  HIS62      -0.2212
     47  N         24.5860   -5.4240   13.7630 N.am   63  SER63      -0.1938
     48  CA        24.9380   -6.6240   14.4910 C.3    63  SER63       0.2055
     49  C         26.3140   -7.0940   14.0550 C.2    63  SER63       0.2643
     50  O         26.6950   -6.9160   12.9060 O.2    63  SER63      -0.2714
     51  CB        23.8760   -7.7090   14.2720 C.3    63  SER63       0.2130
     52  OG        24.1720   -8.8550   15.0450 O.3    63  SER63      -0.2179
     53  N         27.0760   -7.6610   14.9830 N.am   64  ILE64      -0.1963
     54  CA        28.3520   -8.2580   14.6150 C.3    64  ILE64       0.1727
     55  C         28.0490   -9.6960   14.2240 C.2    64  ILE64       0.2616
     56  O         27.8980  -10.5630   15.0800 O.2    64  ILE64      -0.2715
     57  CB        29.3760   -8.1870   15.7630 C.3    64  ILE64       0.0290
     58  CG1       29.6970   -6.7250   16.0880 C.3    64  ILE64       0.0022
     59  CG2       30.6390   -8.9580   15.3910 C.3    64  ILE64       0.0023
     60  CD1       30.3820   -6.5270   17.4530 C.3    64  ILE64       0.0001
     61  N         27.9260   -9.9340   12.9240 N.am   65  GLY65      -0.1955
     62  CA        27.4310  -11.2060   12.4290 C.3    65  GLY65       0.1869
     63  C         25.9180  -11.3060   12.5680 C.2    65  GLY65       0.2309
     64  O         25.2600  -10.3340   12.9550 O.2    65  GLY65      -0.2863
     65  N         28.3700   -5.5490   11.0750 N.3   101  MET101     -0.1245
     66  CA        29.5350   -4.8260   11.5800 C.3   101  MET101      0.1570
     67  C         30.7110   -5.7410   11.8590 C.2   101  MET101      0.2261
     68  O         30.5360   -6.8180   12.4310 O.2   101  MET101     -0.2867
     69  CB        29.1870   -4.0720   12.8820 C.3   101  MET101      0.0387
     70  CG        28.0590   -3.0550   12.7610 C.3   101  MET101      0.0595
     71  SD        28.5010   -1.6970   11.6540 S.3   101  MET101     -0.1393
     72  CE        29.7220   -0.8310   12.6510 C.3   101  MET101      0.0692
     73  N         33.8510   -6.7720   14.0550 N.3   103  ALA103     -0.1245
     74  CA        34.1540   -6.6350   15.4740 C.3   103  ALA103      0.1562
     75  C         35.1090   -5.4760   15.7700 C.2   103  ALA103      0.2260
     76  O         34.9530   -4.7870   16.7760 O.2   103  ALA103     -0.2867
     77  CB        34.7320   -7.9460   16.0160 C.3   103  ALA103      0.0290
     78  N         33.3900   -1.9320   16.1850 N.3   106  VAL106     -0.1245
     79  CA        32.4320   -1.6460   17.2440 C.3   106  VAL106      0.1561
     80  C         33.1660   -1.4240   18.5570 C.2   106  VAL106      0.2260
     81  O         33.7920   -2.3390   19.1050 O.2   106  VAL106     -0.2867
     82  CB        31.3900   -2.7730   17.4150 C.3   106  VAL106      0.0252
     83  CG1       30.3870   -2.4020   18.5040 C.3   106  VAL106      0.0019
     84  CG2       30.6580   -3.0090   16.0980 C.3   106  VAL106      0.0019
     85  N         35.4640   -4.7530   20.0670 N.3   113  PHE113     -0.1241
     86  CA        35.2080   -6.1810   20.2010 C.3   113  PHE113      0.1605
     87  C         36.2170   -7.0250   19.4230 C.2   113  PHE113      0.2264
     88  O         36.1470   -8.2470   19.4580 O.2   113  PHE113     -0.2867
     89  CB        33.7770   -6.4990   19.7570 C.3   113  PHE113      0.0534
     90  CG        32.7480   -6.1200   20.7810 C.ar  113  PHE113     -0.0203
     91  CD1       32.6790   -6.7990   21.9900 C.ar  113  PHE113     -0.0042
     92  CD2       31.8690   -5.0740   20.5510 C.ar  113  PHE113     -0.0042
     93  CE1       31.7530   -6.4390   22.9540 C.ar  113  PHE113     -0.0003
     94  CE2       30.9280   -4.7140   21.5080 C.ar  113  PHE113     -0.0003
     95  CZ        30.8710   -5.3930   22.7090 C.ar  113  PHE113     -0.0000
@<TRIPOS>BOND
     1    65    66    1
     2    66    67    1
     3    66    69    1
     4    71    72    1
     5    71    70    1
     6    67    68    2
     7    46    44   ar
     8    46    45   ar
     9    62    63    1
    10    62    61    1
    11    44    42   ar
    12    45    43   ar
    13    63    64    2
    14    70    69    1
    15    50    49    2
    16    61    55   am
    17    42    43   ar
    18    42    41    1
    19    38    37    1
    20    38    41    1
    21    38    39    1
    22    47    39   am
    23    47    48    1
    24    49    48    1
    25    49    53   am
    26    73    74    1
    27    55    54    1
    28    55    56    2
    29    51    48    1
    30    51    52    1
    31    39    40    2
    32    54    53    1
    33    54    57    1
    34    59    57    1
    35    74    75    1
    36    74    77    1
    37    57    58    1
    38    75    76    2
    39    58    60    1
    40    84    82    1
    41    11    10    2
    42    78    79    1
    43    79    82    1
    44    79    80    1
    45    10     9    1
    46    82    83    1
    47     8     9    1
    48     8     3   am
    49    23    24    1
    50    23    22    1
    51    14    15    1
    52    14    13    1
    53    12     9    1
    54    12    13    1
    55     5     2    1
    56     5     6    1
    57     2     3    1
    58     2     1    1
    59    80    81    2
    60     3     4    2
    61     1     7    1
    62    22    21    1
    63     6     7    1
    64    87    88    2
    65    87    86    1
    66    89    86    1
    67    89    90    1
    68    21    20    1
    69    85    86    1
    70    92    90   ar
    71    92    94   ar
    72    90    91   ar
    73    16    17    1
    74    20    17    1
    75    94    95   ar
    76    17    18    1
    77    91    93   ar
    78    95    93   ar
    79    28    27    2
    80    18    19    2
    81    29    30    1
    82    29    26    1
    83    27    26    1
    84    31    30   ar
    85    31    33   ar
    86    30    32   ar
    87    33    35   ar
    88    26    25    1
    89    32    34   ar
    90    35    34   ar
    91    35    36    1
