@<TRIPOS>MOLECULE
tmp/4oysA00.pdb
 161 152 0 0 0
SMALL
GASTEIGER

@<TRIPOS>ATOM
      1  N         25.7640  -13.9760  -30.0440 N.3   292  PHE292     -0.1241
      2  CA        26.0350  -14.3010  -28.6540 C.3   292  PHE292      0.1605
      3  C         27.1670  -15.3040  -28.6000 C.2   292  PHE292      0.2264
      4  O         27.3860  -16.0500  -29.5700 O.2   292  PHE292     -0.2867
      5  CB        24.7990  -14.9060  -27.9990 C.3   292  PHE292      0.0534
      6  CG        23.7660  -13.8850  -27.6120 C.ar  292  PHE292     -0.0203
      7  CD1       23.7410  -13.3510  -26.3310 C.ar  292  PHE292     -0.0042
      8  CD2       22.8020  -13.4700  -28.5200 C.ar  292  PHE292     -0.0042
      9  CE1       22.7800  -12.4080  -25.9700 C.ar  292  PHE292     -0.0003
     10  CE2       21.8330  -12.5400  -28.1530 C.ar  292  PHE292     -0.0003
     11  CZ        21.8350  -12.0070  -26.8840 C.ar  292  PHE292     -0.0000
     12  N         27.2990  -18.1340  -27.3070 N.3   294  SER294     -0.1217
     13  CA        26.7240  -19.4710  -27.5800 C.3   294  SER294      0.1889
     14  C         27.1730  -20.1050  -28.9110 C.2   294  SER294      0.2288
     15  O         27.3550  -19.4060  -29.9100 O.2   294  SER294     -0.2866
     16  CB        25.1960  -19.4400  -27.4940 C.3   294  SER294      0.2089
     17  OG        24.5660  -20.6600  -27.8680 O.3   294  SER294     -0.2183
     18  N         25.4880  -22.1240  -30.8400 N.3   296  LEU296     -0.1245
     19  CA        24.3350  -22.1200  -31.7530 C.3   296  LEU296      0.1561
     20  C         24.4480  -20.9770  -32.7220 C.2   296  LEU296      0.2260
     21  O         23.8750  -21.0260  -33.8110 O.2   296  LEU296     -0.2867
     22  CB        23.0850  -21.8120  -30.9330 C.3   296  LEU296      0.0270
     23  CG        22.1920  -22.9410  -30.5850 C.3   296  LEU296      0.0019
     24  CD1       22.6220  -23.5820  -29.2620 C.3   296  LEU296      0.0001
     25  CD2       20.7760  -22.4500  -30.4880 C.3   296  LEU296      0.0001
     26  N         23.2720  -17.5910  -31.8290 N.3   298  PRO298     -0.2116
     27  CA        22.0280  -16.7990  -31.8720 C.3   298  PRO298      0.1372
     28  C         22.4010  -15.3220  -32.1010 C.2   298  PRO298      0.2244
     29  O         23.5460  -14.9400  -31.8660 O.2   298  PRO298     -0.2868
     30  CB        21.4020  -17.0310  -30.4900 C.3   298  PRO298      0.0268
     31  CG        22.5270  -17.5210  -29.6120 C.3   298  PRO298      0.0207
     32  CD        23.7520  -17.7610  -30.4370 C.3   298  PRO298      0.0892
     33  N         16.3050  -11.7180  -29.5770 N.3   314  ILE314     -0.1245
     34  CA        17.2670  -12.7920  -29.7650 C.3   314  ILE314      0.1561
     35  C         16.6750  -13.6220  -30.8960 C.2   314  ILE314      0.2260
     36  O         15.5460  -14.1060  -30.7720 O.2   314  ILE314     -0.2867
     37  CB        17.6430  -13.6550  -28.5140 C.3   314  ILE314      0.0252
     38  CG1       18.1960  -12.7850  -27.3700 C.3   314  ILE314      0.0019
     39  CG2       18.6860  -14.7200  -28.9020 C.3   314  ILE314      0.0019
     40  CD1       18.5750  -13.5500  -26.1500 C.3   314  ILE314      0.0001
     41  N         17.2020  -16.9700  -32.8300 N.3   316  LYS316     -0.1245
     42  CA        17.8530  -18.2640  -32.8280 C.3   316  LYS316      0.1561
     43  C         17.4980  -18.9960  -34.1030 C.2   316  LYS316      0.2260
     44  O         16.3180  -19.1750  -34.3940 O.2   316  LYS316     -0.2867
     45  CB        17.3570  -19.1220  -31.6390 C.3   316  LYS316      0.0271
     46  CG        17.7390  -18.6640  -30.2240 C.3   316  LYS316      0.0035
     47  CD        17.7270  -19.8650  -29.2810 C.3   316  LYS316      0.0206
     48  CE        17.5710  -19.5260  -27.8170 C.3   316  LYS316      0.1093
     49  NZ        17.3590  -20.7440  -26.9720 N.3   316  LYS316     -0.1314
     50  N         10.1830  -23.3920  -24.5570 N.3   324  ASP324     -0.1239
     51  CA        10.3770  -22.0760  -23.9540 C.3   324  ASP324      0.1674
     52  C          9.1470  -21.1950  -24.2410 C.2   324  ASP324      0.2266
     53  O          8.6720  -20.5000  -23.3340 O.2   324  ASP324     -0.2867
     54  CB        11.6860  -21.4380  -24.4520 C.3   324  ASP324      0.1410
     55  CG        12.9320  -22.0050  -23.7750 C.2   324  ASP324      0.3668
     56  OD1       13.3610  -23.1310  -24.1480 O.co2 324  ASP324     -0.2456
     57  OD2       13.4830  -21.3240  -22.8840 O.co2 324  ASP324     -0.2456
     58  N          8.8220  -12.3150  -20.4900 N.3   350  TYR350     -0.1241
     59  CA         9.2350  -11.8630  -21.8240 C.3   350  TYR350      0.1605
     60  C          8.5890  -12.7270  -22.8940 C.2   350  TYR350      0.2264
     61  O          8.1320  -13.8450  -22.6060 O.2   350  TYR350     -0.2867
     62  CB        10.7630  -11.8340  -21.9900 C.3   350  TYR350      0.0534
     63  CG        11.4570  -13.1450  -21.6930 C.ar  350  TYR350     -0.0201
     64  CD1       11.6750  -14.0850  -22.6980 C.ar  350  TYR350     -0.0009
     65  CD2       11.9350  -13.4300  -20.4160 C.ar  350  TYR350     -0.0009
     66  CE1       12.3380  -15.2810  -22.4360 C.ar  350  TYR350      0.0417
     67  CE2       12.5990  -14.6220  -20.1420 C.ar  350  TYR350      0.0417
     68  CZ        12.7780  -15.5540  -21.1510 C.ar  350  TYR350      0.1957
     69  OH        13.4170  -16.7340  -20.8810 O.3   350  TYR350     -0.2866
     70  N         12.8530  -14.0170  -29.4840 N.3   362  MET362     -0.1230
     71  CA        12.8030  -13.9170  -28.0310 C.3   362  MET362      0.1702
     72  C         12.9640  -12.4550  -27.6590 C.2   362  MET362      0.2592
     73  O         13.8720  -11.8110  -28.1860 O.2   362  MET362     -0.2718
     74  CB        13.9340  -14.7270  -27.4170 C.3   362  MET362      0.0401
     75  CG        13.6670  -16.1880  -27.3840 C.3   362  MET362      0.0596
     76  SD        14.7860  -16.9650  -26.2290 S.3   362  MET362     -0.1393
     77  CE        14.2640  -18.6360  -26.4160 C.3   362  MET362      0.0692
     78  N         12.0780  -11.9210  -26.7840 N.am  363  GLN363     -0.1966
     79  CA        12.1050  -10.5200  -26.3500 C.3   363  GLN363      0.1733
     80  C         13.2150  -10.3340  -25.3460 C.2   363  GLN363      0.2616
     81  O         13.1350  -10.8690  -24.2350 O.2   363  GLN363     -0.2715
     82  CB        10.7350  -10.0420  -25.8170 C.3   363  GLN363      0.0408
     83  CG        10.7260   -8.6800  -25.1030 C.3   363  GLN363      0.0908
     84  CD         9.3890   -8.3510  -24.4470 C.2   363  GLN363      0.2608
     85  OE1        8.6120   -9.2150  -24.0340 O.2   363  GLN363     -0.2717
     86  NE2        9.0880   -7.0760  -24.3090 N.am  363  GLN363     -0.0878
     87  N         14.2680   -9.5890  -25.7610 N.am  364  PHE364     -0.1960
     88  CA        15.4380   -9.3030  -24.9450 C.3   364  PHE364      0.1771
     89  C         15.0830   -8.2330  -23.9560 C.2   364  PHE364      0.2619
     90  O         14.6050   -7.1690  -24.3550 O.2   364  PHE364     -0.2715
     91  CB        16.6370   -8.8820  -25.8130 C.3   364  PHE364      0.0574
     92  CG        17.9320   -8.7690  -25.0560 C.ar  364  PHE364     -0.0200
     93  CD1       18.7240   -9.8900  -24.8310 C.ar  364  PHE364     -0.0042
     94  CD2       18.3480   -7.5480  -24.5360 C.ar  364  PHE364     -0.0042
     95  CE1       19.9040   -9.7910  -24.0850 C.ar  364  PHE364     -0.0003
     96  CE2       19.5330   -7.4480  -23.7940 C.ar  364  PHE364     -0.0003
     97  CZ        20.3080   -8.5670  -23.5820 C.ar  364  PHE364     -0.0000
     98  N         15.2710   -8.5610  -22.6520 N.am  365  ILE365     -0.1977
     99  CA        15.0620   -7.7500  -21.4340 C.3   365  ILE365      0.1596
    100  C         16.4720   -7.4600  -20.8900 C.2   365  ILE365      0.2287
    101  O         17.1380   -8.3950  -20.4250 O.2   365  ILE365     -0.2864
    102  CB        14.2360   -8.5540  -20.3570 C.3   365  ILE365      0.0276
    103  CG1       12.8750   -9.0760  -20.8790 C.3   365  ILE365      0.0022
    104  CG2       14.0620   -7.7910  -19.0550 C.3   365  ILE365      0.0022
    105  CD1       11.9210   -8.1000  -21.5080 C.3   365  ILE365      0.0001
    106  N         19.4010   -6.9920  -18.7100 N.3   367  SER367     -0.1217
    107  CA        19.7260   -7.5260  -17.3990 C.3   367  SER367      0.1889
    108  C         21.1110   -8.1320  -17.4210 C.2   367  SER367      0.2288
    109  O         21.7110   -8.2650  -18.4840 O.2   367  SER367     -0.2866
    110  CB        18.6990   -8.5830  -16.9820 C.3   367  SER367      0.2089
    111  OG        18.5570   -9.5860  -17.9720 O.3   367  SER367     -0.2183
    112  N         23.2690  -11.5530  -15.6280 N.3   369  PRO369     -0.2116
    113  CA        23.0760  -12.8010  -14.8570 C.3   369  PRO369      0.1372
    114  C         23.7360  -12.6950  -13.4810 C.2   369  PRO369      0.2244
    115  O         24.8380  -12.1420  -13.3740 O.2   369  PRO369     -0.2868
    116  CB        23.7330  -13.8740  -15.7350 C.3   369  PRO369      0.0268
    117  CG        24.7380  -13.1490  -16.5360 C.3   369  PRO369      0.0207
    118  CD        24.1600  -11.7760  -16.7890 C.3   369  PRO369      0.0892
    119  N         23.9440  -18.6670  -14.2900 N.3   427  ASP427     -0.1239
    120  CA        23.9940  -18.2340  -15.7060 C.3   427  ASP427      0.1674
    121  C         22.6020  -17.8790  -16.2380 C.2   427  ASP427      0.2266
    122  O         22.5150  -17.0680  -17.1600 O.2   427  ASP427     -0.2867
    123  CB        24.4900  -19.3680  -16.6320 C.3   427  ASP427      0.1410
    124  CG        25.7790  -20.0710  -16.2940 C.2   427  ASP427      0.3668
    125  OD1       26.5700  -19.5170  -15.5010 O.co2 427  ASP427     -0.2456
    126  OD2       26.0250  -21.1550  -16.8670 O.co2 427  ASP427     -0.2456
    127  N         18.6050  -14.0470  -13.8320 N.3   430  LEU430     -0.1245
    128  CA        18.9400  -12.7090  -14.2610 C.3   430  LEU430      0.1561
    129  C         18.3530  -11.6470  -13.3670 C.2   430  LEU430      0.2260
    130  O         17.2820  -11.8240  -12.7840 O.2   430  LEU430     -0.2867
    131  CB        18.5440  -12.5330  -15.7330 C.3   430  LEU430      0.0270
    132  CG        19.5510  -12.9540  -16.8080 C.3   430  LEU430      0.0019
    133  CD1       19.9260  -14.4200  -16.7290 C.3   430  LEU430      0.0001
    134  CD2       18.9660  -12.7490  -18.1630 C.3   430  LEU430      0.0001
    135  N         14.5540  -12.7260  -12.4500 N.3   438  PHE438     -0.1241
    136  CA        13.8280  -13.6080  -13.3510 C.3   438  PHE438      0.1605
    137  C         14.6960  -14.7480  -13.8870 C.2   438  PHE438      0.2264
    138  O         15.9260  -14.6980  -13.8300 O.2   438  PHE438     -0.2867
    139  CB        13.1450  -12.8080  -14.4770 C.3   438  PHE438      0.0534
    140  CG        14.0380  -12.1280  -15.4900 C.ar  438  PHE438     -0.0203
    141  CD1       14.6960  -10.9390  -15.1800 C.ar  438  PHE438     -0.0042
    142  CD2       14.1410  -12.6160  -16.7880 C.ar  438  PHE438     -0.0042
    143  CE1       15.5080  -10.3020  -16.1210 C.ar  438  PHE438     -0.0003
    144  CE2       14.9490  -11.9800  -17.7260 C.ar  438  PHE438     -0.0003
    145  CZ        15.6300  -10.8300  -17.3820 C.ar  438  PHE438     -0.0000
    146  N         15.4810  -17.6040  -17.0790 N.3   440  ILE440     -0.1231
    147  CA        15.5410  -17.8100  -18.5330 C.3   440  ILE440      0.1692
    148  C         15.9210  -19.2770  -18.7350 C.2   440  ILE440      0.2592
    149  O         16.2000  -19.9650  -17.7400 O.2   440  ILE440     -0.2718
    150  CB        16.5700  -16.8750  -19.2660 C.3   440  ILE440      0.0266
    151  CG1       18.0210  -17.1330  -18.7890 C.3   440  ILE440      0.0019
    152  CG2       16.1840  -15.3910  -19.1840 C.3   440  ILE440      0.0020
    153  CD1       19.1310  -16.7560  -19.7160 C.3   440  ILE440      0.0001
    154  N         15.9770  -19.7360  -20.0170 N.am  441  ASP441     -0.1974
    155  CA        16.4280  -21.0630  -20.4560 C.3   441  ASP441      0.1709
    156  C         15.5770  -22.2340  -19.9090 C.2   441  ASP441      0.2293
    157  O         15.9920  -22.9480  -18.9830 O.2   441  ASP441     -0.2864
    158  CB        17.9260  -21.2340  -20.1090 C.3   441  ASP441      0.1436
    159  CG        18.7700  -21.9120  -21.1500 C.2   441  ASP441      0.3671
    160  OD1       18.2160  -22.7390  -21.9210 O.co2 441  ASP441     -0.2456
    161  OD2       19.9980  -21.6590  -21.1670 O.co2 441  ASP441     -0.2456
@<TRIPOS>BOND
     1    44    43    2
     2    43    42    1
     3    21    20    2
     4    41    42    1
     5    42    45    1
     6    20    19    1
     7    28    27    1
     8    28    29    2
     9    27    26    1
    10    27    30    1
    11    26    32    1
    12    19    22    1
    13    19    18    1
    14    45    46    1
    15    22    23    1
    16    35    36    2
    17    35    34    1
    18    23    25    1
    19    23    24    1
    20    30    31    1
    21    32    31    1
    22    46    47    1
    23     1     2    1
    24    15    14    2
    25    34    33    1
    26    34    37    1
    27     4     3    2
    28    70    71    1
    29    47    48    1
    30    14    13    1
    31    39    37    1
    32     2     3    1
    33     2     5    1
    34     8    10   ar
    35     8     6   ar
    36    37    38    1
    37    73    72    2
    38    10    11   ar
    39    71    72    1
    40    71    74    1
    41     5     6    1
    42    17    16    1
    43    48    49    1
    44    72    78   am
    45     6     7   ar
    46    13    16    1
    47    13    12    1
    48    74    75    1
    49    75    76    1
    50    38    40    1
    51    11     9   ar
    52    78    79    1
    53    77    76    1
    54    79    82    1
    55    79    80    1
    56     7     9   ar
    57    82    83    1
    58    91    92    1
    59    91    88    1
    60    87    80   am
    61    87    88    1
    62    80    81    2
    63    83    84    1
    64    92    93   ar
    65    92    94   ar
    66    88    89    1
    67    93    95   ar
    68    50    51    1
    69    94    96   ar
    70    54    51    1
    71    54    55    1
    72    84    86   am
    73    84    85    2
    74    90    89    2
    75    52    51    1
    76    52    53    2
    77    56    55   ar
    78    95    97   ar
    79    89    98   am
    80    96    97   ar
    81    55    57   ar
    82    60    61    2
    83    60    59    1
    84    64    66   ar
    85    64    63   ar
    86    98    99    1
    87    66    68   ar
    88    62    59    1
    89    62    63    1
    90   160   159   ar
    91    59    58    1
    92    63    65   ar
    93   105   103    1
    94    99   100    1
    95    99   102    1
    96   161   159   ar
    97    68    69    1
    98    68    67   ar
    99   159   158    1
   100   100   101    2
   101   103   102    1
   102   155   158    1
   103   155   154    1
   104   155   156    1
   105    65    67   ar
   106   102   104    1
   107   154   148   am
   108   156   157    2
   109   153   151    1
   110   150   152    1
   111   150   151    1
   112   150   147    1
   113   148   147    1
   114   148   149    2
   115   106   107    1
   116   147   146    1
   117   109   108    2
   118   134   132    1
   119   111   110    1
   120   144   145   ar
   121   144   142   ar
   122   108   107    1
   123   107   110    1
   124   145   143   ar
   125   122   121    2
   126   126   124   ar
   127   132   133    1
   128   132   131    1
   129   118   117    1
   130   118   112    1
   131   142   140   ar
   132   123   124    1
   133   123   120    1
   134   117   116    1
   135   124   125   ar
   136   121   120    1
   137   143   141   ar
   138   116   113    1
   139   131   128    1
   140   120   119    1
   141   112   113    1
   142   140   141   ar
   143   140   139    1
   144   113   114    1
   145   139   136    1
   146   128   127    1
   147   128   129    1
   148   137   138    2
   149   137   136    1
   150   114   115    2
   151   129   130    2
   152   136   135    1
