@<TRIPOS>MOLECULE
tmp/4oytC02.pdb
 110 106 0 0 0
SMALL
GASTEIGER

@<TRIPOS>ATOM
      1  N         52.5830    4.1780   98.9300 N.3   124  LEU124     -0.1231
      2  CA        53.1210    5.5250   98.9950 C.3   124  LEU124      0.1693
      3  C         53.5650    5.9970   97.6150 C.2   124  LEU124      0.2592
      4  O         53.2750    7.1260   97.2080 O.2   124  LEU124     -0.2718
      5  CB        54.2710    5.5740  100.0020 C.3   124  LEU124      0.0284
      6  CG        54.6090    6.9300  100.6310 C.3   124  LEU124      0.0019
      7  CD1       54.8710    6.7370  102.1110 C.3   124  LEU124      0.0001
      8  CD2       55.7960    7.5990   99.9570 C.3   124  LEU124      0.0001
      9  N         54.2500    5.1120   96.8930 N.am  125  CYS125     -0.1956
     10  CA        54.7510    5.4010   95.5470 C.3   125  CYS125      0.1843
     11  C         53.6200    5.6630   94.5590 C.2   125  CYS125      0.2626
     12  O         53.8270    6.3270   93.5650 O.2   125  CYS125     -0.2714
     13  CB        55.6590    4.2690   95.0500 C.3   125  CYS125      0.0997
     14  SG        57.3050    4.2230   95.8260 S.3   125  CYS125     -0.0797
     15  N         52.4230    5.1570   94.8520 N.am  126  SER126     -0.1936
     16  CA        51.2390    5.4140   94.0220 C.3   126  SER126      0.2055
     17  C         50.4270    6.6190   94.4780 C.2   126  SER126      0.2643
     18  O         49.4470    6.9880   93.8140 O.2   126  SER126     -0.2714
     19  CB        50.3280    4.1770   93.9460 C.3   126  SER126      0.2130
     20  OG        50.9410    3.1290   93.2190 O.3   126  SER126     -0.2179
     21  N         50.7910    7.2170   95.6110 N.am  127  GLY127     -0.1954
     22  CA        50.0900    8.4230   96.0610 C.3   127  GLY127      0.1869
     23  C         49.4590    8.3340   97.4380 C.2   127  GLY127      0.2309
     24  O         48.8840    9.3160   97.9280 O.2   127  GLY127     -0.2863
     25  N         48.3700    2.1000   91.8980 N.3   155  CYS155     -0.1235
     26  CA        47.6330    2.6980   90.7790 C.3   155  CYS155      0.1677
     27  C         48.0720    1.9640   89.5040 C.2   155  CYS155      0.2270
     28  O         49.0990    1.2720   89.5140 O.2   155  CYS155     -0.2867
     29  CB        47.9010    4.2080   90.6880 C.3   155  CYS155      0.0956
     30  SG        49.6500    4.6350   90.4400 S.3   155  CYS155     -0.0801
     31  N         48.4910    5.8960   85.9050 N.3   159  GLY159     -0.1225
     32  CA        48.3680    6.6890   87.1410 C.3   159  GLY159      0.1811
     33  C         46.9980    6.8030   87.8090 C.2   159  GLY159      0.2280
     34  O         46.8290    7.5940   88.7230 O.2   159  GLY159     -0.2866
     35  N         49.0400   12.2690   97.0120 N.3   184  SER184     -0.1202
     36  CA        49.4660   12.7470   95.7130 C.3   184  SER184      0.2020
     37  C         48.6780   12.0830   94.6170 C.2   184  SER184      0.2619
     38  O         49.1330   11.1130   94.0390 O.2   184  SER184     -0.2717
     39  CB        50.9500   12.4630   95.4930 C.3   184  SER184      0.2103
     40  OG        51.3580   13.1320   94.3170 O.3   184  SER184     -0.2182
     41  N         47.4910   12.6040   94.3450 N.am  185  TYR185     -0.1962
     42  CA        46.5900   12.0180   93.3750 C.3   185  TYR185      0.1756
     43  C         45.8600   13.1580   92.7080 C.2   185  TYR185      0.2461
     44  O         45.1090   13.8930   93.3660 O.2   185  TYR185     -0.2730
     45  CB        45.6200   11.0460   94.0600 C.3   185  TYR185      0.0574
     46  CG        44.8950   10.1180   93.1050 C.ar  185  TYR185     -0.0198
     47  CD1       45.5730    9.0950   92.4440 C.ar  185  TYR185     -0.0009
     48  CD2       43.5320   10.2540   92.8760 C.ar  185  TYR185     -0.0009
     49  CE1       44.9180    8.2570   91.5570 C.ar  185  TYR185      0.0417
     50  CE2       42.8620    9.4090   92.0070 C.ar  185  TYR185      0.0417
     51  CZ        43.5610    8.4240   91.3460 C.ar  185  TYR185      0.1957
     52  OH        42.8990    7.5820   90.4940 O.3   185  TYR185     -0.2866
     53  N         46.1220   13.3540   91.4050 N.am  186  PRO186     -0.2727
     54  CA        45.5830   14.4660   90.6160 C.3   186  PRO186      0.1402
     55  C         44.1280   14.3150   90.1600 C.2   186  PRO186      0.2269
     56  O         43.5660   15.2650   89.5860 O.2   186  PRO186     -0.2865
     57  CB        46.4870   14.4890   89.3930 C.3   186  PRO186      0.0296
     58  CG        47.0040   13.0930   89.2740 C.3   186  PRO186      0.0237
     59  CD        47.1480   12.5970   90.6710 C.3   186  PRO186      0.0939
     60  N         50.9730   13.1630   84.6620 N.3   319  VAL319     -0.1231
     61  CA        50.4100   11.8360   84.9400 C.3   319  VAL319      0.1692
     62  C         48.8970   11.9440   84.9670 C.2   319  VAL319      0.2592
     63  O         48.3570   12.8360   85.6050 O.2   319  VAL319     -0.2718
     64  CB        50.9300   11.2280   86.2540 C.3   319  VAL319      0.0266
     65  CG1       50.5100    9.7740   86.3670 C.3   319  VAL319      0.0020
     66  CG2       52.4470   11.3200   86.3060 C.3   319  VAL319      0.0020
     67  N         48.2390   11.0420   84.2410 N.am  320  THR320     -0.1953
     68  CA        46.7900   11.0970   83.9300 C.3   320  THR320      0.1897
     69  C         46.4680   12.2170   82.9370 C.2   320  THR320      0.2313
     70  O         45.2970   12.5300   82.7160 O.2   320  THR320     -0.2863
     71  CB        45.8620   11.2210   85.1800 C.3   320  THR320      0.1794
     72  OG1       45.7670   12.5910   85.5960 O.3   320  THR320     -0.2208
     73  CG2       46.3310   10.3490   86.3460 C.3   320  THR320      0.0378
     74  N         50.9710   16.2010   88.7530 N.3   329  VAL329     -0.1245
     75  CA        52.2350   15.4850   88.8970 C.3   329  VAL329      0.1561
     76  C         52.8600   15.4690   87.5150 C.2   329  VAL329      0.2260
     77  O         52.2270   14.9960   86.5600 O.2   329  VAL329     -0.2867
     78  CB        52.0520   14.0480   89.4300 C.3   329  VAL329      0.0252
     79  CG1       53.3190   13.2110   89.2260 C.3   329  VAL329      0.0019
     80  CG2       51.6300   14.0590   90.8980 C.3   329  VAL329      0.0019
     81  N         58.2900   13.5330   93.0440 N.3   356  ASN356     -0.1225
     82  CA        57.1710   12.5770   93.1370 C.3   356  ASN356      0.1785
     83  C         57.4050   11.3660   92.2450 C.2   356  ASN356      0.2598
     84  O         57.9160   11.4850   91.1170 O.2   356  ASN356     -0.2718
     85  CB        55.8330   13.2550   92.7630 C.3   356  ASN356      0.1169
     86  CG        54.6270   12.5090   93.3010 C.2   356  ASN356      0.2627
     87  OD1       54.0710   12.8770   94.3250 O.2   356  ASN356     -0.2716
     88  ND2       54.2300   11.4370   92.6220 N.am  356  ASN356     -0.0877
     89  N         57.0300   10.1960   92.7360 N.am  357  THR357     -0.1939
     90  CA        57.1100    9.0150   91.9030 C.3   357  THR357      0.2028
     91  C         56.0280    9.0110   90.8040 C.2   357  THR357      0.2642
     92  O         54.9900    9.6720   90.9170 O.2   357  THR357     -0.2714
     93  CB        56.9710    7.7370   92.7320 C.3   357  THR357      0.1808
     94  OG1       55.9450    7.9360   93.7060 O.3   357  THR357     -0.2208
     95  CG2       58.2780    7.3910   93.4230 C.3   357  THR357      0.0379
     96  N         56.3090    8.2730   89.7340 N.am  358  ILE358     -0.1963
     97  CA        55.3650    8.0320   88.6580 C.3   358  ILE358      0.1712
     98  C         55.2290    6.5110   88.5370 C.2   358  ILE358      0.2458
     99  O         56.0920    5.7760   89.0390 O.2   358  ILE358     -0.2730
    100  CB        55.8280    8.6990   87.3450 C.3   358  ILE358      0.0289
    101  CG1       57.0120    7.9450   86.7340 C.3   358  ILE358      0.0022
    102  CG2       56.1190   10.1800   87.5760 C.3   358  ILE358      0.0023
    103  CD1       57.4860    8.5360   85.4330 C.3   358  ILE358      0.0001
    104  N         54.1410    6.0220   87.9090 N.am  359  PRO359     -0.2727
    105  CA        53.8800    4.5660   87.9680 C.3   359  PRO359      0.1402
    106  C         55.0460    3.6720   87.4990 C.2   359  PRO359      0.2269
    107  O         55.2690    2.6020   88.0660 O.2   359  PRO359     -0.2865
    108  CB        52.6320    4.3980   87.0870 C.3   359  PRO359      0.0296
    109  CG        51.9350    5.7190   87.1910 C.3   359  PRO359      0.0237
    110  CD        53.0450    6.7450   87.2420 C.3   359  PRO359      0.0939
@<TRIPOS>BOND
     1    70    69    2
     2    69    68    1
     3    68    67    1
     4    68    71    1
     5    67    62   am
     6    60    61    1
     7    61    62    1
     8    61    64    1
     9    62    63    2
    10    71    72    1
    11    71    73    1
    12   103   101    1
    13    31    32    1
    14    64    66    1
    15    64    65    1
    16    77    76    2
    17   101   100    1
    18   108   109    1
    19   108   105    1
    20    32    33    1
    21   109   110    1
    22   110   104    1
    23   100   102    1
    24   100    97    1
    25   106   105    1
    26   106   107    2
    27    76    75    1
    28    33    34    2
    29   104   105    1
    30   104    98   am
    31    98    97    1
    32    98    99    2
    33    97    96    1
    34    74    75    1
    35    75    78    1
    36    79    78    1
    37    58    57    1
    38    58    59    1
    39    57    54    1
    40    78    80    1
    41    27    28    2
    42    27    26    1
    43    56    55    2
    44    96    91   am
    45    55    54    1
    46    30    29    1
    47    52    51    1
    48    54    53    1
    49    59    53    1
    50    29    26    1
    51    26    25    1
    52    91    92    2
    53    91    90    1
    54    84    83    2
    55    51    49   ar
    56    51    50   ar
    57    53    43   am
    58    49    47   ar
    59    90    93    1
    60    90    89    1
    61    50    48   ar
    62    83    89   am
    63    83    82    1
    64    47    46   ar
    65    88    86   am
    66    43    44    2
    67    43    42    1
    68    93    95    1
    69    93    94    1
    70    85    82    1
    71    85    86    1
    72    48    46   ar
    73    81    82    1
    74    46    45    1
    75    20    19    1
    76    86    87    2
    77    42    45    1
    78    42    41    1
    79    12    11    2
    80    18    17    2
    81    19    16    1
    82    16    17    1
    83    16    15    1
    84    38    37    2
    85    40    39    1
    86    41    37   am
    87    17    21   am
    88    11    15   am
    89    11    10    1
    90    37    36    1
    91    13    10    1
    92    13    14    1
    93    39    36    1
    94    10     9    1
    95    21    22    1
    96    36    35    1
    97    22    23    1
    98     9     3   am
    99     4     3    2
   100    23    24    2
   101     3     2    1
   102     1     2    1
   103     2     5    1
   104     8     6    1
   105     5     6    1
   106     6     7    1
