@<TRIPOS>MOLECULE
tmp/4oytB02.pdb
 131 123 0 0 0
SMALL
GASTEIGER

@<TRIPOS>ATOM
      1  N         17.6970    6.3090   58.7240 N.3   124  LEU124     -0.1245
      2  CA        19.1400    6.1470   58.7040 C.3   124  LEU124      0.1561
      3  C         19.7650    6.3290   60.0800 C.2   124  LEU124      0.2260
      4  O         20.6140    5.5370   60.4930 O.2   124  LEU124     -0.2867
      5  CB        19.7690    7.1110   57.7030 C.3   124  LEU124      0.0270
      6  CG        21.1460    6.6680   57.2090 C.3   124  LEU124      0.0019
      7  CD1       21.3440    7.1540   55.7900 C.3   124  LEU124      0.0001
      8  CD2       22.2720    7.1400   58.1250 C.3   124  LEU124      0.0001
      9  N         19.3630    3.3770   62.1040 N.3   127  GLY127     -0.1210
     10  CA        20.0930    2.1940   61.6390 C.3   127  GLY127      0.1956
     11  C         19.6950    1.6320   60.2800 C.2   127  GLY127      0.2612
     12  O         20.2300    0.5950   59.8640 O.2   127  GLY127     -0.2717
     13  N         18.7610    2.3030   59.5920 N.am  128  GLY128     -0.1942
     14  CA        18.3920    1.9310   58.2250 C.3   128  GLY128      0.2014
     15  C         19.4290    2.3800   57.2050 C.2   128  GLY128      0.2639
     16  O         20.2550    3.2300   57.5050 O.2   128  GLY128     -0.2714
     17  N         19.4070    1.7630   56.0200 N.am  129  HIS129     -0.1959
     18  CA        20.2800    2.1380   54.9130 C.3   129  HIS129      0.1787
     19  C         19.6340    3.2140   54.1250 C.2   129  HIS129      0.2620
     20  O         18.4220    3.4320   54.2320 O.2   129  HIS129     -0.2715
     21  CB        20.5580    0.9500   53.9940 C.3   129  HIS129      0.0785
     22  CG        21.5450    1.2630   52.8860 C.ar  129  HIS129      0.0821
     23  ND1       21.1610    1.5650   51.6290 N.ar  129  HIS129     -0.2267
     24  CD2       22.9300    1.3570   52.9020 C.ar  129  HIS129      0.1154
     25  CE1       22.2450    1.8240   50.8750 C.ar  129  HIS129      0.1986
     26  NE2       23.3260    1.6970   51.6520 N.ar  129  HIS129     -0.2212
     27  N         20.4410    3.8990   53.3240 N.am  130  LEU130     -0.1977
     28  CA        19.9710    4.9650   52.4360 C.3   130  LEU130      0.1596
     29  C         18.8510    4.5130   51.5160 C.2   130  LEU130      0.2287
     30  O         17.8620    5.2120   51.3680 O.2   130  LEU130     -0.2864
     31  CB        21.1200    5.4710   51.5740 C.3   130  LEU130      0.0297
     32  CG        22.0950    6.4330   52.2180 C.3   130  LEU130      0.0022
     33  CD1       23.3550    6.4120   51.3770 C.3   130  LEU130      0.0001
     34  CD2       21.4880    7.8430   52.2780 C.3   130  LEU130      0.0001
     35  N         15.3870    6.8950   52.5040 N.3   134  PHE134     -0.1241
     36  CA        15.8950    7.9950   53.3090 C.3   134  PHE134      0.1605
     37  C         15.7510    9.4050   52.7070 C.2   134  PHE134      0.2264
     38  O         16.0340    9.6290   51.5230 O.2   134  PHE134     -0.2867
     39  CB        17.3510    7.7460   53.7320 C.3   134  PHE134      0.0534
     40  CG        17.8950    8.8230   54.6230 C.ar  134  PHE134     -0.0203
     41  CD1       17.3920    8.9960   55.9200 C.ar  134  PHE134     -0.0042
     42  CD2       18.8570    9.7230   54.1520 C.ar  134  PHE134     -0.0042
     43  CE1       17.8750   10.0190   56.7410 C.ar  134  PHE134     -0.0003
     44  CE2       19.3380   10.7410   54.9660 C.ar  134  PHE134     -0.0003
     45  CZ        18.8480   10.8960   56.2630 C.ar  134  PHE134     -0.0000
     46  N         15.7130   13.8710   54.3660 N.3   136  ASP136     -0.1239
     47  CA        15.5440   14.8090   55.4670 C.3   136  ASP136      0.1674
     48  C         14.6170   15.9490   55.0510 C.2   136  ASP136      0.2266
     49  O         14.0830   15.9440   53.9420 O.2   136  ASP136     -0.2867
     50  CB        16.8920   15.2860   56.0500 C.3   136  ASP136      0.1410
     51  CG        17.5930   16.3200   55.1820 C.2   136  ASP136      0.3668
     52  OD1       16.9320   17.2550   54.6790 O.co2 136  ASP136     -0.2456
     53  OD2       18.8290   16.2150   55.0320 O.co2 136  ASP136     -0.2456
     54  N         15.6250   17.7280   51.6120 N.3   139  LYS139     -0.1245
     55  CA        16.1000   16.9700   50.4520 C.3   139  LYS139      0.1561
     56  C         15.6940   15.4990   50.4310 C.2   139  LYS139      0.2260
     57  O         15.8470   14.7840   51.4190 O.2   139  LYS139     -0.2867
     58  CB        17.6300   17.0820   50.3180 C.3   139  LYS139      0.0271
     59  CG        18.1630   16.7410   48.9320 C.3   139  LYS139      0.0035
     60  CD        19.6430   17.0640   48.7880 C.3   139  LYS139      0.0206
     61  CE        20.3130   16.2170   47.7100 C.3   139  LYS139      0.1093
     62  NZ        19.5080   16.0580   46.4620 N.3   139  LYS139     -0.1314
     63  N         17.0830   12.5450   49.7050 N.3   141  VAL141     -0.1245
     64  CA        18.5150   12.2190   49.6830 C.3   141  VAL141      0.1561
     65  C         18.8260   10.9530   48.8640 C.2   141  VAL141      0.2260
     66  O         19.8250   10.8940   48.1380 O.2   141  VAL141     -0.2867
     67  CB        19.0540   12.0920   51.1310 C.3   141  VAL141      0.0252
     68  CG1       20.4970   11.5900   51.1780 C.3   141  VAL141      0.0019
     69  CG2       18.9090   13.4200   51.8660 C.3   141  VAL141      0.0019
     70  N         21.4760   -1.4030   58.5890 N.3   183  THR183     -0.1203
     71  CA        22.8650   -1.0700   58.3660 C.3   183  THR183      0.1994
     72  C         23.6070   -1.0860   59.6990 C.2   183  THR183      0.2618
     73  O         24.7050   -1.6550   59.8000 O.2   183  THR183     -0.2717
     74  CB        22.9800    0.2810   57.6530 C.3   183  THR183      0.1784
     75  OG1       22.5320    0.1220   56.3030 O.3   183  THR183     -0.2211
     76  CG2       24.4050    0.7740   57.6400 C.3   183  THR183      0.0376
     77  N         22.9940   -0.4920   60.7230 N.am  184  SER184     -0.1951
     78  CA        23.6260   -0.4280   62.0310 C.3   184  SER184      0.1924
     79  C         22.6390   -0.7520   63.1020 C.2   184  SER184      0.2314
     80  O         22.1100    0.1400   63.7470 O.2   184  SER184     -0.2863
     81  CB        24.2260    0.9540   62.2910 C.3   184  SER184      0.2116
     82  OG        24.9590    0.9190   63.5010 O.3   184  SER184     -0.2180
     83  N         33.6590    3.7740   62.5010 N.3   354  ASN354     -0.1225
     84  CA        32.9570    4.9570   62.0320 C.3   354  ASN354      0.1785
     85  C         31.9680    5.4300   63.0680 C.2   354  ASN354      0.2597
     86  O         31.5100    4.6510   63.9050 O.2   354  ASN354     -0.2718
     87  CB        32.2600    4.7310   60.6830 C.3   354  ASN354      0.1169
     88  CG        31.2420    3.6100   60.7220 C.2   354  ASN354      0.2627
     89  OD1       31.5930    2.4400   60.5760 O.2   354  ASN354     -0.2716
     90  ND2       29.9740    3.9600   60.9420 N.am  354  ASN354     -0.0877
     91  N         31.6610    6.7160   63.0050 N.am  355  LYS355     -0.1966
     92  CA        30.7240    7.3410   63.9060 C.3   355  LYS355      0.1728
     93  C         29.3180    6.8150   63.6290 C.2   355  LYS355      0.2616
     94  O         28.9840    6.4230   62.4970 O.2   355  LYS355     -0.2715
     95  CB        30.7820    8.8730   63.7460 C.3   355  LYS355      0.0311
     96  CG        30.7290    9.3370   62.2930 C.3   355  LYS355      0.0038
     97  CD        30.6090   10.8330   62.1550 C.3   355  LYS355      0.0206
     98  CE        30.1330   11.2140   60.7640 C.3   355  LYS355      0.1093
     99  NZ        30.1960   12.6960   60.5690 N.3   355  LYS355     -0.1314
    100  N         28.4930    6.8200   64.6670 N.am  356  ASN356     -0.1972
    101  CA        27.1450    6.3040   64.5730 C.3   356  ASN356      0.1688
    102  C         26.1690    7.1460   65.3960 C.2   356  ASN356      0.2292
    103  O         26.4980    7.6190   66.4820 O.2   356  ASN356     -0.2864
    104  CB        27.1240    4.8380   65.0360 C.3   356  ASN356      0.1181
    105  CG        26.0310    4.0360   64.3670 C.2   356  ASN356      0.2629
    106  OD1       24.8560    4.2990   64.5570 O.2   356  ASN356     -0.2716
    107  ND2       26.4130    3.0650   63.5780 N.am  356  ASN356     -0.0877
    108  N         22.7730   13.8390   62.3140 N.3   364  CYS364     -0.1221
    109  CA        23.8520   12.9820   61.8060 C.3   364  CYS364      0.1808
    110  C         25.2470   13.6100   61.8290 C.2   364  CYS364      0.2601
    111  O         26.2510   12.9130   61.6630 O.2   364  CYS364     -0.2717
    112  CB        23.5320   12.5040   60.3900 C.3   364  CYS364      0.0970
    113  SG        22.9610   10.7980   60.3420 S.3   364  CYS364     -0.0800
    114  N         25.3100   14.9270   61.9990 N.am  365  VAL365     -0.1979
    115  CA        26.5880   15.6120   62.1620 C.3   365  VAL365      0.1595
    116  C         26.9030   15.6330   63.6490 C.2   365  VAL365      0.2287
    117  O         26.0680   16.0290   64.4720 O.2   365  VAL365     -0.2864
    118  CB        26.5660   17.0420   61.5760 C.3   365  VAL365      0.0276
    119  CG1       27.8590   17.7900   61.9030 C.3   365  VAL365      0.0022
    120  CG2       26.3520   16.9900   60.0660 C.3   365  VAL365      0.0022
    121  N         30.2960    2.7950   65.5210 N.3   371  ARG371     -0.1245
    122  CA        29.9530    1.4330   65.2070 C.3   371  ARG371      0.1563
    123  C         31.2030    0.5820   65.0620 C.2   371  ARG371      0.2260
    124  O         32.1680    0.9940   64.4190 O.2   371  ARG371     -0.2867
    125  CB        29.1160    1.3970   63.9250 C.3   371  ARG371      0.0307
    126  CG        28.5720    0.0320   63.5440 C.3   371  ARG371      0.0489
    127  CD        27.8740    0.1360   62.2060 C.3   371  ARG371      0.2205
    128  NE        28.8320    0.3430   61.1300 N.pl3 371  ARG371     -0.0865
    129  CZ        28.5430    0.3160   59.8340 C.cat 371  ARG371      0.5346
    130  NH1       27.2920    0.0860   59.4200 N.pl3 371  ARG371      0.1354
    131  NH2       29.5200    0.5180   58.9510 N.pl3 371  ARG371      0.1354
@<TRIPOS>BOND
     1    62    61    1
     2    61    60    1
     3    66    65    2
     4    60    59    1
     5    65    64    1
     6    59    58    1
     7    64    63    1
     8    64    67    1
     9    58    55    1
    10    56    55    1
    11    56    57    2
    12    55    54    1
    13    25    23   ar
    14    25    26   ar
    15    67    68    1
    16    67    69    1
    17    30    29    2
    18    33    32    1
    19    29    28    1
    20    38    37    2
    21    31    32    1
    22    31    28    1
    23    23    22   ar
    24    26    24   ar
    25    32    34    1
    26    28    27    1
    27    35    36    1
    28    37    36    1
    29    22    24   ar
    30    22    21    1
    31    36    39    1
    32    27    19   am
    33    39    40    1
    34    49    48    2
    35    21    18    1
    36    19    20    2
    37    19    18    1
    38    42    40   ar
    39    42    44   ar
    40    46    47    1
    41    40    41   ar
    42    52    51   ar
    43    18    17    1
    44    44    45   ar
    45    53    51   ar
    46    48    47    1
    47    51    50    1
    48    47    50    1
    49     7     6    1
    50    41    43   ar
    51    17    15   am
    52    45    43   ar
    53    75    74    1
    54    15    16    2
    55    15    14    1
    56     6     5    1
    57     6     8    1
    58    76    74    1
    59    74    71    1
    60     5     2    1
    61    14    13    1
    62    71    70    1
    63    71    72    1
    64     2     1    1
    65     2     3    1
    66   131   129    1
    67   130   129    1
    68    13    11   am
    69    72    73    2
    70    72    77   am
    71   129   128    2
    72    12    11    2
    73   120   118    1
    74     3     4    2
    75    11    10    1
    76   113   112    1
    77   112   109    1
    78    99    98    1
    79    89    88    2
    80    87    88    1
    81    87    84    1
    82    88    90   am
    83    77    78    1
    84    98    97    1
    85   128   127    1
    86   118   119    1
    87   118   115    1
    88    10     9    1
    89   111   110    2
    90   109   110    1
    91   109   108    1
    92   110   114   am
    93   114   115    1
    94    78    81    1
    95    78    79    1
    96    84    83    1
    97    84    85    1
    98    97    96    1
    99   115   116    1
   100   127   126    1
   101    81    82    1
   102    96    95    1
   103    94    93    2
   104    91    85   am
   105    91    92    1
   106    85    86    2
   107    79    80    2
   108   126   125    1
   109   107   105   am
   110    93    92    1
   111    93   100   am
   112   116   117    2
   113    95    92    1
   114   125   122    1
   115   105   106    2
   116   105   104    1
   117   124   123    2
   118   101   100    1
   119   101   104    1
   120   101   102    1
   121   123   122    1
   122   122   121    1
   123   102   103    2
