@<TRIPOS>MOLECULE
tmp/4oyvA00.pdb
 138 130 0 0 0
SMALL
GASTEIGER

@<TRIPOS>ATOM
      1  N        -13.2970  -15.0840    2.7910 N.3    18  ARG18      -0.1245
      2  CA       -13.7560  -15.5880    4.0890 C.3    18  ARG18       0.1563
      3  C        -15.2220  -15.2430    4.2310 C.2    18  ARG18       0.2260
      4  O        -15.6960  -14.2760    3.6260 O.2    18  ARG18      -0.2867
      5  CB       -13.0070  -14.8890    5.2320 C.3    18  ARG18       0.0307
      6  CG       -11.5200  -15.1660    5.3180 C.3    18  ARG18       0.0489
      7  CD       -10.7920  -13.9490    5.8680 C.3    18  ARG18       0.2205
      8  NE       -11.2770  -13.6230    7.2050 N.pl3  18  ARG18      -0.0865
      9  CZ       -11.3110  -12.4010    7.7480 C.cat  18  ARG18       0.5346
     10  NH1      -10.8970  -11.3160    7.0780 N.pl3  18  ARG18       0.1354
     11  NH2      -11.7760  -12.2580    8.9790 N.pl3  18  ARG18       0.1354
     12  N         -8.3970  -20.3630    6.8830 N.3    58  LEU58      -0.1245
     13  CA        -7.4200  -19.7390    5.9930 C.3    58  LEU58       0.1561
     14  C         -6.4050  -20.7060    5.3310 C.2    58  LEU58       0.2260
     15  O         -5.9420  -20.4220    4.2350 O.2    58  LEU58      -0.2867
     16  CB        -6.6890  -18.5870    6.6820 C.3    58  LEU58       0.0270
     17  CG        -7.4470  -17.6090    7.6020 C.3    58  LEU58       0.0019
     18  CD1       -6.4400  -16.8360    8.4240 C.3    58  LEU58       0.0001
     19  CD2       -8.3810  -16.6540    6.8600 C.3    58  LEU58       0.0001
     20  N         -6.1100  -20.6520    1.2650 N.3    62  TYR62      -0.1241
     21  CA        -4.8810  -20.6410    0.4630 C.3    62  TYR62       0.1605
     22  C         -4.7550  -21.8840   -0.4580 C.2    62  TYR62       0.2264
     23  O         -4.2640  -21.7950   -1.6170 O.2    62  TYR62      -0.2867
     24  CB        -3.6430  -20.3860    1.3210 C.3    62  TYR62       0.0534
     25  CG        -3.3950  -18.9240    1.7020 C.ar   62  TYR62      -0.0201
     26  CD1       -2.8660  -18.0180    0.7730 C.ar   62  TYR62      -0.0009
     27  CD2       -3.6560  -18.4510    2.9940 C.ar   62  TYR62      -0.0009
     28  CE1       -2.6200  -16.6990    1.1160 C.ar   62  TYR62       0.0417
     29  CE2       -3.4170  -17.1220    3.3380 C.ar   62  TYR62       0.0417
     30  CZ        -2.9050  -16.2620    2.3990 C.ar   62  TYR62       0.1957
     31  OH        -2.6320  -14.9730    2.7090 O.3    62  TYR62      -0.2866
     32  N         -8.9590   -9.4600    3.2930 N.3    77  GLY77      -0.1210
     33  CA        -8.1460   -8.8140    4.3160 C.3    77  GLY77       0.1956
     34  C         -6.9020   -9.6120    4.7150 C.2    77  GLY77       0.2612
     35  O         -6.5110   -9.6350    5.8880 O.2    77  GLY77      -0.2717
     36  N         -6.2800  -10.2890    3.7600 N.am   78  LEU78      -0.1965
     37  CA        -5.0220  -10.9440    4.0070 C.3    78  LEU78       0.1728
     38  C         -3.9040   -9.9180    4.0660 C.2    78  LEU78       0.2616
     39  O         -3.9360   -8.8900    3.3950 O.2    78  LEU78      -0.2715
     40  CB        -4.7480  -11.9790    2.9020 C.3    78  LEU78       0.0311
     41  CG        -5.9740  -12.8380    2.5980 C.3    78  LEU78       0.0022
     42  CD1       -5.7820  -13.6400    1.3360 C.3    78  LEU78       0.0001
     43  CD2       -6.3330  -13.7170    3.7760 C.3    78  LEU78       0.0001
     44  N         -2.9270  -10.1810    4.9090 N.am   79  THR79      -0.1951
     45  CA        -1.7660   -9.3190    4.9710 C.3    79  THR79       0.1897
     46  C         -0.5770  -10.2320    4.6100 C.2    79  THR79       0.2313
     47  O         -0.5660  -11.3850    5.0050 O.2    79  THR79      -0.2863
     48  CB        -1.7300   -8.5740    6.3320 C.3    79  THR79       0.1794
     49  OG1       -1.2090   -7.2400    6.1600 O.3    79  THR79      -0.2208
     50  CG2       -0.9730   -9.3340    7.3880 C.3    79  THR79       0.0378
     51  N         -6.2590  -17.2430   18.3710 N.3   123  VAL123     -0.1231
     52  CA        -5.9350  -16.7100   17.0960 C.3   123  VAL123      0.1692
     53  C         -6.3480  -17.7320   16.0340 C.2   123  VAL123      0.2591
     54  O         -6.5200  -18.9350   16.3340 O.2   123  VAL123     -0.2718
     55  CB        -4.4260  -16.3840   17.0560 C.3   123  VAL123      0.0266
     56  CG1       -3.5730  -17.6380   16.9140 C.3   123  VAL123      0.0020
     57  CG2       -4.1270  -15.3680   15.9750 C.3   123  VAL123      0.0020
     58  N         -6.5280  -17.2360   14.8050 N.am  124  LEU124     -0.1980
     59  CA        -6.8350  -18.0790   13.6630 C.3   124  LEU124      0.1596
     60  C         -5.6080  -18.8420   13.1640 C.2   124  LEU124      0.2287
     61  O         -4.5700  -18.2630   12.8280 O.2   124  LEU124     -0.2864
     62  CB        -7.4590  -17.2370   12.5310 C.3   124  LEU124      0.0297
     63  CG        -8.6240  -16.3160   12.9280 C.3   124  LEU124      0.0022
     64  CD1       -9.4820  -15.9450   11.7350 C.3   124  LEU124      0.0001
     65  CD2       -9.4880  -16.9910   13.9680 C.3   124  LEU124      0.0001
     66  N         -3.2790  -20.3080   10.5900 N.3   126  GLY126     -0.1210
     67  CA        -2.9920  -19.8950    9.2070 C.3   126  GLY126      0.1956
     68  C         -2.9420  -18.3960    9.0240 C.2   126  GLY126      0.2613
     69  O         -2.7020  -17.9010    7.9280 O.2   126  GLY126     -0.2717
     70  N         -3.1300  -17.6590   10.1130 N.am  127  SER127     -0.1938
     71  CA        -3.1370  -16.2000   10.0350 C.3   127  SER127      0.2055
     72  C         -1.7300  -15.6380   10.1450 C.2   127  SER127      0.2644
     73  O         -0.8880  -16.2500   10.7660 O.2   127  SER127     -0.2714
     74  CB        -4.0030  -15.6220   11.1680 C.3   127  SER127      0.2130
     75  OG        -3.4780  -15.9620   12.4440 O.3   127  SER127     -0.2179
     76  N         -1.5030  -14.4470    9.5890 N.am  128  SER128     -0.1935
     77  CA        -0.3130  -13.6600    9.9170 C.3   128  SER128      0.2055
     78  C         -0.2170  -13.4930   11.4190 C.2   128  SER128      0.2643
     79  O          0.8830  -13.4040   11.9710 O.2   128  SER128     -0.2714
     80  CB        -0.3150  -12.2590    9.2460 C.3   128  SER128      0.2130
     81  OG        -1.3280  -11.3750    9.7380 O.3   128  SER128     -0.2179
     82  N         -1.3690  -13.4020   12.0800 N.am  129  HIS129     -0.1973
     83  CA        -1.3510  -13.1360   13.5190 C.3   129  HIS129      0.1656
     84  C         -0.6990  -14.3250   14.2590 C.2   129  HIS129      0.2291
     85  O          0.1900  -14.1360   15.0690 O.2   129  HIS129     -0.2864
     86  CB        -2.7490  -12.7630   14.0150 C.3   129  HIS129      0.0771
     87  CG        -3.2800  -11.5400   13.3400 C.ar  129  HIS129      0.0820
     88  ND1       -4.4680  -11.5200   12.6510 N.ar  129  HIS129     -0.2267
     89  CD2       -2.7380  -10.3050   13.1980 C.ar  129  HIS129      0.1154
     90  CE1       -4.6360  -10.3260   12.1150 C.ar  129  HIS129      0.1986
     91  NE2       -3.6030   -9.5680   12.4350 N.ar  129  HIS129     -0.2212
     92  N        -12.6960  -14.1650   13.1030 N.3   153  VAL153     -0.1245
     93  CA       -12.3360  -12.9500   13.8630 C.3   153  VAL153      0.1561
     94  C        -13.4630  -12.4920   14.8040 C.2   153  VAL153      0.2260
     95  O        -13.2150  -12.1520   15.9600 O.2   153  VAL153     -0.2867
     96  CB       -11.9280  -11.7830   12.9140 C.3   153  VAL153      0.0252
     97  CG1      -11.8150  -10.4570   13.6730 C.3   153  VAL153      0.0019
     98  CG2      -10.6460  -12.1060   12.1370 C.3   153  VAL153      0.0019
     99  N        -13.3820  -14.6180   17.9620 N.3   156  LEU156     -0.1245
    100  CA       -12.2540  -14.2420   18.8310 C.3   156  LEU156      0.1561
    101  C        -12.5260  -13.0120   19.7100 C.2   156  LEU156      0.2260
    102  O        -12.0500  -12.9370   20.8380 O.2   156  LEU156     -0.2867
    103  CB       -11.0170  -13.9210   17.9850 C.3   156  LEU156      0.0270
    104  CG       -10.4830  -14.9720   17.0160 C.3   156  LEU156      0.0019
    105  CD1       -9.2280  -14.3590   16.3760 C.3   156  LEU156      0.0001
    106  CD2      -10.1810  -16.2510   17.7800 C.3   156  LEU156      0.0001
    107  N         -5.1760  -11.3110   18.9090 N.3   169  LEU169     -0.1231
    108  CA        -4.4660  -10.4340   17.9650 C.3   169  LEU169      0.1693
    109  C         -5.3080  -10.3330   16.6930 C.2   169  LEU169      0.2592
    110  O         -5.7110  -11.3680   16.1200 O.2   169  LEU169     -0.2718
    111  CB        -3.0540  -10.9760   17.6780 C.3   169  LEU169      0.0284
    112  CG        -2.0390  -10.2030   16.8030 C.3   169  LEU169      0.0019
    113  CD1       -2.0180   -8.6730   17.1070 C.3   169  LEU169      0.0001
    114  CD2       -0.6590  -10.8460   16.9240 C.3   169  LEU169      0.0001
    115  N         -5.6450   -9.1050   16.3060 N.am  170  VAL170     -0.1966
    116  CA        -6.4570   -8.8370   15.1020 C.3   170  VAL170      0.1727
    117  C         -6.0460   -7.4950   14.5000 C.2   170  VAL170      0.2616
    118  O         -5.5170   -6.6100   15.1940 O.2   170  VAL170     -0.2715
    119  CB        -8.0250   -8.8840   15.3220 C.3   170  VAL170      0.0290
    120  CG1       -8.4920  -10.2010   15.9380 C.3   170  VAL170      0.0023
    121  CG2       -8.5650   -7.7080   16.1120 C.3   170  VAL170      0.0023
    122  N         -6.3000   -7.3380   13.2160 N.am  171  ASP171     -0.1971
    123  CA        -5.9830   -6.0940   12.5040 C.3   171  ASP171      0.1709
    124  C         -6.9490   -5.0190   12.9620 C.2   171  ASP171      0.2293
    125  O         -8.1140   -5.2950   13.1940 O.2   171  ASP171     -0.2864
    126  CB        -6.1370   -6.3120   11.0010 C.3   171  ASP171      0.1436
    127  CG        -5.1940   -7.3820   10.4460 C.2   171  ASP171      0.3671
    128  OD1       -4.0180   -7.4900   10.8840 O.co2 171  ASP171     -0.2456
    129  OD2       -5.6250   -8.1170    9.5350 O.co2 171  ASP171     -0.2456
    130  N        -10.7220   -4.3610   11.4020 N.3   174  GLU174     -0.1245
    131  CA       -11.8010   -5.2790   11.7820 C.3   174  GLU174      0.1567
    132  C        -12.1480   -5.1810   13.2500 C.2   174  GLU174      0.2260
    133  O        -13.2730   -5.4930   13.6530 O.2   174  GLU174     -0.2867
    134  CB       -11.4410   -6.7150   11.4140 C.3   174  GLU174      0.0388
    135  CG       -11.0900   -6.8240    9.9330 C.3   174  GLU174      0.1160
    136  CD       -11.3650   -8.1960    9.3320 C.2   174  GLU174      0.3649
    137  OE1      -11.7430   -9.1260   10.0790 O.co2 174  GLU174     -0.2457
    138  OE2      -11.1990   -8.3320    8.0980 O.co2 174  GLU174     -0.2457
@<TRIPOS>BOND
     1    23    22    2
     2    22    21    1
     3    21    20    1
     4    21    24    1
     5    26    28   ar
     6    26    25   ar
     7    28    30   ar
     8    24    25    1
     9    42    41    1
    10    25    27   ar
    11    30    31    1
    12    30    29   ar
    13    41    40    1
    14    41    43    1
    15     1     2    1
    16    40    37    1
    17    27    29   ar
    18    32    33    1
    19    39    38    2
    20     4     3    2
    21    36    37    1
    22    36    34   am
    23    37    38    1
    24    38    44   am
    25     2     3    1
    26     2     5    1
    27    15    14    2
    28    33    34    1
    29    46    45    1
    30    46    47    2
    31    34    35    2
    32    44    45    1
    33    45    48    1
    34     5     6    1
    35     6     7    1
    36    14    13    1
    37     7     8    1
    38    13    16    1
    39    13    12    1
    40    49    48    1
    41    48    50    1
    42    16    17    1
    43    19    17    1
    44    10     9    1
    45     8     9    2
    46    17    18    1
    47     9    11    1
    48    69    68    2
    49   138   136   ar
    50    68    67    1
    51    68    70   am
    52    67    66    1
    53    80    81    1
    54    80    77    1
    55   136   135    1
    56   136   137   ar
    57   129   127   ar
    58    76    77    1
    59    76    72   am
    60    77    78    1
    61   135   134    1
    62    71    70    1
    63    71    72    1
    64    71    74    1
    65    72    73    2
    66   127   128   ar
    67   127   126    1
    68   126   123    1
    69    74    75    1
    70   130   131    1
    71   134   131    1
    72    78    79    2
    73    78    82   am
    74    64    63    1
    75   131   132    1
    76    82    83    1
    77    90    91   ar
    78    90    88   ar
    79    98    96    1
    80    91    89   ar
    81   123   124    1
    82   123   122    1
    83    62    63    1
    84    62    59    1
    85    88    87   ar
    86    61    60    2
    87    96    97    1
    88    96    93    1
    89    63    65    1
    90   124   125    2
    91    92    93    1
    92    60    59    1
    93    89    87   ar
    94   122   117   am
    95   132   133    2
    96    87    86    1
    97    83    86    1
    98    83    84    1
    99    59    58    1
   100    93    94    1
   101    84    85    2
   102   117   116    1
   103   117   118    2
   104    94    95    2
   105    58    53   am
   106   116   119    1
   107   116   115    1
   108   119   120    1
   109   119   121    1
   110    57    55    1
   111    53    54    2
   112    53    52    1
   113   110   109    2
   114   115   109   am
   115   105   104    1
   116   109   108    1
   117   112   114    1
   118   112   113    1
   119   112   111    1
   120    56    55    1
   121   104   106    1
   122   104   103    1
   123    55    52    1
   124    52    51    1
   125   111   108    1
   126    99   100    1
   127   108   107    1
   128   103   100    1
   129   100   101    1
   130   101   102    2
