@<TRIPOS>MOLECULE
tmp/4oz2A00.pdb
 112 106 0 0 0
SMALL
GASTEIGER

@<TRIPOS>ATOM
      1  N         23.2890   28.5630   -4.0410 N.3    97  ALA97      -0.1231
      2  CA        22.7010   28.9490   -5.3310 C.3    97  ALA97       0.1694
      3  C         22.6880   30.4630   -5.3650 C.2    97  ALA97       0.2592
      4  O         21.8090   31.0870   -4.7800 O.2    97  ALA97      -0.2718
      5  CB        21.2850   28.3940   -5.4480 C.3    97  ALA97       0.0304
      6  N         23.6750   31.0250   -6.0370 N.am   98  GLY98      -0.1957
      7  CA        23.9510   32.4520   -6.0790 C.3    98  GLY98       0.1869
      8  C         24.4220   33.0410   -4.7590 C.2    98  GLY98       0.2309
      9  O         25.5160   32.7390   -4.2670 O.2    98  GLY98      -0.2863
     10  N         17.5760   26.4170  -18.5330 N.3   295  PHE295     -0.1241
     11  CA        17.0040   26.1230  -17.2260 C.3   295  PHE295      0.1605
     12  C         15.8300   25.1910  -17.4800 C.2   295  PHE295      0.2264
     13  O         14.8180   25.6120  -18.0440 O.2   295  PHE295     -0.2867
     14  CB        16.6210   27.4070  -16.4670 C.3   295  PHE295      0.0534
     15  CG        17.0220   27.4340  -15.0000 C.ar  295  PHE295     -0.0203
     16  CD1       16.8750   26.3000  -14.1940 C.ar  295  PHE295     -0.0042
     17  CD2       17.5410   28.5960  -14.4220 C.ar  295  PHE295     -0.0042
     18  CE1       17.2430   26.3280  -12.8510 C.ar  295  PHE295     -0.0003
     19  CE2       17.8830   28.6350  -13.0790 C.ar  295  PHE295     -0.0003
     20  CZ        17.7420   27.5020  -12.2990 C.ar  295  PHE295     -0.0000
     21  N         23.6690   23.1340  -11.2470 N.3   333  LYS333     -0.1245
     22  CA        22.8930   22.8290  -10.0420 C.3   333  LYS333      0.1561
     23  C         21.6460   22.0880  -10.4410 C.2   333  LYS333      0.2260
     24  O         21.1760   22.2080  -11.5690 O.2   333  LYS333     -0.2867
     25  CB        22.3870   24.1100   -9.3190 C.3   333  LYS333      0.0271
     26  CG        23.4170   25.0690   -8.7700 C.3   333  LYS333      0.0035
     27  CD        24.1120   24.6500   -7.4850 C.3   333  LYS333      0.0206
     28  CE        25.3440   25.5330   -7.4520 C.3   333  LYS333      0.1093
     29  NZ        26.3540   25.0840   -6.4860 N.3   333  LYS333     -0.1314
     30  N         17.8800   21.2590   -8.1540 N.3   335  PHE335     -0.1241
     31  CA        17.1420   21.5430   -6.9130 C.3   335  PHE335      0.1605
     32  C         15.6750   21.3930   -7.2080 C.2   335  PHE335      0.2264
     33  O         15.3030   21.3660   -8.3770 O.2   335  PHE335     -0.2867
     34  CB        17.4550   22.9630   -6.3410 C.3   335  PHE335      0.0534
     35  CG        17.2690   24.0650   -7.3530 C.ar  335  PHE335     -0.0203
     36  CD1       16.0490   24.7270   -7.4670 C.ar  335  PHE335     -0.0042
     37  CD2       18.3150   24.4440   -8.1940 C.ar  335  PHE335     -0.0042
     38  CE1       15.8700   25.7470   -8.4180 C.ar  335  PHE335     -0.0003
     39  CE2       18.1390   25.4540   -9.1390 C.ar  335  PHE335     -0.0003
     40  CZ        16.9140   26.1020   -9.2460 C.ar  335  PHE335     -0.0000
     41  N         11.8700   23.0280   -7.1650 N.3   337  PHE337     -0.1241
     42  CA        11.2210   24.3320   -7.3760 C.3   337  PHE337      0.1605
     43  C          9.7320   24.1420   -7.7710 C.2   337  PHE337      0.2264
     44  O          9.4290   23.7240   -8.9030 O.2   337  PHE337     -0.2867
     45  CB        11.9910   25.1400   -8.4430 C.3   337  PHE337      0.0534
     46  CG        11.7260   26.6270   -8.5320 C.ar  337  PHE337     -0.0203
     47  CD1       10.9120   27.2700   -7.5960 C.ar  337  PHE337     -0.0042
     48  CD2       12.2990   27.3910   -9.5450 C.ar  337  PHE337     -0.0042
     49  CE1       10.6740   28.6480   -7.6770 C.ar  337  PHE337     -0.0003
     50  CE2       12.0620   28.7680   -9.6250 C.ar  337  PHE337     -0.0003
     51  CZ        11.2500   29.3880   -8.6890 C.ar  337  PHE337     -0.0000
     52  N         19.8650   23.5810  -13.6820 N.3   344  LEU344     -0.1245
     53  CA        20.4950   24.7860  -14.1530 C.3   344  LEU344      0.1561
     54  C         21.6340   24.3450  -15.0730 C.2   344  LEU344      0.2260
     55  O         22.6750   23.9070  -14.5940 O.2   344  LEU344     -0.2867
     56  CB        20.9800   25.6670  -12.9650 C.3   344  LEU344      0.0270
     57  CG        21.2540   27.1840  -13.2110 C.3   344  LEU344      0.0019
     58  CD1       21.6920   27.8880  -11.9290 C.3   344  LEU344      0.0001
     59  CD2       22.2850   27.4490  -14.2970 C.3   344  LEU344      0.0001
     60  N         29.3240   28.5120   -8.5980 N.3   404  THR404     -0.1203
     61  CA        27.9770   28.9950   -8.8210 C.3   404  THR404      0.1994
     62  C         27.9820   30.0270   -9.9640 C.2   404  THR404      0.2618
     63  O         29.0260   30.6020  -10.3240 O.2   404  THR404     -0.2717
     64  CB        27.3920   29.6820   -7.5300 C.3   404  THR404      0.1784
     65  OG1       27.9260   29.1220   -6.3310 O.3   404  THR404     -0.2211
     66  CG2       25.9060   29.5760   -7.4640 C.3   404  THR404      0.0376
     67  N         26.8020   30.2410  -10.5160 N.am  405  VAL405     -0.1965
     68  CA        26.5170   31.3120  -11.4780 C.3   405  VAL405      0.1727
     69  C         25.5760   32.3350  -10.8700 C.2   405  VAL405      0.2616
     70  O         24.6600   31.9690  -10.1410 O.2   405  VAL405     -0.2715
     71  CB        26.0210   30.7540  -12.8170 C.3   405  VAL405      0.0290
     72  CG1       27.1230   29.9230  -13.4530 C.3   405  VAL405      0.0023
     73  CG2       24.7260   29.9250  -12.6420 C.3   405  VAL405      0.0023
     74  N         25.8160   33.6170  -11.1310 N.am  406  ILE406     -0.1977
     75  CA        24.9570   34.7050  -10.6330 C.3   406  ILE406      0.1596
     76  C         24.7520   35.6880  -11.7860 C.2   406  ILE406      0.2287
     77  O         25.6950   36.0540  -12.4910 O.2   406  ILE406     -0.2864
     78  CB        25.5490   35.4560   -9.3950 C.3   406  ILE406      0.0276
     79  CG1       25.8330   34.5100   -8.2220 C.3   406  ILE406      0.0022
     80  CG2       24.6320   36.6820   -8.9440 C.3   406  ILE406      0.0022
     81  CD1       26.5170   35.1730   -6.9800 C.3   406  ILE406      0.0001
     82  N         20.4920   34.4180  -15.4490 N.3   410  VAL410     -0.1231
     83  CA        20.2030   33.2150  -14.6770 C.3   410  VAL410      0.1692
     84  C         18.7850   33.3240  -14.1260 C.2   410  VAL410      0.2592
     85  O         18.0080   32.3760  -14.2760 O.2   410  VAL410     -0.2718
     86  CB        21.2750   32.9130  -13.5630 C.3   410  VAL410      0.0266
     87  CG1       20.9240   31.6400  -12.7920 C.3   410  VAL410      0.0020
     88  CG2       22.6790   32.8000  -14.1620 C.3   410  VAL410      0.0020
     89  N         18.4380   34.4700  -13.4940 N.am  411  ASN411     -0.1974
     90  CA        17.0900   34.6630  -12.9040 C.3   411  ASN411      0.1688
     91  C         16.0150   34.6620  -14.0010 C.2   411  ASN411      0.2292
     92  O         14.9440   34.0940  -13.8010 O.2   411  ASN411     -0.2864
     93  CB        16.9800   35.9860  -12.0610 C.3   411  ASN411      0.1181
     94  CG        18.1130   36.2170  -11.0870 C.2   411  ASN411      0.2629
     95  OD1       18.7040   35.2860  -10.5410 O.2   411  ASN411     -0.2716
     96  ND2       18.4660   37.4680  -10.8670 N.am  411  ASN411     -0.0877
     97  N         15.1800   31.0490  -15.2130 N.3   414  ALA414     -0.1231
     98  CA        14.3840   30.4950  -14.1170 C.3   414  ALA414      0.1694
     99  C         12.9480   31.0280  -14.1420 C.2   414  ALA414      0.2591
    100  O         12.0110   30.2420  -14.0170 O.2   414  ALA414     -0.2718
    101  CB        15.0490   30.7750  -12.7620 C.3   414  ALA414      0.0304
    102  N         12.7600   32.3470  -14.3030 N.am  415  ARG415     -0.1980
    103  CA        11.3850   32.8850  -14.3640 C.3   415  ARG415      0.1597
    104  C         10.6710   32.4250  -15.6130 C.2   415  ARG415      0.2287
    105  O          9.5000   32.1080  -15.5190 O.2   415  ARG415     -0.2864
    106  CB        11.3020   34.4180  -14.2210 C.3   415  ARG415      0.0334
    107  CG        12.0510   35.0190  -13.0160 C.3   415  ARG415      0.0492
    108  CD        11.4800   34.6430  -11.6620 C.3   415  ARG415      0.2205
    109  NE        12.3420   35.1000  -10.5670 N.pl3 415  ARG415     -0.0865
    110  CZ        12.5050   34.4600   -9.4110 C.cat 415  ARG415      0.5346
    111  NH1       11.8660   33.3170   -9.1800 N.pl3 415  ARG415      0.1354
    112  NH2       13.3090   34.9550   -8.4790 N.pl3 415  ARG415      0.1354
@<TRIPOS>BOND
     1    10    11    1
     2    13    12    2
     3    12    11    1
     4    11    14    1
     5    14    15    1
     6   104   105    2
     7   104   103    1
     8    82    83    1
     9    97    98    1
    10    54    55    2
    11    54    53    1
    12    15    17   ar
    13    15    16   ar
    14    83    84    1
    15    83    86    1
    16    17    19   ar
    17   103   102    1
    18   103   106    1
    19   102    99   am
    20    59    57    1
    21    85    84    2
    22   106   107    1
    23    16    18   ar
    24    88    86    1
    25    53    52    1
    26    53    56    1
    27    99    98    1
    28    99   100    2
    29    84    89   am
    30    98   101    1
    31    91    92    2
    32    91    90    1
    33    86    87    1
    34    89    90    1
    35    72    71    1
    36    57    56    1
    37    57    58    1
    38    19    20   ar
    39   107   108    1
    40    90    93    1
    41    18    20   ar
    42    71    73    1
    43    71    68    1
    44    77    76    2
    45    93    94    1
    46    76    75    1
    47   108   109    1
    48    24    23    2
    49    68    69    1
    50    68    67    1
    51    21    22    1
    52    74    69   am
    53    74    75    1
    54    94    96   am
    55    94    95    2
    56    69    70    2
    57    75    78    1
    58   109   110    2
    59    67    62   am
    60    23    22    1
    61    63    62    2
    62    22    25    1
    63    62    61    1
    64    50    48   ar
    65    50    51   ar
    66    48    46   ar
    67   110   111    1
    68   110   112    1
    69    78    80    1
    70    78    79    1
    71    25    26    1
    72    40    39   ar
    73    40    38   ar
    74    39    37   ar
    75    44    43    2
    76    61    60    1
    77    61    64    1
    78    26    27    1
    79    51    49   ar
    80    46    45    1
    81    46    47   ar
    82    45    42    1
    83    38    36   ar
    84    33    32    2
    85    79    81    1
    86    37    35   ar
    87    30    31    1
    88    43    42    1
    89    49    47   ar
    90    64    66    1
    91    64    65    1
    92    27    28    1
    93    36    35   ar
    94    28    29    1
    95    42    41    1
    96    35    34    1
    97    32    31    1
    98    31    34    1
    99     7     6    1
   100     7     8    1
   101     6     3   am
   102     5     2    1
   103     3     2    1
   104     3     4    2
   105     2     1    1
   106     8     9    2
