@<TRIPOS>MOLECULE
tmp/4oz3A00.pdb
 124 118 0 0 0
SMALL
GASTEIGER

@<TRIPOS>ATOM
      1  N         16.4320   27.7330    1.0700 N.3    45  PHE45      -0.1241
      2  CA        16.6720   28.3140   -0.2580 C.3    45  PHE45       0.1605
      3  C         16.9800   29.7830   -0.0710 C.2    45  PHE45       0.2264
      4  O         16.1290   30.5390    0.4140 O.2    45  PHE45      -0.2867
      5  CB        15.4190   28.1000   -1.1400 C.3    45  PHE45       0.0534
      6  CG        15.5930   28.0960   -2.6410 C.ar   45  PHE45      -0.0203
      7  CD1       16.6030   27.3500   -3.2400 C.ar   45  PHE45      -0.0042
      8  CD2       14.7230   28.7980   -3.4570 C.ar   45  PHE45      -0.0042
      9  CE1       16.7530   27.3290   -4.6240 C.ar   45  PHE45      -0.0003
     10  CE2       14.8750   28.7840   -4.8500 C.ar   45  PHE45      -0.0003
     11  CZ        15.8790   28.0410   -5.4250 C.ar   45  PHE45      -0.0000
     12  N         23.7480   22.1360   -1.1980 N.3    94  LEU94      -0.1231
     13  CA        23.5010   21.1960   -2.3130 C.3    94  LEU94       0.1693
     14  C         23.9350   21.7150   -3.6560 C.2    94  LEU94       0.2591
     15  O         24.5800   20.9780   -4.4080 O.2    94  LEU94      -0.2718
     16  CB        22.0230   20.8600   -2.4000 C.3    94  LEU94       0.0284
     17  CG        21.4810   20.0510   -1.2150 C.3    94  LEU94       0.0019
     18  CD1       20.0360   19.6240   -1.4710 C.3    94  LEU94       0.0001
     19  CD2       22.4270   18.8710   -0.8890 C.3    94  LEU94       0.0001
     20  N         23.5650   22.9530   -3.9710 N.am   95  LYS95      -0.1980
     21  CA        23.7870   23.4910   -5.3060 C.3    95  LYS95       0.1596
     22  C         23.6980   24.9950   -5.2980 C.2    95  LYS95       0.2287
     23  O         22.9590   25.5810   -4.5050 O.2    95  LYS95      -0.2864
     24  CB        22.7050   22.9370   -6.2800 C.3    95  LYS95       0.0298
     25  CG        23.2990   22.8390   -7.6880 C.3    95  LYS95       0.0038
     26  CD        22.5060   21.9540   -8.6190 C.3    95  LYS95       0.0206
     27  CE        22.6480   20.4580   -8.3930 C.3    95  LYS95       0.1093
     28  NZ        21.8550   19.7300   -9.4370 N.3    95  LYS95      -0.1314
     29  N         22.7500   28.0440   -8.0140 N.3    97  ALA97      -0.1245
     30  CA        22.3550   28.5830   -9.3180 C.3    97  ALA97       0.1562
     31  C         22.7610   30.0870   -9.3640 C.2    97  ALA97       0.2260
     32  O         23.2000   30.6390   -8.3390 O.2    97  ALA97      -0.2867
     33  CB        20.8490   28.3930   -9.5070 C.3    97  ALA97       0.0290
     34  N         21.0300   32.6190   -9.1660 N.3    99  ASP99      -0.1225
     35  CA        19.8540   33.1860   -8.5470 C.3    99  ASP99       0.1805
     36  C         19.7300   32.6380   -7.1010 C.2    99  ASP99       0.2597
     37  O         19.1900   33.3450   -6.2860 O.2    99  ASP99      -0.2718
     38  CB        18.5960   32.8340   -9.3450 C.3    99  ASP99       0.1424
     39  CG        18.3470   31.3270   -9.3840 C.2    99  ASP99       0.3668
     40  OD1       17.5030   30.8470   -8.6050 O.co2  99  ASP99      -0.2456
     41  OD2       19.0610   30.6300  -10.1280 O.co2  99  ASP99      -0.2456
     42  N         20.2160   31.3980   -6.7790 N.am  100  ALA100     -0.1979
     43  CA        19.9580   30.8100   -5.4640 C.3   100  ALA100      0.1597
     44  C         21.0150   29.8060   -4.9950 C.2   100  ALA100      0.2287
     45  O         21.7650   29.2500   -5.7930 O.2   100  ALA100     -0.2864
     46  CB        18.5870   30.1440   -5.4310 C.3   100  ALA100      0.0319
     47  N         20.8670   26.3690   -2.5170 N.3   102  LEU102     -0.1245
     48  CA        19.9800   25.4980   -1.7580 C.3   102  LEU102      0.1561
     49  C         20.8020   24.7230   -0.7720 C.2   102  LEU102      0.2260
     50  O         21.8080   24.1210   -1.1770 O.2   102  LEU102     -0.2867
     51  CB        19.3240   24.5170   -2.7380 C.3   102  LEU102      0.0270
     52  CG        18.3900   23.4570   -2.1410 C.3   102  LEU102      0.0019
     53  CD1       17.1500   24.1280   -1.5060 C.3   102  LEU102      0.0001
     54  CD2       17.9400   22.4580   -3.2630 C.3   102  LEU102      0.0001
     55  N         22.8320   15.1560  -10.0000 N.3   165  PHE165     -0.1227
     56  CA        21.8120   14.8370   -9.0260 C.3   165  PHE165      0.1736
     57  C         20.7860   15.9900   -8.9190 C.2   165  PHE165      0.2595
     58  O         21.0670   17.1360   -9.3120 O.2   165  PHE165     -0.2718
     59  CB        22.4310   14.4960   -7.6590 C.3   165  PHE165      0.0547
     60  CG        22.7610   15.7490   -6.8740 C.ar  165  PHE165     -0.0202
     61  CD1       21.8580   16.2640   -5.9450 C.ar  165  PHE165     -0.0042
     62  CD2       23.9630   16.4220   -7.0780 C.ar  165  PHE165     -0.0042
     63  CE1       22.1610   17.4410   -5.2250 C.ar  165  PHE165     -0.0003
     64  CE2       24.2650   17.5930   -6.3560 C.ar  165  PHE165     -0.0003
     65  CZ        23.3570   18.0800   -5.4380 C.ar  165  PHE165     -0.0000
     66  N         19.6360   15.6680   -8.3590 N.am  166  LEU166     -0.1966
     67  CA        18.5260   16.5700   -8.0800 C.3   166  LEU166      0.1728
     68  C         17.8800   16.1160   -6.8080 C.2   166  LEU166      0.2616
     69  O         17.8680   14.9170   -6.5080 O.2   166  LEU166     -0.2715
     70  CB        17.4160   16.3680   -9.1520 C.3   166  LEU166      0.0311
     71  CG        17.6550   16.7910  -10.5240 C.3   166  LEU166      0.0022
     72  CD1       16.5430   16.2990  -11.3910 C.3   166  LEU166      0.0001
     73  CD2       17.7230   18.2740  -10.5740 C.3   166  LEU166      0.0001
     74  N         17.3440   17.0570   -6.0370 N.am  167  VAL167     -0.1977
     75  CA        16.4280   16.6540   -4.9740 C.3   167  VAL167      0.1596
     76  C         15.0350   17.0560   -5.4390 C.2   167  VAL167      0.2287
     77  O         14.8660   18.0660   -6.1510 O.2   167  VAL167     -0.2864
     78  CB        16.7620   17.2450   -3.5830 C.3   167  VAL167      0.0276
     79  CG1       17.9770   16.5410   -2.9850 C.3   167  VAL167      0.0022
     80  CG2       16.9400   18.7690   -3.6250 C.3   167  VAL167      0.0022
     81  N         10.8640   20.1150   -1.4900 N.3   172  VAL172     -0.1245
     82  CA        11.6260   20.8390   -2.5070 C.3   172  VAL172      0.1561
     83  C         10.7220   21.8720   -3.2170 C.2   172  VAL172      0.2260
     84  O         11.1080   23.0310   -3.3580 O.2   172  VAL172     -0.2867
     85  CB        12.2850   19.8460   -3.5010 C.3   172  VAL172      0.0252
     86  CG1       12.9240   20.5790   -4.6850 C.3   172  VAL172      0.0019
     87  CG2       13.3590   18.9840   -2.7810 C.3   172  VAL172      0.0019
     88  N         10.8230   26.3700   -2.7500 N.3   176  ARG176     -0.1245
     89  CA        10.7490   27.2630   -3.9060 C.3   176  ARG176      0.1563
     90  C          9.5810   28.2430   -3.6880 C.2   176  ARG176      0.2260
     91  O          9.7760   29.4520   -3.7860 O.2   176  ARG176     -0.2867
     92  CB        10.5230   26.4370   -5.1850 C.3   176  ARG176      0.0307
     93  CG        10.3350   27.2700   -6.4730 C.3   176  ARG176      0.0489
     94  CD        11.6080   27.9380   -6.9840 C.3   176  ARG176      0.2205
     95  NE        12.5280   26.9690   -7.5860 N.pl3 176  ARG176     -0.0865
     96  CZ        13.6780   27.2830   -8.1730 C.cat 176  ARG176      0.5346
     97  NH1       14.0680   28.5490   -8.2550 N.pl3 176  ARG176      0.1354
     98  NH2       14.4440   26.3350   -8.6920 N.pl3 176  ARG176      0.1354
     99  N         21.2050   21.2240  -13.4930 N.3   334  VAL334     -0.1231
    100  CA        19.8600   20.6470  -13.5740 C.3   334  VAL334      0.1692
    101  C         19.2460   20.9020  -12.2140 C.2   334  VAL334      0.2592
    102  O         19.9290   20.7850  -11.1910 O.2   334  VAL334     -0.2718
    103  CB        19.8740   19.1230  -13.8840 C.3   334  VAL334      0.0266
    104  CG1       18.4860   18.6210  -14.2380 C.3   334  VAL334      0.0020
    105  CG2       20.8530   18.7590  -14.9890 C.3   334  VAL334      0.0020
    106  N         17.9750   21.2530  -12.1910 N.am  335  PHE335     -0.1962
    107  CA        17.2450   21.4450  -10.9530 C.3   335  PHE335      0.1771
    108  C         15.7710   21.3640  -11.2090 C.2   335  PHE335      0.2619
    109  O         15.3480   21.3980  -12.3760 O.2   335  PHE335     -0.2715
    110  CB        17.6100   22.8090  -10.3260 C.3   335  PHE335      0.0574
    111  CG        17.3970   23.9780  -11.2540 C.ar  335  PHE335     -0.0200
    112  CD1       16.1500   24.5860  -11.3590 C.ar  335  PHE335     -0.0042
    113  CD2       18.4440   24.4730  -12.0190 C.ar  335  PHE335     -0.0042
    114  CE1       15.9510   25.6760  -12.2190 C.ar  335  PHE335     -0.0003
    115  CE2       18.2490   25.5550  -12.8820 C.ar  335  PHE335     -0.0003
    116  CZ        17.0070   26.1570  -12.9730 C.ar  335  PHE335     -0.0000
    117  N         14.9860   21.2760  -10.1050 N.am  336  MET336     -0.1977
    118  CA        13.5310   21.3950  -10.1340 C.3   336  MET336      0.1605
    119  C         13.0760   22.8620  -10.1090 C.2   336  MET336      0.2287
    120  O         13.5980   23.6560   -9.3230 O.2   336  MET336     -0.2864
    121  CB        12.8790   20.6320   -8.9610 C.3   336  MET336      0.0413
    122  CG        13.2000   19.1380   -8.9370 C.3   336  MET336      0.0598
    123  SD        13.2410   18.3270  -10.5620 S.3   336  MET336     -0.1393
    124  CE        11.6150   17.6990  -10.6530 C.3   336  MET336      0.0692
@<TRIPOS>BOND
     1   105   103    1
     2   104   103    1
     3   103   100    1
     4   100    99    1
     5   100   101    1
     6   116   115   ar
     7   116   114   ar
     8   115   113   ar
     9   109   108    2
    10   114   112   ar
    11   101   106   am
    12   101   102    2
    13   106   107    1
    14   113   111   ar
    15    72    71    1
    16   112   111   ar
    17   111   110    1
    18   108   107    1
    19   108   117   am
    20   107   110    1
    21   124   123    1
    22    73    71    1
    23   123   122    1
    24    71    70    1
    25   118   119    1
    26   118   117    1
    27   118   121    1
    28    41    39   ar
    29   119   120    2
    30    55    56    1
    31    33    30    1
    32    28    27    1
    33    39    38    1
    34    39    40   ar
    35    31    30    1
    36    31    32    2
    37    38    35    1
    38    30    29    1
    39    58    57    2
    40    34    35    1
    41    70    67    1
    42    56    57    1
    43    56    59    1
    44   121   122    1
    45    57    66   am
    46    98    96    1
    47    26    27    1
    48    26    25    1
    49    35    36    1
    50    66    67    1
    51    97    96    1
    52    96    95    2
    53    67    68    1
    54    25    24    1
    55    59    60    1
    56    95    94    1
    57    36    42   am
    58    36    37    2
    59    62    60   ar
    60    62    64   ar
    61    94    93    1
    62    60    61   ar
    63    68    69    2
    64    68    74   am
    65    42    43    1
    66    93    92    1
    67    64    65   ar
    68    24    21    1
    69    77    76    2
    70    74    75    1
    71    61    63   ar
    72    45    44    2
    73    43    46    1
    74    43    44    1
    75    76    75    1
    76    65    63   ar
    77    11    10   ar
    78    11     9   ar
    79    21    22    1
    80    21    20    1
    81    22    23    2
    82    92    89    1
    83    75    78    1
    84    10     8   ar
    85    86    85    1
    86     9     7   ar
    87    15    14    2
    88    20    14   am
    89    89    90    1
    90    89    88    1
    91    91    90    2
    92    14    13    1
    93    80    78    1
    94    78    79    1
    95    85    87    1
    96    85    82    1
    97     8     6   ar
    98    84    83    2
    99    54    52    1
   100     7     6   ar
   101    83    82    1
   102    51    52    1
   103    51    48    1
   104     6     5    1
   105    47    48    1
   106    82    81    1
   107    16    13    1
   108    16    17    1
   109    13    12    1
   110    52    53    1
   111    48    49    1
   112    18    17    1
   113    17    19    1
   114    50    49    2
   115     5     2    1
   116     2     3    1
   117     2     1    1
   118     3     4    2
