@<TRIPOS>MOLECULE
tmp/4oz6A00.pdb
 75 73 0 0 0
SMALL
GASTEIGER

@<TRIPOS>ATOM
      1  N         11.6160    6.0460  -14.3900 N.3    74  ASN74      -0.1240
      2  CA        12.3470    5.8310  -15.6350 C.3    74  ASN74       0.1653
      3  C         13.8580    5.7200  -15.4300 C.2    74  ASN74       0.2266
      4  O         14.6280    5.8550  -16.3820 O.2    74  ASN74      -0.2867
      5  CB        12.0380    6.9480  -16.6330 C.3    74  ASN74       0.1155
      6  CG        12.5710    8.2900  -16.1800 C.2    74  ASN74       0.2627
      7  OD1       12.7090    8.5420  -14.9850 O.2    74  ASN74      -0.2716
      8  ND2       12.8740    9.1580  -17.1310 N.am   74  ASN74      -0.0877
      9  N         17.1720    3.6760  -14.9910 N.3    76  PRO76      -0.2116
     10  CA        17.6660    2.3480  -15.3680 C.3    76  PRO76       0.1372
     11  C         18.7520    1.8060  -14.4390 C.2    76  PRO76       0.2244
     12  O         19.7990    2.4350  -14.2810 O.2    76  PRO76      -0.2868
     13  CB        18.2460    2.5760  -16.7730 C.3    76  PRO76       0.0268
     14  CG        18.1430    4.0820  -17.0440 C.3    76  PRO76       0.0207
     15  CD        17.8750    4.7360  -15.7260 C.3    76  PRO76       0.0892
     16  N         14.0740   -0.5110  -16.0490 N.3    93  LEU93      -0.1245
     17  CA        13.6620    0.7320  -15.4130 C.3    93  LEU93       0.1561
     18  C         13.0850    0.3990  -14.0470 C.2    93  LEU93       0.2260
     19  O         12.5560   -0.6940  -13.8390 O.2    93  LEU93      -0.2867
     20  CB        12.6220    1.4670  -16.2570 C.3    93  LEU93       0.0270
     21  CG        13.0330    1.8840  -17.6730 C.3    93  LEU93       0.0019
     22  CD1       12.0050    2.8480  -18.2380 C.3    93  LEU93       0.0001
     23  CD2       14.4170    2.5160  -17.6820 C.3    93  LEU93       0.0001
     24  N         21.3450   13.2510  -11.3640 N.3   149  SER149     -0.1217
     25  CA        22.0330   12.2750  -12.1950 C.3   149  SER149      0.1889
     26  C         23.3090   12.8610  -12.8010 C.2   149  SER149      0.2288
     27  O         23.5780   14.0560  -12.6640 O.2   149  SER149     -0.2866
     28  CB        21.1070   11.7440  -13.2900 C.3   149  SER149      0.2089
     29  OG        21.7050   10.6500  -13.9750 O.3   149  SER149     -0.2183
     30  N         22.4290    4.2010  -15.0820 N.3   166  HIS166     -0.1226
     31  CA        22.7080    4.5540  -16.4680 C.3   166  HIS166      0.1752
     32  C         22.8890    6.0490  -16.6830 C.2   166  HIS166      0.2596
     33  O         22.1750    6.8710  -16.1080 O.2   166  HIS166     -0.2718
     34  CB        21.6110    4.0330  -17.4020 C.3   166  HIS166      0.0759
     35  CG        21.9340    4.1950  -18.8550 C.ar  166  HIS166      0.0818
     36  ND1       21.4920    5.2660  -19.6020 N.ar  166  HIS166     -0.2268
     37  CD2       22.6690    3.4290  -19.6940 C.ar  166  HIS166      0.1154
     38  CE1       21.9340    5.1480  -20.8400 C.ar  166  HIS166      0.1986
     39  NE2       22.6510    4.0410  -20.9230 N.ar  166  HIS166     -0.2212
     40  N         23.8510    6.3820  -17.5320 N.am  167  ASN167     -0.1960
     41  CA        24.1240    7.7570  -17.9130 C.3   167  ASN167      0.1819
     42  C         22.8610    8.5040  -18.3480 C.2   167  ASN167      0.2622
     43  O         21.9120    7.8940  -18.8410 O.2   167  ASN167     -0.2715
     44  CB        25.1610    7.7620  -19.0360 C.3   167  ASN167      0.1195
     45  CG        25.4680    9.1490  -19.5390 C.2   167  ASN167      0.2630
     46  OD1       26.2840    9.8620  -18.9610 O.2   167  ASN167     -0.2716
     47  ND2       24.8190    9.5400  -20.6260 N.am  167  ASN167     -0.0877
     48  N         22.8450    9.8200  -18.1430 N.am  168  THR168     -0.1937
     49  CA        21.7500   10.6610  -18.6260 C.3   168  THR168      0.2028
     50  C         22.2960   11.8980  -19.3330 C.2   168  THR168      0.2642
     51  O         23.3580   12.4100  -18.9770 O.2   168  THR168     -0.2714
     52  CB        20.8160   11.1240  -17.4960 C.3   168  THR168      0.1808
     53  OG1       19.6080   11.6460  -18.0650 O.3   168  THR168     -0.2208
     54  CG2       21.4750   12.2090  -16.6710 C.3   168  THR168      0.0379
     55  N         21.5620   12.3770  -20.3310 N.am  169  GLU169     -0.1963
     56  CA        22.0310   13.4840  -21.1540 C.3   169  GLU169      0.1733
     57  C         21.3560   14.8030  -20.8050 C.2   169  GLU169      0.2616
     58  O         21.8010   15.8690  -21.2280 O.2   169  GLU169     -0.2715
     59  CB        21.8290   13.1640  -22.6330 C.3   169  GLU169      0.0429
     60  CG        22.8470   12.1860  -23.1820 C.3   169  GLU169      0.1163
     61  CD        24.2410   12.7780  -23.2240 C.2   169  GLU169      0.3649
     62  OE1       24.3570   13.9940  -23.4750 O.co2 169  GLU169     -0.2457
     63  OE2       25.2150   12.0330  -22.9950 O.co2 169  GLU169     -0.2457
     64  N         20.2800   14.7270  -20.0330 N.am  170  ALA170     -0.1964
     65  CA        19.5340   15.9210  -19.6760 C.3   170  ALA170      0.1713
     66  C         18.8790   15.7700  -18.3100 C.2   170  ALA170      0.2458
     67  O         18.8030   14.6640  -17.7740 O.2   170  ALA170     -0.2730
     68  CB        18.4910   16.2280  -20.7440 C.3   170  ALA170      0.0333
     69  N         18.4280   16.8910  -17.7300 N.am  171  PRO171     -0.2727
     70  CA        17.6430   16.8610  -16.4960 C.3   171  PRO171      0.1402
     71  C         16.1510   16.8030  -16.8080 C.2   171  PRO171      0.2269
     72  O         15.7870   16.4150  -17.9200 O.2   171  PRO171     -0.2865
     73  CB        17.9820   18.2010  -15.8540 C.3   171  PRO171      0.0296
     74  CG        18.1740   19.1060  -17.0090 C.3   171  PRO171      0.0237
     75  CD        18.8000   18.2680  -18.1020 C.3   171  PRO171      0.0939
@<TRIPOS>BOND
     1    62    61   ar
     2    61    60    1
     3    61    63   ar
     4    60    59    1
     5    59    56    1
     6    58    57    2
     7    56    57    1
     8    56    55    1
     9    39    38   ar
    10    39    37   ar
    11    38    36   ar
    12    57    64   am
    13    68    65    1
    14    47    45   am
    15    55    50   am
    16    64    65    1
    17    37    35   ar
    18    65    66    1
    19    36    35   ar
    20    45    44    1
    21    45    46    2
    22    50    51    2
    23    50    49    1
    24    44    41    1
    25    35    34    1
    26    43    42    2
    27    49    48    1
    28    49    52    1
    29    42    48   am
    30    42    41    1
    31    66    67    2
    32    66    69   am
    33    22    21    1
    34    75    69    1
    35    75    74    1
    36    53    52    1
    37    72    71    2
    38    41    40    1
    39    69    70    1
    40    23    21    1
    41    21    20    1
    42    40    32   am
    43    52    54    1
    44    34    31    1
    45     8     6   am
    46    14    13    1
    47    14    15    1
    48    74    73    1
    49    71    70    1
    50    13    10    1
    51    32    31    1
    52    32    33    2
    53     5     6    1
    54     5     2    1
    55    70    73    1
    56    31    30    1
    57     4     3    2
    58    20    17    1
    59     6     7    2
    60    16    17    1
    61    15     9    1
    62     2     3    1
    63     2     1    1
    64    17    18    1
    65    10     9    1
    66    10    11    1
    67    11    12    2
    68    18    19    2
    69    29    28    1
    70    28    25    1
    71    26    27    2
    72    26    25    1
    73    25    24    1
