@<TRIPOS>MOLECULE
tmp/4oz9A00.pdb
 129 120 0 0 0
SMALL
GASTEIGER

@<TRIPOS>ATOM
      1  N        -13.5340  -14.8860    3.1000 N.3    18  ARG18      -0.1245
      2  CA       -13.9440  -15.3440    4.4110 C.3    18  ARG18       0.1563
      3  C        -15.4060  -15.0240    4.6360 C.2    18  ARG18       0.2260
      4  O        -15.9120  -14.0170    4.1370 O.2    18  ARG18      -0.2867
      5  CB       -13.1220  -14.6370    5.4960 C.3    18  ARG18       0.0307
      6  CG       -11.6510  -15.0110    5.5420 C.3    18  ARG18       0.0489
      7  CD       -10.8360  -13.9200    6.2240 C.3    18  ARG18       0.2205
      8  NE       -11.4800  -13.3990    7.4280 N.pl3  18  ARG18      -0.0865
      9  CZ       -11.2660  -12.1850    7.9330 C.cat  18  ARG18       0.5346
     10  NH1      -10.4160  -11.3460    7.3440 N.pl3  18  ARG18       0.1354
     11  NH2      -11.8960  -11.8080    9.0420 N.pl3  18  ARG18       0.1354
     12  N         -9.0800  -20.3090    6.9750 N.3    58  LEU58      -0.1245
     13  CA        -7.9520  -19.7460    6.2440 C.3    58  LEU58       0.1561
     14  C         -7.0800  -20.7610    5.5100 C.2    58  LEU58       0.2260
     15  O         -6.5710  -20.4610    4.4310 O.2    58  LEU58      -0.2867
     16  CB        -7.1000  -18.8720    7.1640 C.3    58  LEU58       0.0270
     17  CG        -7.8140  -17.6290    7.7020 C.3    58  LEU58       0.0019
     18  CD1       -6.9780  -16.9740    8.7810 C.3    58  LEU58       0.0001
     19  CD2       -8.1300  -16.6390    6.5900 C.3    58  LEU58       0.0001
     20  N         -6.5890  -20.8920    1.3580 N.3    62  TYR62      -0.1241
     21  CA        -5.3650  -20.9500    0.5540 C.3    62  TYR62       0.1605
     22  C         -5.2580  -22.2420   -0.2760 C.2    62  TYR62       0.2264
     23  O         -4.6650  -22.2470   -1.3660 O.2    62  TYR62      -0.2867
     24  CB        -4.1260  -20.7800    1.4310 C.3    62  TYR62       0.0534
     25  CG        -3.8440  -19.3650    1.9060 C.ar   62  TYR62      -0.0201
     26  CD1       -3.2660  -18.4190    1.0520 C.ar   62  TYR62      -0.0009
     27  CD2       -4.1100  -18.9810    3.2270 C.ar   62  TYR62      -0.0009
     28  CE1       -2.9770  -17.1270    1.4940 C.ar   62  TYR62       0.0417
     29  CE2       -3.8280  -17.6960    3.6770 C.ar   62  TYR62       0.0417
     30  CZ        -3.2620  -16.7710    2.8100 C.ar   62  TYR62       0.1957
     31  OH        -2.9720  -15.4930    3.2500 O.3    62  TYR62      -0.2866
     32  N         -9.7250  -11.0380    1.1120 N.3    76  ALA76      -0.1231
     33  CA       -10.1370  -11.4610    2.4520 C.3    76  ALA76       0.1694
     34  C         -9.4080  -10.7890    3.6250 C.2    76  ALA76       0.2593
     35  O         -9.2970  -11.3840    4.7070 O.2    76  ALA76      -0.2718
     36  CB       -10.0350  -12.9830    2.5560 C.3    76  ALA76       0.0304
     37  N         -8.9460   -9.5520    3.4320 N.am   77  GLY77      -0.1942
     38  CA        -8.1900   -8.8350    4.4660 C.3    77  GLY77       0.2014
     39  C         -6.9170   -9.5850    4.8000 C.2    77  GLY77       0.2639
     40  O         -6.5070   -9.6530    5.9640 O.2    77  GLY77      -0.2714
     41  N         -6.2860  -10.1530    3.7730 N.am   78  LEU78      -0.1963
     42  CA        -5.1310  -10.9960    3.9880 C.3    78  LEU78       0.1728
     43  C         -3.8820  -10.1680    4.1600 C.2    78  LEU78       0.2616
     44  O         -3.6700   -9.1660    3.4680 O.2    78  LEU78      -0.2715
     45  CB        -4.9530  -12.0070    2.8510 C.3    78  LEU78       0.0311
     46  CG        -6.1060  -12.9850    2.5840 C.3    78  LEU78       0.0022
     47  CD1       -5.8480  -13.7450    1.2890 C.3    78  LEU78       0.0001
     48  CD2       -6.3200  -13.9460    3.7480 C.3    78  LEU78       0.0001
     49  N         -3.0840  -10.5990    5.1260 N.am   79  THR79      -0.1951
     50  CA        -1.7460  -10.1000    5.3600 C.3    79  THR79       0.1897
     51  C         -0.7720  -11.0480    4.6480 C.2    79  THR79       0.2313
     52  O         -0.8410  -12.2680    4.8460 O.2    79  THR79      -0.2863
     53  CB        -1.4560  -10.1250    6.8700 C.3    79  THR79       0.1794
     54  OG1       -2.2930   -9.1690    7.5290 O.3    79  THR79      -0.2208
     55  CG2        0.0250   -9.8570    7.1580 C.3    79  THR79       0.0378
     56  N         -7.2340  -17.3270   14.9720 N.3   122  LEU122     -0.1245
     57  CA        -7.6680  -18.2010   13.8930 C.3   122  LEU122      0.1561
     58  C         -6.5060  -19.0400   13.3810 C.2   122  LEU122      0.2260
     59  O         -5.4220  -18.5180   13.1060 O.2   122  LEU122     -0.2867
     60  CB        -8.3060  -17.4000   12.7480 C.3   122  LEU122      0.0270
     61  CG        -9.6260  -16.6320   12.9750 C.3   122  LEU122      0.0019
     62  CD1      -10.4110  -16.4470   11.6750 C.3   122  LEU122      0.0001
     63  CD2      -10.4910  -17.3200   14.0100 C.3   122  LEU122      0.0001
     64  N         -4.1930  -20.6750   10.9530 N.3   124  GLY124     -0.1210
     65  CA        -3.7760  -20.3270    9.5840 C.3   124  GLY124      0.1956
     66  C         -3.6090  -18.8340    9.3410 C.2   124  GLY124      0.2613
     67  O         -3.3640  -18.4100    8.2110 O.2   124  GLY124     -0.2717
     68  N         -3.7380  -18.0320   10.3980 N.am  125  SER125     -0.1938
     69  CA        -3.6210  -16.5810   10.2820 C.3   125  SER125      0.2055
     70  C         -2.1910  -16.0680   10.5020 C.2   125  SER125      0.2644
     71  O         -1.3550  -16.7420   11.1210 O.2   125  SER125     -0.2714
     72  CB        -4.5890  -15.8900   11.2510 C.3   125  SER125      0.2130
     73  OG        -4.2630  -16.1760   12.6000 O.3   125  SER125     -0.2179
     74  N         -1.9230  -14.8650    9.9980 N.am  126  SER126     -0.1935
     75  CA        -0.6590  -14.1700   10.2750 C.3   126  SER126      0.2055
     76  C         -0.5340  -13.8470   11.7690 C.2   126  SER126      0.2643
     77  O          0.5690  -13.7150   12.3070 O.2   126  SER126     -0.2714
     78  CB        -0.5810  -12.8860    9.4560 C.3   126  SER126      0.2130
     79  OG        -1.6300  -12.0010    9.8440 O.3   126  SER126     -0.2179
     80  N         -1.6780  -13.7060   12.4270 N.am  127  HIS127     -0.1973
     81  CA        -1.7140  -13.4660   13.8630 C.3   127  HIS127      0.1656
     82  C         -1.1610  -14.6670   14.6090 C.2   127  HIS127      0.2291
     83  O         -0.3220  -14.5020   15.4930 O.2   127  HIS127     -0.2864
     84  CB        -3.1280  -13.0960   14.3320 C.3   127  HIS127      0.0771
     85  CG        -3.7050  -11.9220   13.6060 C.ar  127  HIS127      0.0820
     86  ND1       -4.8750  -11.9970   12.8870 N.ar  127  HIS127     -0.2267
     87  CD2       -3.2440  -10.6600   13.4450 C.ar  127  HIS127      0.1154
     88  CE1       -5.1210  -10.8250   12.3280 C.ar  127  HIS127      0.1986
     89  NE2       -4.1430   -9.9990   12.6470 N.ar  127  HIS127     -0.2212
     90  N        -13.2410  -14.0900   13.3170 N.3   151  VAL151     -0.1245
     91  CA       -12.8420  -12.8870   14.0930 C.3   151  VAL151      0.1561
     92  C        -13.9440  -12.3500   15.0070 C.2   151  VAL151      0.2260
     93  O        -13.6790  -11.9070   16.1370 O.2   151  VAL151     -0.2867
     94  CB       -12.3580  -11.7480   13.1570 C.3   151  VAL151      0.0252
     95  CG1      -12.1650  -10.4390   13.9130 C.3   151  VAL151      0.0019
     96  CG2      -11.0630  -12.1530   12.4610 C.3   151  VAL151      0.0019
     97  N        -13.9080  -14.5960   18.2160 N.3   154  LEU154     -0.1245
     98  CA       -12.7730  -14.2460   19.0850 C.3   154  LEU154      0.1561
     99  C        -13.0580  -13.0020   19.9330 C.2   154  LEU154      0.2260
    100  O        -12.7340  -12.9680   21.1220 O.2   154  LEU154     -0.2867
    101  CB       -11.4980  -13.9840   18.2680 C.3   154  LEU154      0.0270
    102  CG       -10.8920  -15.0070   17.3060 C.3   154  LEU154      0.0019
    103  CD1       -9.7840  -14.3190   16.5260 C.3   154  LEU154      0.0001
    104  CD2      -10.3500  -16.2450   18.0200 C.3   154  LEU154      0.0001
    105  N         -6.6010   -7.5230   13.4250 N.3   169  ASP169     -0.1239
    106  CA        -6.2380   -6.2890   12.7440 C.3   169  ASP169      0.1674
    107  C         -7.1700   -5.1540   13.1780 C.2   169  ASP169      0.2266
    108  O         -8.3600   -5.3670   13.4480 O.2   169  ASP169     -0.2867
    109  CB        -6.2570   -6.5090   11.2240 C.3   169  ASP169      0.1410
    110  CG        -5.2450   -7.5700   10.7920 C.2   169  ASP169      0.3668
    111  OD1       -4.1430   -7.6020   11.3960 O.co2 169  ASP169     -0.2456
    112  OD2       -5.5480   -8.3730    9.8870 O.co2 169  ASP169     -0.2456
    113  N        -10.6820   -4.3780   11.7180 N.3   172  GLU172     -0.1245
    114  CA       -11.7730   -5.2780   12.0500 C.3   172  GLU172      0.1567
    115  C        -12.2160   -5.1420   13.4980 C.2   172  GLU172      0.2260
    116  O        -13.3980   -5.3480   13.8140 O.2   172  GLU172     -0.2867
    117  CB       -11.4330   -6.7150   11.6630 C.3   172  GLU172      0.0388
    118  CG       -11.3890   -6.8800   10.1460 C.3   172  GLU172      0.1160
    119  CD       -11.6220   -8.3090    9.6740 C.2   172  GLU172      0.3649
    120  OE1      -12.1580   -9.1340   10.4600 O.co2 172  GLU172     -0.2457
    121  OE2      -11.2720   -8.5990    8.5060 O.co2 172  GLU172     -0.2457
    122  N         -2.8470   -4.8300    3.6840 N.3   195  LEU195     -0.1245
    123  CA        -3.5670   -6.0110    3.2470 C.3   195  LEU195      0.1561
    124  C         -3.2970   -6.2310    1.7540 C.2   195  LEU195      0.2260
    125  O         -3.0960   -5.2640    1.0100 O.2   195  LEU195     -0.2867
    126  CB        -5.0730   -5.8700    3.4760 C.3   195  LEU195      0.0270
    127  CG        -5.7090   -5.2300    4.7110 C.3   195  LEU195      0.0019
    128  CD1       -7.1920   -5.0740    4.4000 C.3   195  LEU195      0.0001
    129  CD2       -5.5140   -6.0430    5.9850 C.3   195  LEU195      0.0001
@<TRIPOS>BOND
     1    23    22    2
     2    22    21    1
     3    21    20    1
     4    21    24    1
     5   125   124    2
     6    26    28   ar
     7    26    25   ar
     8    32    33    1
     9    47    46    1
    10    24    25    1
    11    28    30   ar
    12   124   123    1
    13    25    27   ar
    14    33    36    1
    15    33    34    1
    16    46    45    1
    17    46    48    1
    18    30    31    1
    19    30    29   ar
    20    45    42    1
    21     1     2    1
    22    27    29   ar
    23   123   126    1
    24   123   122    1
    25    37    34   am
    26    37    38    1
    27    44    43    2
    28   126   127    1
    29    34    35    2
    30    41    42    1
    31    41    39   am
    32    42    43    1
    33     4     3    2
    34    43    49   am
    35   128   127    1
    36     2     3    1
    37     2     5    1
    38    15    14    2
    39    38    39    1
    40    51    52    2
    41    51    50    1
    42   127   129    1
    43    39    40    2
    44    49    50    1
    45    50    53    1
    46     5     6    1
    47    14    13    1
    48     6     7    1
    49     7     8    1
    50    13    12    1
    51    13    16    1
    52    19    17    1
    53    53    55    1
    54    53    54    1
    55    16    17    1
    56    10     9    1
    57     8     9    2
    58    17    18    1
    59     9    11    1
    60    67    66    2
    61   121   119   ar
    62    66    65    1
    63    66    68   am
    64    78    79    1
    65    78    75    1
    66    65    64    1
    67   119   118    1
    68   119   120   ar
    69   112   110   ar
    70    74    75    1
    71    74    70   am
    72   118   117    1
    73    75    76    1
    74    69    68    1
    75    69    70    1
    76    69    72    1
    77    70    71    2
    78   110   109    1
    79   110   111   ar
    80   109   106    1
    81    72    73    1
    82   117   114    1
    83    62    61    1
    84   113   114    1
    85    76    77    2
    86    76    80   am
    87   114   115    1
    88    88    89   ar
    89    88    86   ar
    90    80    81    1
    91    96    94    1
    92    89    87   ar
    93   106   107    1
    94   106   105    1
    95    60    61    1
    96    60    57    1
    97    86    85   ar
    98    61    63    1
    99    59    58    2
   100    94    95    1
   101    94    91    1
   102   107   108    2
   103    90    91    1
   104    58    57    1
   105    87    85   ar
   106   115   116    2
   107    85    84    1
   108    81    84    1
   109    81    82    1
   110    57    56    1
   111    91    92    1
   112    82    83    2
   113    92    93    2
   114   103   102    1
   115   102   104    1
   116   102   101    1
   117    97    98    1
   118   101    98    1
   119    98    99    1
   120    99   100    2
