@<TRIPOS>MOLECULE
tmp/4ozfB00.pdb
 190 182 0 0 0
SMALL
GASTEIGER

@<TRIPOS>ATOM
      1  N        -15.7830   40.5370   67.7080 N.3     7  TYR7       -0.1241
      2  CA       -15.9270   39.2570   68.3720 C.3     7  TYR7        0.1605
      3  C        -16.6930   38.2960   67.4590 C.2     7  TYR7        0.2264
      4  O        -17.7470   38.6580   66.9270 O.2     7  TYR7       -0.2867
      5  CB       -16.6190   39.3720   69.7380 C.3     7  TYR7        0.0534
      6  CG       -16.4370   38.1360   70.6050 C.ar    7  TYR7       -0.0201
      7  CD1      -17.2750   37.0330   70.4670 C.ar    7  TYR7       -0.0009
      8  CD2      -15.4430   38.0810   71.5790 C.ar    7  TYR7       -0.0009
      9  CE1      -17.1270   35.9070   71.2700 C.ar    7  TYR7        0.0417
     10  CE2      -15.2920   36.9610   72.3970 C.ar    7  TYR7        0.0417
     11  CZ       -16.1390   35.8760   72.2400 C.ar    7  TYR7        0.1957
     12  OH       -16.0010   34.7600   73.0390 O.3     7  TYR7       -0.2866
     13  N        -18.0240   34.0440   67.0360 N.3     9  PHE9       -0.1241
     14  CA       -18.3120   32.7140   67.5300 C.3     9  PHE9        0.1605
     15  C        -18.7600   31.9460   66.3250 C.2     9  PHE9        0.2264
     16  O        -19.6440   32.4000   65.5880 O.2     9  PHE9       -0.2867
     17  CB       -19.3550   32.6950   68.6700 C.3     9  PHE9        0.0534
     18  CG       -19.8330   31.3100   69.0530 C.ar    9  PHE9       -0.0203
     19  CD1      -19.0680   30.4950   69.8740 C.ar    9  PHE9       -0.0042
     20  CD2      -21.0630   30.8310   68.6080 C.ar    9  PHE9       -0.0042
     21  CE1      -19.5130   29.2130   70.2270 C.ar    9  PHE9       -0.0003
     22  CE2      -21.5150   29.5540   68.9760 C.ar    9  PHE9       -0.0003
     23  CZ       -20.7330   28.7520   69.7800 C.ar    9  PHE9       -0.0000
     24  N        -19.8570   27.9900   65.1990 N.3    11  GLY11      -0.1225
     25  CA       -20.2620   26.6420   65.5700 C.3    11  GLY11       0.1811
     26  C        -20.0280   25.7920   64.3450 C.2    11  GLY11       0.2280
     27  O        -20.8660   25.7500   63.4380 O.2    11  GLY11      -0.2866
     28  N        -17.7280   18.5260   66.1160 N.3    24  LEU24      -0.1245
     29  CA       -18.1010   19.9020   66.4220 C.3    24  LEU24       0.1561
     30  C        -16.8990   20.6400   67.0040 C.2    24  LEU24       0.2260
     31  O        -16.3380   20.2080   68.0060 O.2    24  LEU24      -0.2867
     32  CB       -19.2990   19.9560   67.3970 C.3    24  LEU24       0.0270
     33  CG       -19.6350   21.3270   68.0280 C.3    24  LEU24       0.0019
     34  CD1      -20.7100   21.9950   67.2950 C.3    24  LEU24       0.0001
     35  CD2      -20.0280   21.1770   69.4510 C.3    24  LEU24       0.0001
     36  N        -16.5520   24.3870   68.2180 N.3    26  SER26      -0.1217
     37  CA       -17.1280   25.7040   68.5320 C.3    26  SER26       0.1889
     38  C        -15.9890   26.7070   68.8450 C.2    26  SER26       0.2288
     39  O        -15.3070   26.5750   69.8660 O.2    26  SER26      -0.2866
     40  CB       -18.1230   25.5930   69.6810 C.3    26  SER26       0.2089
     41  OG       -19.2250   24.7990   69.2730 O.3    26  SER26      -0.2183
     42  N         -9.4170   32.4970   70.7140 N.3    35  ILE35      -0.1231
     43  CA        -8.9910   32.5630   72.1110 C.3    35  ILE35       0.1692
     44  C         -9.3290   31.2760   72.9160 C.2    35  ILE35       0.2591
     45  O         -8.5280   30.8600   73.7520 O.2    35  ILE35      -0.2718
     46  CB        -9.5530   33.8560   72.8020 C.3    35  ILE35       0.0266
     47  CG1      -11.1000   33.9850   72.6880 C.3    35  ILE35       0.0019
     48  CG2       -8.8330   35.1120   72.2700 C.3    35  ILE35       0.0020
     49  CD1      -11.7120   35.0610   73.5040 C.3    35  ILE35       0.0001
     50  N        -10.4830   30.6620   72.6650 N.am   36  VAL36      -0.1980
     51  CA       -10.9470   29.4610   73.3750 C.3    36  VAL36       0.1595
     52  C        -11.7270   28.6250   72.3790 C.2    36  VAL36       0.2287
     53  O        -12.2000   29.1770   71.3940 O.2    36  VAL36      -0.2864
     54  CB       -11.7800   29.8340   74.6650 C.3    36  VAL36       0.0276
     55  CG1      -12.9720   30.7380   74.3640 C.3    36  VAL36       0.0022
     56  CG2      -12.2110   28.6110   75.4680 C.3    36  VAL36       0.0022
     57  N        -13.7230   22.4260   77.1200 N.3    45  PHE45      -0.1241
     58  CA       -13.1730   23.6880   76.6350 C.3    45  PHE45       0.1605
     59  C        -11.7010   23.7250   76.9020 C.2    45  PHE45       0.2264
     60  O        -11.2300   23.2580   77.9490 O.2    45  PHE45      -0.2867
     61  CB       -13.8320   24.8940   77.3080 C.3    45  PHE45       0.0534
     62  CG       -15.2660   25.1190   76.9300 C.ar   45  PHE45      -0.0203
     63  CD1      -15.5940   25.8840   75.8170 C.ar   45  PHE45      -0.0042
     64  CD2      -16.2970   24.6070   77.7150 C.ar   45  PHE45      -0.0042
     65  CE1      -16.9280   26.1130   75.4790 C.ar   45  PHE45      -0.0003
     66  CE2      -17.6330   24.8600   77.3900 C.ar   45  PHE45      -0.0003
     67  CZ       -17.9370   25.6030   76.2700 C.ar   45  PHE45      -0.0000
     68  N         -5.8910   34.6320   76.4140 N.3    51  LEU51      -0.1245
     69  CA        -7.0690   35.4890   76.6100 C.3    51  LEU51       0.1561
     70  C         -8.3240   34.6510   76.8980 C.2    51  LEU51       0.2260
     71  O         -9.2470   35.1270   77.5700 O.2    51  LEU51      -0.2867
     72  CB        -7.3260   36.4110   75.4040 C.3    51  LEU51       0.0270
     73  CG        -6.4580   37.6750   75.2660 C.3    51  LEU51       0.0019
     74  CD1       -7.0060   38.5920   74.1800 C.3    51  LEU51       0.0001
     75  CD2       -6.3710   38.4510   76.5710 C.3    51  LEU51       0.0001
     76  N         -9.4120   32.3960   80.9920 N.3    54  PRO54      -0.2102
     77  CA       -10.4930   32.6200   81.9680 C.3    54  PRO54       0.1504
     78  C        -11.8380   31.9910   81.5530 C.2    54  PRO54       0.2575
     79  O        -12.5480   31.4820   82.4250 O.2    54  PRO54      -0.2718
     80  CB       -10.5940   34.1510   82.0310 C.3    54  PRO54       0.0282
     81  CG        -9.2520   34.6270   81.6460 C.3    54  PRO54       0.0208
     82  CD        -8.8680   33.6910   80.5330 C.3    54  PRO54       0.0893
     83  N        -12.1830   32.0110   80.2430 N.am   55  ALA55      -0.1980
     84  CA       -13.4370   31.4420   79.7210 C.3    55  ALA55       0.1597
     85  C        -13.4350   29.9220   79.8070 C.2    55  ALA55       0.2287
     86  O        -14.4480   29.3390   80.1820 O.2    55  ALA55      -0.2864
     87  CB       -13.6700   31.8810   78.2870 C.3    55  ALA55       0.0319
     88  N        -13.8360   28.9340   83.4590 N.3    58  TYR58      -0.1227
     89  CA       -15.1910   29.2030   83.9650 C.3    58  TYR58       0.1736
     90  C        -16.1850   28.1700   83.4290 C.2    58  TYR58       0.2595
     91  O        -16.8660   27.5020   84.2070 O.2    58  TYR58      -0.2718
     92  CB       -15.6340   30.6380   83.6080 C.3    58  TYR58       0.0548
     93  CG       -17.0880   30.9750   83.8910 C.ar   58  TYR58      -0.0200
     94  CD1      -17.6660   30.6900   85.1280 C.ar   58  TYR58      -0.0009
     95  CD2      -17.8540   31.6780   82.9620 C.ar   58  TYR58      -0.0009
     96  CE1      -19.0010   30.9980   85.3940 C.ar   58  TYR58       0.0417
     97  CE2      -19.1820   32.0140   83.2270 C.ar   58  TYR58       0.0417
     98  CZ       -19.7500   31.6770   84.4480 C.ar   58  TYR58       0.1957
     99  OH       -21.0540   32.0100   84.7310 O.3    58  TYR58      -0.2866
    100  N        -16.2550   28.0460   82.0970 N.am   59  TRP59      -0.1976
    101  CA       -17.1490   27.1520   81.3800 C.3    59  TRP59       0.1640
    102  C        -16.8700   25.6840   81.7170 C.2    59  TRP59       0.2290
    103  O        -17.8110   24.8880   81.7460 O.2    59  TRP59      -0.2864
    104  CB       -17.0410   27.4110   79.8590 C.3    59  TRP59       0.0576
    105  CG       -17.4830   28.7850   79.4260 C.ar   59  TRP59       0.0006
    106  CD1      -18.4060   29.5820   80.0420 C.ar   59  TRP59       0.0946
    107  CD2      -17.0940   29.4750   78.2280 C.ar   59  TRP59       0.0152
    108  NE1      -18.5660   30.7520   79.3410 N.ar   59  TRP59      -0.2442
    109  CE2      -17.7820   30.7110   78.2150 C.ar   59  TRP59       0.0810
    110  CE3      -16.2450   29.1630   77.1500 C.ar   59  TRP59       0.0012
    111  CZ2      -17.6270   31.6480   77.1770 C.ar   59  TRP59       0.0191
    112  CZ3      -16.0850   30.0950   76.1280 C.ar   59  TRP59       0.0001
    113  CH2      -16.7670   31.3220   76.1510 C.ar   59  TRP59       0.0015
    114  N        -23.0080   23.7540   81.3740 N.3    65  ILE65      -0.1245
    115  CA       -22.5020   24.2810   80.1010 C.3    65  ILE65       0.1561
    116  C        -21.7970   23.1390   79.3400 C.2    65  ILE65       0.2260
    117  O        -22.1630   22.8440   78.2000 O.2    65  ILE65      -0.2867
    118  CB       -21.6050   25.5440   80.2780 C.3    65  ILE65       0.0252
    119  CG1      -22.3690   26.6470   81.0640 C.3    65  ILE65       0.0019
    120  CG2      -21.1210   26.0550   78.9070 C.3    65  ILE65       0.0019
    121  CD1      -21.5830   27.8720   81.4870 C.3    65  ILE65       0.0001
    122  N        -24.2120   20.4740   77.7310 N.3    68  ARG68      -0.1231
    123  CA       -24.9990   20.9640   76.5960 C.3    68  ARG68       0.1694
    124  C        -24.1210   21.0480   75.3480 C.2    68  ARG68       0.2591
    125  O        -24.5820   20.7340   74.2430 O.2    68  ARG68      -0.2718
    126  CB       -25.6290   22.3200   76.9170 C.3    68  ARG68       0.0321
    127  CG       -26.9750   22.1600   77.6080 C.3    68  ARG68       0.0489
    128  CD       -27.2030   23.2230   78.6440 C.3    68  ARG68       0.2205
    129  NE       -28.3730   22.9560   79.4810 N.pl3  68  ARG68      -0.0865
    130  CZ       -28.3900   22.1520   80.5380 C.cat  68  ARG68       0.5346
    131  NH1      -27.3110   21.4490   80.8660 N.pl3  68  ARG68       0.1354
    132  NH2      -29.4970   22.0120   81.2520 N.pl3  68  ARG68       0.1354
    133  N        -22.8340   21.4310   75.5500 N.am   69  LYS69      -0.1980
    134  CA       -21.7920   21.5190   74.5230 C.3    69  LYS69       0.1596
    135  C        -21.4820   20.1400   73.9760 C.2    69  LYS69       0.2287
    136  O        -21.2820   19.9980   72.7650 O.2    69  LYS69      -0.2864
    137  CB       -20.5150   22.1760   75.0760 C.3    69  LYS69       0.0298
    138  CG       -20.6140   23.6910   75.2580 C.3    69  LYS69       0.0038
    139  CD       -20.4740   24.4940   73.9600 C.3    69  LYS69       0.0206
    140  CE       -21.1870   25.8290   74.0740 C.3    69  LYS69       0.1093
    141  NZ       -20.8860   26.7300   72.9310 N.3    69  LYS69      -0.1314
    142  N        -24.4150   18.9630   71.7150 N.3    72  ALA72      -0.1245
    143  CA       -24.5050   19.7660   70.4900 C.3    72  ALA72       0.1562
    144  C        -24.0890   19.0390   69.1900 C.2    72  ALA72       0.2260
    145  O        -24.5300   19.4420   68.1180 O.2    72  ALA72      -0.2867
    146  CB       -23.6720   21.0200   70.6410 C.3    72  ALA72       0.0290
    147  N        -27.3800   17.4130   68.5720 N.3    75  ARG75      -0.1231
    148  CA       -28.3700   18.4820   68.5450 C.3    75  ARG75       0.1694
    149  C        -28.2300   19.3980   67.3290 C.2    75  ARG75       0.2591
    150  O        -29.2440   19.7380   66.7110 O.2    75  ARG75      -0.2718
    151  CB       -28.2320   19.3030   69.8190 C.3    75  ARG75       0.0321
    152  CG       -29.4670   20.0700   70.2110 C.3    75  ARG75       0.0489
    153  CD       -29.0630   21.2730   71.0240 C.3    75  ARG75       0.2205
    154  NE       -29.3780   22.4590   70.2540 N.pl3  75  ARG75      -0.0865
    155  CZ       -28.6530   23.5660   70.2300 C.cat  75  ARG75       0.5346
    156  NH1      -27.5660   23.6720   70.9860 N.pl3  75  ARG75       0.1354
    157  NH2      -29.0270   24.5890   69.4840 N.pl3  75  ARG75       0.1354
    158  N        -26.9870   19.8150   67.0090 N.am   76  VAL76      -0.1980
    159  CA       -26.6660   20.7020   65.8910 C.3    76  VAL76       0.1595
    160  C        -26.0830   19.9080   64.6790 C.2    76  VAL76       0.2287
    161  O        -26.6930   19.9310   63.6330 O.2    76  VAL76      -0.2864
    162  CB       -25.7110   21.8530   66.3400 C.3    76  VAL76       0.0276
    163  CG1      -25.3120   22.7540   65.1830 C.3    76  VAL76       0.0022
    164  CG2      -26.3160   22.6710   67.4730 C.3    76  VAL76       0.0022
    165  N        -28.1410   16.4110   63.5420 N.3    79  HIS79      -0.1226
    166  CA       -29.4970   16.8120   63.1990 C.3    79  HIS79       0.1752
    167  C        -29.5320   17.6680   61.9400 C.2    79  HIS79       0.2596
    168  O        -30.3000   17.3620   61.0300 O.2    79  HIS79      -0.2718
    169  CB       -30.1590   17.5450   64.3570 C.3    79  HIS79       0.0759
    170  CG       -31.4450   18.2150   63.9890 C.ar   79  HIS79       0.0818
    171  ND1      -32.6290   17.5030   63.8750 N.ar   79  HIS79      -0.2268
    172  CD2      -31.6900   19.5150   63.7140 C.ar   79  HIS79       0.1154
    173  CE1      -33.5490   18.3890   63.5520 C.ar   79  HIS79       0.1986
    174  NE2      -33.0320   19.6130   63.4590 N.ar   79  HIS79      -0.2212
    175  N        -28.7060   18.7210   61.8710 N.am   80  ASN80      -0.1974
    176  CA       -28.6620   19.5910   60.7050 C.3    80  ASN80       0.1688
    177  C        -28.2220   18.8110   59.4630 C.2    80  ASN80       0.2292
    178  O        -28.7980   19.0410   58.3980 O.2    80  ASN80      -0.2864
    179  CB       -27.7710   20.8090   60.9420 C.3    80  ASN80       0.1181
    180  CG       -28.3780   21.8760   61.8200 C.2    80  ASN80       0.2629
    181  OD1      -29.5390   21.8300   62.1990 O.2    80  ASN80      -0.2716
    182  ND2      -27.5980   22.8610   62.1840 N.am   80  ASN80      -0.0877
    183  N        -30.9720   17.3550   57.2330 N.3    83  LEU83      -0.1245
    184  CA       -31.6930   18.3190   56.4200 C.3    83  LEU83       0.1561
    185  C        -30.9180   18.5530   55.1010 C.2    83  LEU83       0.2260
    186  O        -31.5310   18.7080   54.0360 O.2    83  LEU83      -0.2867
    187  CB       -31.8880   19.6330   57.2160 C.3    83  LEU83       0.0270
    188  CG       -32.5250   19.5250   58.6280 C.3    83  LEU83       0.0019
    189  CD1      -32.2970   20.7840   59.4310 C.3    83  LEU83       0.0001
    190  CD2      -33.9990   19.1940   58.5570 C.3    83  LEU83       0.0001
@<TRIPOS>BOND
     1   186   185    2
     2   185   184    1
     3   184   187    1
     4   184   183    1
     5   187   188    1
     6   178   177    2
     7   190   188    1
     8   188   189    1
     9   177   176    1
    10   176   179    1
    11   176   175    1
    12   179   180    1
    13   168   167    2
    14   180   182   am
    15   180   181    2
    16   175   167   am
    17   167   166    1
    18   166   165    1
    19   166   169    1
    20    27    26    2
    21   174   173   ar
    22   174   172   ar
    23   173   171   ar
    24   161   160    2
    25   172   170   ar
    26   171   170   ar
    27   170   169    1
    28    26    25    1
    29   160   159    1
    30   163   162    1
    31    24    25    1
    32    16    15    2
    33   159   162    1
    34   159   158    1
    35    28    29    1
    36    15    14    1
    37   162   164    1
    38    29    30    1
    39    29    32    1
    40   150   149    2
    41     4     3    2
    42    30    31    2
    43   158   149   am
    44    13    14    1
    45    34    33    1
    46   149   148    1
    47    32    33    1
    48     3     2    1
    49    14    17    1
    50     1     2    1
    51    33    35    1
    52   145   144    2
    53    36    37    1
    54     2     5    1
    55    37    38    1
    56    37    40    1
    57   148   147    1
    58   148   151    1
    59    20    22   ar
    60    20    18   ar
    61    17    18    1
    62    38    39    2
    63    22    23   ar
    64    18    19   ar
    65   144   143    1
    66    41    40    1
    67   157   155    1
    68     5     6    1
    69    23    21   ar
    70   151   152    1
    71    19    21   ar
    72   152   153    1
    73   155   154    2
    74   155   156    1
    75   154   153    1
    76     7     6   ar
    77     7     9   ar
    78   143   146    1
    79   143   142    1
    80     6     8   ar
    81    42    43    1
    82     9    11   ar
    83    53    52    2
    84     8    10   ar
    85    43    46    1
    86    43    44    1
    87    11    10   ar
    88    11    12    1
    89    48    46    1
    90    52    51    1
    91    50    44   am
    92    50    51    1
    93    47    46    1
    94    47    49    1
    95   136   135    2
    96    44    45    2
    97   141   140    1
    98    51    54    1
    99   139   140    1
   100   139   138    1
   101   135   134    1
   102    74    73    1
   103   125   124    2
   104    55    54    1
   105   134   137    1
   106   134   133    1
   107    54    56    1
   108   137   138    1
   109    73    72    1
   110    73    75    1
   111   124   133   am
   112   124   123    1
   113    72    69    1
   114    65    63   ar
   115    65    67   ar
   116    63    62   ar
   117   112   113   ar
   118   112   110   ar
   119   113   111   ar
   120    67    66   ar
   121    68    69    1
   122   123   126    1
   123   123   122    1
   124    69    70    1
   125    58    59    1
   126    58    57    1
   127    58    61    1
   128    70    71    2
   129    59    60    2
   130   126   127    1
   131    62    61    1
   132    62    64   ar
   133   110   107   ar
   134   111   109   ar
   135    66    64   ar
   136   127   128    1
   137   117   116    2
   138   109   107   ar
   139   109   108   ar
   140   107   105   ar
   141    87    84    1
   142   128   129    1
   143   120   118    1
   144   116   115    1
   145   108   106   ar
   146   105   104    1
   147   105   106   ar
   148   129   130    2
   149    84    85    1
   150    84    83    1
   151    85    86    2
   152   104   101    1
   153   115   118    1
   154   115   114    1
   155    83    78   am
   156   118   119    1
   157    82    76    1
   158    82    81    1
   159   130   131    1
   160   130   132    1
   161    76    77    1
   162   119   121    1
   163   101   102    1
   164   101   100    1
   165    78    77    1
   166    78    79    2
   167    81    80    1
   168   102   103    2
   169    77    80    1
   170   100    90   am
   171    95    97   ar
   172    95    93   ar
   173    97    98   ar
   174    90    89    1
   175    90    91    2
   176    88    89    1
   177    92    93    1
   178    92    89    1
   179    93    94   ar
   180    98    99    1
   181    98    96   ar
   182    94    96   ar
