@<TRIPOS>MOLECULE
tmp/4ozgC00.pdb
 205 202 0 0 0
SMALL
GASTEIGER

@<TRIPOS>ATOM
      1  N        238.8160   30.1820  237.1140 N.3     9  TYR9       -0.1227
      2  CA       237.8680   29.8270  236.0460 C.3     9  TYR9        0.1736
      3  C        238.4550   28.7620  235.0780 C.2     9  TYR9        0.2596
      4  O        238.7970   29.1020  233.9490 O.2     9  TYR9       -0.2718
      5  CB       237.4430   31.0760  235.2410 C.3     9  TYR9        0.0548
      6  CG       236.9040   32.2480  236.0330 C.ar    9  TYR9       -0.0200
      7  CD1      235.7240   32.1380  236.7650 C.ar    9  TYR9       -0.0009
      8  CD2      237.4970   33.5060  235.9420 C.ar    9  TYR9       -0.0009
      9  CE1      235.1880   33.2300  237.4460 C.ar    9  TYR9        0.0417
     10  CE2      236.9600   34.6100  236.6020 C.ar    9  TYR9        0.0417
     11  CZ       235.8070   34.4670  237.3570 C.ar    9  TYR9        0.1957
     12  OH       235.2770   35.5460  238.0240 O.3     9  TYR9       -0.2866
     13  N        238.5570   27.4950  235.4920 N.am   10  GLY10      -0.1957
     14  CA       238.1730   26.9890  236.8030 C.3    10  GLY10       0.1869
     15  C        239.1770   26.0400  237.4200 C.2    10  GLY10       0.2309
     16  O        240.3440   26.0180  237.0180 O.2    10  GLY10      -0.2863
     17  N        240.0280   22.4700  237.5400 N.3    12  ASN12      -0.1240
     18  CA       239.9130   21.2050  236.8120 C.3    12  ASN12       0.1653
     19  C        240.8610   20.1750  237.4240 C.2    12  ASN12       0.2266
     20  O        242.0640   20.4330  237.4860 O.2    12  ASN12      -0.2867
     21  CB       240.2590   21.3920  235.3140 C.3    12  ASN12       0.1155
     22  CG       239.7320   22.6170  234.5940 C.2    12  ASN12       0.2627
     23  OD1      239.0550   22.5020  233.5730 O.2    12  ASN12      -0.2716
     24  ND2      240.1690   23.8080  234.9910 N.am   12  ASN12      -0.0877
     25  N        235.1000   19.5530  238.0900 N.3    23  TYR23      -0.1241
     26  CA       235.1350   20.8710  237.4610 C.3    23  TYR23       0.1605
     27  C        234.3800   21.8580  238.3360 C.2    23  TYR23       0.2264
     28  O        233.2090   21.6340  238.6560 O.2    23  TYR23      -0.2867
     29  CB       234.5760   20.8730  236.0240 C.3    23  TYR23       0.0534
     30  CG       234.7830   22.2090  235.3420 C.ar   23  TYR23      -0.0201
     31  CD1      233.8430   23.2300  235.4620 C.ar   23  TYR23      -0.0009
     32  CD2      235.9520   22.4810  234.6410 C.ar   23  TYR23      -0.0009
     33  CE1      234.0610   24.4850  234.8970 C.ar   23  TYR23       0.0417
     34  CE2      236.1760   23.7270  234.0630 C.ar   23  TYR23       0.0417
     35  CZ       235.2300   24.7270  234.1960 C.ar   23  TYR23       0.1957
     36  OH       235.4560   25.9510  233.6230 O.3    23  TYR23      -0.2866
     37  N        234.2080   26.4170  239.5580 N.3    25  HIS25      -0.1241
     38  CA       234.5280   27.8290  239.3850 C.3    25  HIS25       0.1621
     39  C        234.5040   28.4730  240.7470 C.2    25  HIS25       0.2264
     40  O        233.5270   28.3070  241.4780 O.2    25  HIS25      -0.2867
     41  CB       233.5400   28.5140  238.4380 C.3    25  HIS25       0.0745
     42  CG       233.9570   28.5350  237.0020 C.ar   25  HIS25       0.0817
     43  ND1      233.5350   29.5390  236.1520 N.ar   25  HIS25      -0.2268
     44  CD2      234.7120   27.6580  236.2990 C.ar   25  HIS25       0.1154
     45  CE1      234.0600   29.2550  234.9720 C.ar   25  HIS25       0.1986
     46  NE2      234.7800   28.1360  235.0130 N.ar   25  HIS25      -0.2212
     47  N        230.0270   27.0550  241.2950 N.3    33  PHE33      -0.1241
     48  CA       229.2950   25.9000  240.7560 C.3    33  PHE33       0.1605
     49  C        230.1880   24.6750  240.5260 C.2    33  PHE33       0.2264
     50  O        231.3920   24.8200  240.3200 O.2    33  PHE33      -0.2867
     51  CB       228.5870   26.2580  239.4290 C.3    33  PHE33       0.0534
     52  CG       229.4710   26.4900  238.2250 C.ar   33  PHE33      -0.0203
     53  CD1      229.8670   25.4300  237.4160 C.ar   33  PHE33      -0.0042
     54  CD2      229.8510   27.7730  237.8610 C.ar   33  PHE33      -0.0042
     55  CE1      230.6620   25.6460  236.2890 C.ar   33  PHE33      -0.0003
     56  CE2      230.6200   27.9920  236.7160 C.ar   33  PHE33      -0.0003
     57  CZ       231.0400   26.9250  235.9510 C.ar   33  PHE33      -0.0000
     58  N        224.7010   25.2080  240.2860 N.3    44  TRP44      -0.1241
     59  CA       225.0270   26.5030  240.9010 C.3    44  TRP44       0.1605
     60  C        224.9080   26.4210  242.4200 C.2    44  TRP44       0.2264
     61  O        223.9790   25.7850  242.9210 O.2    44  TRP44      -0.2867
     62  CB       224.1030   27.6050  240.3640 C.3    44  TRP44       0.0550
     63  CG       224.0690   27.6830  238.8690 C.ar   44  TRP44       0.0003
     64  CD1      223.1620   27.0940  238.0380 C.ar   44  TRP44       0.0946
     65  CD2      225.0160   28.3490  238.0240 C.ar   44  TRP44       0.0152
     66  NE1      223.4720   27.3690  236.7270 N.ar   44  TRP44      -0.2442
     67  CE2      224.6050   28.1410  236.6890 C.ar   44  TRP44       0.0810
     68  CE3      226.1660   29.1190  238.2670 C.ar   44  TRP44       0.0012
     69  CZ2      225.3070   28.6700  235.5990 C.ar   44  TRP44       0.0191
     70  CZ3      226.8580   29.6460  237.1870 C.ar   44  TRP44       0.0001
     71  CH2      226.4290   29.4200  235.8720 C.ar   44  TRP44       0.0015
     72  N        222.4410   32.5770  235.0930 N.3    52  PHE52      -0.1227
     73  CA       223.4330   32.2610  234.0630 C.3    52  PHE52       0.1736
     74  C        223.3490   30.7990  233.6110 C.2    52  PHE52       0.2595
     75  O        222.6000   30.0040  234.1870 O.2    52  PHE52      -0.2718
     76  CB       224.8580   32.5700  234.5720 C.3    52  PHE52       0.0547
     77  CG       225.0940   33.9780  235.0720 C.ar   52  PHE52      -0.0202
     78  CD1      224.6770   35.0790  234.3310 C.ar   52  PHE52      -0.0042
     79  CD2      225.7840   34.2040  236.2560 C.ar   52  PHE52      -0.0042
     80  CE1      224.9050   36.3790  234.7900 C.ar   52  PHE52      -0.0003
     81  CE2      226.0290   35.5060  236.7060 C.ar   52  PHE52      -0.0003
     82  CZ       225.5930   36.5840  235.9680 C.ar   52  PHE52      -0.0000
     83  N        224.1110   30.4590  232.5580 N.am   53  ARG53      -0.1966
     84  CA       224.1930   29.1120  231.9990 C.3    53  ARG53       0.1729
     85  C        225.6420   28.7620  231.6820 C.2    53  ARG53       0.2616
     86  O        226.3730   29.5830  231.1170 O.2    53  ARG53      -0.2715
     87  CB       223.3290   28.9680  230.7260 C.3    53  ARG53       0.0348
     88  CG       221.8230   29.1990  230.9040 C.3    53  ARG53       0.0492
     89  CD       221.0870   28.0160  231.5130 C.3    53  ARG53       0.2205
     90  NE       220.1910   28.4380  232.5930 N.pl3  53  ARG53      -0.0865
     91  CZ       218.9210   28.7950  232.4240 C.cat  53  ARG53       0.5346
     92  NH1      218.3750   28.7870  231.2130 N.pl3  53  ARG53       0.1354
     93  NH2      218.1870   29.1670  233.4640 N.pl3  53  ARG53       0.1354
     94  N        226.0590   27.5480  232.0530 N.am   54  PHE54      -0.1974
     95  CA       227.3950   27.0450  231.7550 C.3    54  PHE54       0.1639
     96  C        227.2570   25.7210  231.0230 C.2    54  PHE54       0.2290
     97  O        226.5730   24.8160  231.5140 O.2    54  PHE54      -0.2864
     98  CB       228.2590   26.9090  233.0210 C.3    54  PHE54       0.0560
     99  CG       229.7060   26.6080  232.7100 C.ar   54  PHE54      -0.0200
    100  CD1      230.5920   27.6310  232.3870 C.ar   54  PHE54      -0.0042
    101  CD2      230.1770   25.3000  232.7100 C.ar   54  PHE54      -0.0042
    102  CE1      231.9200   27.3490  232.0670 C.ar   54  PHE54      -0.0003
    103  CE2      231.5040   25.0190  232.3900 C.ar   54  PHE54      -0.0003
    104  CZ       232.3680   26.0440  232.0730 C.ar   54  PHE54      -0.0000
    105  N        232.0570   21.7860  228.0590 N.3    58  PHE58      -0.1241
    106  CA       233.3430   22.3840  228.4300 C.3    58  PHE58       0.1605
    107  C        234.0330   21.5530  229.5150 C.2    58  PHE58       0.2264
    108  O        235.2040   21.2040  229.3680 O.2    58  PHE58      -0.2867
    109  CB       233.1480   23.8260  228.9330 C.3    58  PHE58       0.0534
    110  CG       233.2570   24.9370  227.9150 C.ar   58  PHE58      -0.0203
    111  CD1      234.4000   25.0790  227.1340 C.ar   58  PHE58      -0.0042
    112  CD2      232.2670   25.9070  227.8160 C.ar   58  PHE58      -0.0042
    113  CE1      234.5160   26.1300  226.2210 C.ar   58  PHE58      -0.0003
    114  CE2      232.3900   26.9640  226.9110 C.ar   58  PHE58      -0.0003
    115  CZ       233.5140   27.0690  226.1210 C.ar   58  PHE58      -0.0000
    116  N        235.0750   18.0200  228.0860 N.3    61  THR61      -0.1203
    117  CA       236.2330   18.1400  227.1830 C.3    61  THR61       0.1994
    118  C        237.5230   18.4620  227.9460 C.2    61  THR61       0.2617
    119  O        238.5660   17.8980  227.6090 O.2    61  THR61      -0.2717
    120  CB       235.9970   19.1670  226.0770 C.3    61  THR61       0.1784
    121  OG1      235.5410   20.3930  226.6490 O.3    61  THR61      -0.2211
    122  CG2      235.0330   18.6660  225.0170 C.3    61  THR61       0.0376
    123  N        237.4510   19.3490  228.9730 N.am   62  ASN62      -0.1974
    124  CA       238.6000   19.7230  229.8110 C.3    62  ASN62       0.1688
    125  C        239.1340   18.4930  230.5460 C.2    62  ASN62       0.2292
    126  O        240.3400   18.2470  230.5070 O.2    62  ASN62      -0.2864
    127  CB       238.2300   20.8310  230.8090 C.3    62  ASN62       0.1181
    128  CG       238.1450   22.2320  230.2370 C.2    62  ASN62       0.2629
    129  OD1      237.8890   22.4510  229.0470 O.2    62  ASN62      -0.2716
    130  ND2      238.3430   23.2270  231.0870 N.am   62  ASN62      -0.0877
    131  N        240.9370   16.0420  228.2970 N.3    65  VAL65      -0.1231
    132  CA       242.3010   16.5150  228.0500 C.3    65  VAL65       0.1692
    133  C        243.1620   16.1310  229.2600 C.2    65  VAL65       0.2591
    134  O        244.2830   15.6580  229.0740 O.2    65  VAL65      -0.2718
    135  CB       242.3480   18.0460  227.7440 C.3    65  VAL65       0.0266
    136  CG1      243.7810   18.5810  227.7050 C.3    65  VAL65       0.0020
    137  CG2      241.6270   18.3730  226.4370 C.3    65  VAL65       0.0020
    138  N        242.6250   16.3010  230.4930 N.am   66  LEU66      -0.1980
    139  CA       243.3380   15.9810  231.7360 C.3    66  LEU66       0.1596
    140  C        243.6730   14.4950  231.8430 C.2    66  LEU66       0.2287
    141  O        244.7100   14.1600  232.4130 O.2    66  LEU66      -0.2864
    142  CB       242.5650   16.4240  232.9860 C.3    66  LEU66       0.0297
    143  CG       242.2760   17.9190  233.2080 C.3    66  LEU66       0.0022
    144  CD1      241.7810   18.1460  234.6090 C.3    66  LEU66       0.0001
    145  CD2      243.4990   18.7960  232.9770 C.3    66  LEU66       0.0001
    146  N        244.4690   12.6130  229.3180 N.3    68  HIS68      -0.1226
    147  CA       245.6180   12.5370  228.4250 C.3    68  HIS68       0.1752
    148  C        246.8400   13.1370  229.1340 C.2    68  HIS68       0.2596
    149  O        247.9340   12.5790  229.0350 O.2    68  HIS68      -0.2718
    150  CB       245.3030   13.2660  227.1050 C.3    68  HIS68       0.0759
    151  CG       246.4790   13.4600  226.2020 C.ar   68  HIS68       0.0818
    152  ND1      246.8370   12.5030  225.2710 N.ar   68  HIS68      -0.2268
    153  CD2      247.3350   14.5030  226.1100 C.ar   68  HIS68       0.1154
    154  CE1      247.9000   12.9890  224.6490 C.ar   68  HIS68       0.1986
    155  NE2      248.2360   14.1900  225.1210 N.ar   68  HIS68      -0.2212
    156  N        246.6440   14.2560  229.8650 N.am   69  ASN69      -0.1974
    157  CA       247.7000   14.9590  230.6000 C.3    69  ASN69       0.1688
    158  C        248.1940   14.1620  231.8150 C.2    69  ASN69       0.2292
    159  O        249.3410   14.3480  232.2220 O.2    69  ASN69      -0.2864
    160  CB       247.2280   16.3450  231.0380 C.3    69  ASN69       0.1181
    161  CG       247.1700   17.3760  229.9360 C.2    69  ASN69       0.2629
    162  OD1      247.0600   17.0620  228.7460 O.2    69  ASN69      -0.2716
    163  ND2      247.2330   18.6430  230.3160 N.am   69  ASN69      -0.0877
    164  N        248.0370   10.5480  231.9660 N.3    71  ASN71      -0.1225
    165  CA       248.6430    9.3800  231.3080 C.3    71  ASN71       0.1785
    166  C        250.0630    9.6920  230.7900 C.2    71  ASN71       0.2598
    167  O        250.9800    8.8910  231.0040 O.2    71  ASN71      -0.2718
    168  CB       247.7370    8.9020  230.1530 C.3    71  ASN71       0.1169
    169  CG       248.2160    7.6820  229.3940 C.2    71  ASN71       0.2627
    170  OD1      248.6770    6.6860  229.9660 O.2    71  ASN71      -0.2716
    171  ND2      248.0610    7.7130  228.0800 N.am   71  ASN71      -0.0877
    172  N        250.2370   10.8630  230.1380 N.am   72  SER72      -0.1938
    173  CA       251.5130   11.3280  229.5800 C.3    72  SER72       0.2055
    174  C        252.5290   11.7090  230.6790 C.2    72  SER72       0.2642
    175  O        253.7260   11.4470  230.5150 O.2    72  SER72      -0.2714
    176  CB       251.2840   12.5200  228.6530 C.3    72  SER72       0.2130
    177  OG       252.4510   12.8710  227.9270 O.3    72  SER72      -0.2179
    178  N        252.0540   12.3190  231.7870 N.am   73  LEU73      -0.1977
    179  CA       252.9230   12.7680  232.8710 C.3    73  LEU73       0.1596
    180  C        253.2950   11.6620  233.8760 C.2    73  LEU73       0.2287
    181  O        254.1860   11.8890  234.6980 O.2    73  LEU73      -0.2864
    182  CB       252.3190   13.9610  233.6010 C.3    73  LEU73       0.0297
    183  CG       253.0910   15.2490  233.3980 C.3    73  LEU73       0.0022
    184  CD1      252.1770   16.3720  233.0280 C.3    73  LEU73       0.0001
    185  CD2      253.9370   15.5870  234.6120 C.3    73  LEU73       0.0001
    186  N        254.3470    8.5890  232.7330 N.3    75  LYS75      -0.1231
    187  CA       255.4880    8.0740  231.9700 C.3    75  LYS75       0.1693
    188  C        256.6970    9.0240  232.0860 C.2    75  LYS75       0.2591
    189  O        257.8400    8.5610  232.1110 O.2    75  LYS75      -0.2718
    190  CB       255.0870    7.8850  230.4970 C.3    75  LYS75       0.0285
    191  CG       256.0060    6.9510  229.7070 C.3    75  LYS75       0.0035
    192  CD       255.4830    6.6720  228.2960 C.3    75  LYS75       0.0206
    193  CE       256.0040    7.6430  227.2630 C.3    75  LYS75       0.1093
    194  NZ       255.4230    7.3790  225.9210 N.3    75  LYS75      -0.1314
    195  N        256.4290   10.3450  232.1780 N.am   76  ARG76      -0.1980
    196  CA       257.4260   11.4150  232.2920 C.3    76  ARG76       0.1597
    197  C        258.0020   11.5300  233.7210 C.2    76  ARG76       0.2287
    198  O        259.1600   11.9320  233.8670 O.2    76  ARG76      -0.2864
    199  CB       256.8010   12.7550  231.8630 C.3    76  ARG76       0.0334
    200  CG       257.8120   13.8370  231.4870 C.3    76  ARG76       0.0492
    201  CD       257.1700   14.9590  230.6990 C.3    76  ARG76       0.2205
    202  NE       256.8920   14.5600  229.3180 N.pl3  76  ARG76      -0.0865
    203  CZ       256.1110   15.2360  228.4810 C.cat  76  ARG76       0.5346
    204  NH1      255.5140   16.3540  228.8750 N.pl3  76  ARG76       0.1354
    205  NH2      255.9150   14.7950  227.2460 N.pl3  76  ARG76       0.1354
@<TRIPOS>BOND
     1   154   155   ar
     2   154   152   ar
     3   122   120    1
     4   155   153   ar
     5   152   151   ar
     6   194   193    1
     7   120   121    1
     8   120   117    1
     9   153   151   ar
    10   115   113   ar
    11   115   114   ar
    12   151   150    1
    13   113   111   ar
    14   137   135    1
    15   114   112   ar
    16   150   147    1
    17   111   110   ar
    18   117   118    1
    19   117   116    1
    20   205   203    1
    21   193   192    1
    22   119   118    2
    23   136   135    1
    24   135   132    1
    25   112   110   ar
    26   110   109    1
    27   177   176    1
    28   118   123   am
    29   132   131    1
    30   132   133    1
    31   105   106    1
    32   171   169   am
    33   192   191    1
    34   147   148    1
    35   147   146    1
    36   106   109    1
    37   106   107    1
    38   203   204    1
    39   203   202    2
    40   176   173    1
    41   162   161    2
    42   123   124    1
    43   149   148    2
    44   129   128    2
    45   134   133    2
    46   148   156   am
    47   133   138   am
    48   202   201    1
    49   108   107    2
    50   169   170    2
    51   169   168    1
    52   173   172    1
    53   173   174    1
    54   191   190    1
    55   124   125    1
    56   124   127    1
    57   156   157    1
    58   161   163   am
    59   161   160    1
    60   172   166   am
    61   168   165    1
    62   128   127    1
    63   128   130   am
    64   138   139    1
    65   190   187    1
    66   126   125    2
    67   175   174    2
    68   157   160    1
    69   157   158    1
    70   174   178   am
    71   201   200    1
    72    87    88    1
    73    87    84    1
    74   166   167    2
    75   166   165    1
    76    88    89    1
    77    96    97    2
    78    96    95    1
    79    86    85    2
    80    92    91    1
    81   165   164    1
    82   200   199    1
    83    89    90    1
    84    85    84    1
    85    85    94   am
    86   139   140    1
    87   139   142    1
    88    95    94    1
    89    95    98    1
    90   178   179    1
    91   158   159    2
    92   140   141    2
    93   199   196    1
    94   187   188    1
    95   187   186    1
    96    84    83    1
    97   102   104   ar
    98   102   100   ar
    99   104   103   ar
   100   188   189    2
   101   188   195   am
   102   195   196    1
   103   196   197    1
   104   100    99   ar
   105   103   101   ar
   106    91    90    2
   107    91    93    1
   108    83    74   am
   109   101    99   ar
   110    99    98    1
   111   179   182    1
   112   179   180    1
   113   145   143    1
   114   142   143    1
   115   184   183    1
   116   143   144    1
   117   183   182    1
   118   183   185    1
   119    23    22    2
   120    74    73    1
   121    74    75    2
   122    36    35    1
   123   197   198    2
   124   180   181    2
   125     4     3    2
   126    73    76    1
   127    73    72    1
   128    34    35   ar
   129    34    32   ar
   130    35    33   ar
   131    78    80   ar
   132    78    77   ar
   133    76    77    1
   134    22    24   am
   135    22    21    1
   136    32    30   ar
   137    80    82   ar
   138    33    31   ar
   139    45    46   ar
   140    45    43   ar
   141    46    44   ar
   142    77    79   ar
   143     3    13   am
   144     3     2    1
   145     5     6    1
   146     5     2    1
   147    21    18    1
   148    30    31   ar
   149    30    29    1
   150    13    14    1
   151    69    71   ar
   152    69    67   ar
   153    71    70   ar
   154     8     6   ar
   155     8    10   ar
   156    57    55   ar
   157    57    56   ar
   158    82    81   ar
   159    29    26    1
   160     6     7   ar
   161     2     1    1
   162    43    42   ar
   163    79    81   ar
   164    55    53   ar
   165    44    42   ar
   166    10    11   ar
   167    67    66   ar
   168    67    65   ar
   169    56    54   ar
   170    66    64   ar
   171     7     9   ar
   172    14    15    1
   173    18    19    1
   174    18    17    1
   175    42    41    1
   176    16    15    2
   177    70    68   ar
   178    11     9   ar
   179    11    12    1
   180    53    52   ar
   181    19    20    2
   182    26    25    1
   183    26    27    1
   184    54    52   ar
   185    65    68   ar
   186    65    63   ar
   187    64    63   ar
   188    52    51    1
   189    27    28    2
   190    41    38    1
   191    63    62    1
   192    38    37    1
   193    38    39    1
   194    51    48    1
   195    58    59    1
   196    50    49    2
   197    62    59    1
   198    49    48    1
   199    39    40    2
   200    48    47    1
   201    59    60    1
   202    60    61    2
