@<TRIPOS>MOLECULE
tmp/4oziB00.pdb
 192 183 0 0 0
SMALL
GASTEIGER

@<TRIPOS>ATOM
      1  N        239.9170  -35.9590  132.7340 N.3     7  TYR7       -0.1241
      2  CA       239.4240  -35.1840  133.8710 C.3     7  TYR7        0.1605
      3  C        239.1850  -33.7410  133.4280 C.2     7  TYR7        0.2264
      4  O        240.0680  -33.1150  132.8320 O.2     7  TYR7       -0.2867
      5  CB       240.3960  -35.2430  135.0620 C.3     7  TYR7        0.0534
      6  CG       239.7910  -34.7600  136.3630 C.ar    7  TYR7       -0.0201
      7  CD1      239.2290  -35.6540  137.2690 C.ar    7  TYR7       -0.0009
      8  CD2      239.7910  -33.4080  136.6960 C.ar    7  TYR7       -0.0009
      9  CE1      238.6710  -35.2130  138.4690 C.ar    7  TYR7        0.0417
     10  CE2      239.2260  -32.9530  137.8860 C.ar    7  TYR7        0.0417
     11  CZ       238.6700  -33.8600  138.7710 C.ar    7  TYR7        0.1957
     12  OH       238.1310  -33.4070  139.9490 O.3     7  TYR7       -0.2866
     13  N        237.3360  -29.7330  134.5300 N.3     9  PHE9       -0.1241
     14  CA       236.8370  -28.8020  135.5340 C.3     9  PHE9        0.1605
     15  C        236.1290  -27.6700  134.8130 C.2     9  PHE9        0.2264
     16  O        236.7670  -26.9180  134.0710 O.2     9  PHE9       -0.2867
     17  CB       237.9310  -28.2770  136.4840 C.3     9  PHE9        0.0534
     18  CG       237.3960  -27.3110  137.5230 C.ar    9  PHE9       -0.0203
     19  CD1      236.7100  -27.7740  138.6400 C.ar    9  PHE9       -0.0042
     20  CD2      237.5460  -25.9390  137.3640 C.ar    9  PHE9       -0.0042
     21  CE1      236.2000  -26.8820  139.5860 C.ar    9  PHE9       -0.0003
     22  CE2      237.0330  -25.0470  138.3120 C.ar    9  PHE9       -0.0003
     23  CZ       236.3630  -25.5250  139.4140 C.ar    9  PHE9       -0.0000
     24  N        234.1690  -24.5040  135.6910 N.3    11  GLY11      -0.1210
     25  CA       233.7460  -23.4510  136.6040 C.3    11  GLY11       0.1956
     26  C        232.8520  -22.4950  135.8460 C.2    11  GLY11       0.2612
     27  O        233.3110  -21.4640  135.3480 O.2    11  GLY11      -0.2717
     28  N        231.5740  -22.8700  135.7110 N.am   12  MET12      -0.1965
     29  CA       230.5850  -22.1440  134.9190 C.3    12  MET12       0.1736
     30  C        229.8450  -21.0550  135.7060 C.2    12  MET12       0.2616
     31  O        229.7100  -21.1340  136.9290 O.2    12  MET12      -0.2715
     32  CB       229.5710  -23.1280  134.3110 C.3    12  MET12       0.0427
     33  CG       230.2170  -24.2410  133.5030 C.3    12  MET12       0.0599
     34  SD       229.0310  -25.4950  132.9780 S.3    12  MET12      -0.1393
     35  CE       228.5150  -24.8130  131.4050 C.3    12  MET12       0.0692
     36  N        229.3650  -20.0390  134.9660 N.am   13  CYS13      -0.1968
     37  CA       228.6020  -18.8940  135.4530 C.3    13  CYS13       0.1712
     38  C        227.3480  -18.7320  134.5990 C.2    13  CYS13       0.2296
     39  O        227.4320  -18.7590  133.3710 O.2    13  CYS13      -0.2864
     40  CB       229.4530  -17.6270  135.4410 C.3    13  CYS13       0.0983
     41  SG       230.8420  -17.6450  136.6080 S.3    13  CYS13      -0.0798
     42  N        226.2290  -19.4790  140.1310 N.3    24  LEU24      -0.1245
     43  CA       227.5430  -20.0890  139.9320 C.3    24  LEU24       0.1561
     44  C        227.4670  -21.5960  140.1510 C.2    24  LEU24       0.2260
     45  O        227.0070  -22.0410  141.2030 O.2    24  LEU24      -0.2867
     46  CB       228.5980  -19.4580  140.8700 C.3    24  LEU24       0.0270
     47  CG       229.8420  -20.3050  141.2060 C.3    24  LEU24       0.0019
     48  CD1      230.9170  -20.1540  140.1590 C.3    24  LEU24       0.0001
     49  CD2      230.3820  -19.9600  142.5710 C.3    24  LEU24       0.0001
     50  N        230.1510  -24.8380  139.6160 N.3    26  SER26      -0.1217
     51  CA       231.4720  -25.3490  139.2590 C.3    26  SER26       0.1889
     52  C        231.4590  -26.8630  139.4230 C.2    26  SER26       0.2288
     53  O        231.1900  -27.3630  140.5190 O.2    26  SER26      -0.2866
     54  CB       232.5670  -24.6970  140.1000 C.3    26  SER26       0.2089
     55  OG       232.4580  -25.0130  141.4770 O.3    26  SER26      -0.2183
     56  N        233.2600  -30.8420  138.5190 N.3    28  SER28      -0.1217
     57  CA       234.4200  -31.6820  138.2320 C.3    28  SER28       0.1889
     58  C        233.9300  -32.9790  137.5880 C.2    28  SER28       0.2288
     59  O        233.0170  -33.6210  138.1160 O.2    28  SER28      -0.2866
     60  CB       235.2140  -31.9420  139.5060 C.3    28  SER28       0.2089
     61  OG       235.6690  -30.7180  140.0630 O.3    28  SER28      -0.2183
     62  N        231.2100  -36.0500  138.5020 N.3    35  ILE35      -0.1245
     63  CA       231.3370  -36.6960  139.8120 C.3    35  ILE35       0.1561
     64  C        230.9270  -35.7680  140.9770 C.2    35  ILE35       0.2260
     65  O        230.2320  -36.2290  141.8870 O.2    35  ILE35      -0.2867
     66  CB       232.7400  -37.3350  140.0450 C.3    35  ILE35       0.0252
     67  CG1      233.9010  -36.3270  139.9190 C.3    35  ILE35       0.0019
     68  CG2      232.9500  -38.5370  139.1170 C.3    35  ILE35       0.0019
     69  CD1      235.0760  -36.6090  140.8440 C.3    35  ILE35       0.0001
     70  N        229.6490  -28.1780  148.5230 N.3    45  PHE45      -0.1241
     71  CA       229.9990  -29.1780  147.5150 C.3    45  PHE45       0.1605
     72  C        229.1140  -30.3970  147.7160 C.2    45  PHE45       0.2264
     73  O        229.0620  -30.9400  148.8230 O.2    45  PHE45      -0.2867
     74  CB       231.4890  -29.5600  147.5860 C.3    45  PHE45       0.0534
     75  CG       232.4420  -28.5360  147.0220 C.ar   45  PHE45      -0.0203
     76  CD1      233.0010  -27.5590  147.8380 C.ar   45  PHE45      -0.0042
     77  CD2      232.8000  -28.5600  145.6800 C.ar   45  PHE45      -0.0042
     78  CE1      233.8860  -26.6110  147.3160 C.ar   45  PHE45      -0.0003
     79  CE2      233.6900  -27.6150  145.1600 C.ar   45  PHE45      -0.0003
     80  CZ       234.2170  -26.6410  145.9800 C.ar   45  PHE45      -0.0000
     81  N        232.1720  -41.5480  143.5010 N.3    51  LEU51      -0.1245
     82  CA       233.5320  -41.0660  143.2330 C.3    51  LEU51       0.1561
     83  C        233.7060  -39.6010  143.6740 C.2    51  LEU51       0.2260
     84  O        234.8310  -39.1570  143.9050 O.2    51  LEU51      -0.2867
     85  CB       233.8660  -41.2010  141.7330 C.3    51  LEU51       0.0270
     86  CG       234.0880  -42.6120  141.1780 C.3    51  LEU51       0.0019
     87  CD1      233.8780  -42.6340  139.6780 C.3    51  LEU51       0.0001
     88  CD2      235.4800  -43.1390  141.5190 C.3    51  LEU51       0.0001
     89  N        234.3090  -38.7440  148.3960 N.3    54  PRO54      -0.2102
     90  CA       235.5020  -38.4880  149.2290 C.3    54  PRO54       0.1504
     91  C        236.0500  -37.0680  149.0970 C.2    54  PRO54       0.2575
     92  O        236.6460  -36.5790  150.0520 O.2    54  PRO54      -0.2718
     93  CB       236.5230  -39.5160  148.7260 C.3    54  PRO54       0.0282
     94  CG       235.7200  -40.5380  147.9830 C.3    54  PRO54       0.0208
     95  CD       234.6180  -39.7460  147.3560 C.3    54  PRO54       0.0893
     96  N        235.8440  -36.4060  147.9400 N.am   55  ALA55      -0.1980
     97  CA       236.2850  -35.0270  147.7080 C.3    55  ALA55       0.1597
     98  C        235.3540  -34.0300  148.4060 C.2    55  ALA55       0.2287
     99  O        235.8380  -33.1160  149.0790 O.2    55  ALA55      -0.2864
    100  CB       236.3340  -34.7320  146.2190 C.3    55  ALA55       0.0319
    101  N        235.7190  -33.9340  152.2300 N.3    58  TYR58      -0.1227
    102  CA       237.0190  -33.3130  152.5110 C.3    58  TYR58       0.1736
    103  C        236.9690  -31.7900  152.2840 C.2    58  TYR58       0.2595
    104  O        237.5270  -31.0380  153.0880 O.2    58  TYR58      -0.2718
    105  CB       238.1020  -33.9800  151.6240 C.3    58  TYR58       0.0548
    106  CG       239.4550  -33.2970  151.5350 C.ar   58  TYR58      -0.0200
    107  CD1      240.2860  -33.2030  152.6490 C.ar   58  TYR58      -0.0009
    108  CD2      239.9570  -32.8640  150.3110 C.ar   58  TYR58      -0.0009
    109  CE1      241.5500  -32.6180  152.5630 C.ar   58  TYR58       0.0417
    110  CE2      241.2180  -32.2740  150.2120 C.ar   58  TYR58       0.0417
    111  CZ       242.0130  -32.1560  151.3410 C.ar   58  TYR58       0.1957
    112  OH       243.2630  -31.5900  151.2450 O.3    58  TYR58      -0.2866
    113  N        236.3060  -31.3420  151.1980 N.am   59  TRP59      -0.1976
    114  CA       236.2060  -29.9200  150.8720 C.3    59  TRP59       0.1640
    115  C        235.1960  -29.2090  151.7800 C.2    59  TRP59       0.2290
    116  O        235.3780  -28.0250  152.0600 O.2    59  TRP59      -0.2864
    117  CB       235.8810  -29.7020  149.3810 C.3    59  TRP59       0.0576
    118  CG       236.9480  -30.2040  148.4400 C.ar   59  TRP59       0.0006
    119  CD1      238.2720  -30.3850  148.7170 C.ar   59  TRP59       0.0946
    120  CD2      236.7740  -30.5700  147.0630 C.ar   59  TRP59       0.0152
    121  NE1      238.9240  -30.8880  147.6160 N.ar   59  TRP59      -0.2442
    122  CE2      238.0300  -31.0070  146.5830 C.ar   59  TRP59       0.0810
    123  CE3      235.6740  -30.5900  146.1880 C.ar   59  TRP59       0.0012
    124  CZ2      238.2210  -31.4330  145.2600 C.ar   59  TRP59       0.0191
    125  CZ3      235.8620  -31.0210  144.8830 C.ar   59  TRP59       0.0001
    126  CH2      237.1240  -31.4310  144.4290 C.ar   59  TRP59       0.0015
    127  N        237.9410  -22.9150  152.6640 N.3    65  ILE65      -0.1245
    128  CA       237.5730  -23.1230  151.2540 C.3    65  ILE65       0.1561
    129  C        236.1240  -22.6500  151.0110 C.2    65  ILE65       0.2260
    130  O        235.8560  -22.0000  149.9930 O.2    65  ILE65      -0.2867
    131  CB       237.8000  -24.6080  150.8330 C.3    65  ILE65       0.0252
    132  CG1      239.3110  -24.9080  150.7360 C.3    65  ILE65       0.0019
    133  CG2      237.0980  -24.9530  149.5060 C.3    65  ILE65       0.0019
    134  CD1      239.7210  -26.3140  151.1080 C.3    65  ILE65       0.0001
    135  N        234.9230  -20.0450  148.1500 N.3    69  LYS69      -0.1245
    136  CA       234.0160  -20.5380  147.1110 C.3    69  LYS69       0.1561
    137  C        232.7000  -19.7550  147.1100 C.2    69  LYS69       0.2260
    138  O        232.1510  -19.4940  146.0370 O.2    69  LYS69      -0.2867
    139  CB       233.7490  -22.0420  147.2710 C.3    69  LYS69       0.0271
    140  CG       234.6040  -22.9110  146.3580 C.3    69  LYS69       0.0035
    141  CD       234.1630  -22.8400  144.8920 C.3    69  LYS69       0.0206
    142  CE       235.1090  -23.5710  143.9700 C.3    69  LYS69       0.1093
    143  NZ       234.7060  -23.4330  142.5470 N.3    69  LYS69      -0.1314
    144  N        233.2890  -16.5820  145.2790 N.3    72  ALA72      -0.1245
    145  CA       233.4800  -16.7850  143.8390 C.3    72  ALA72       0.1562
    146  C        232.3110  -16.2710  142.9710 C.2    72  ALA72       0.2260
    147  O        232.5350  -15.9940  141.7970 O.2    72  ALA72      -0.2867
    148  CB       233.7290  -18.2540  143.5430 C.3    72  ALA72       0.0290
    149  N        233.5300  -12.6380  143.0860 N.3    75  ARG75      -0.1231
    150  CA       234.9400  -12.6840  142.6980 C.3    75  ARG75       0.1694
    151  C        235.1600  -13.2000  141.2670 C.2    75  ARG75       0.2591
    152  O        236.1600  -12.8270  140.6550 O.2    75  ARG75      -0.2718
    153  CB       235.7340  -13.5660  143.6740 C.3    75  ARG75       0.0321
    154  CG       236.0110  -12.9370  145.0400 C.3    75  ARG75       0.0489
    155  CD       237.4720  -12.5560  145.2100 C.3    75  ARG75       0.2205
    156  NE       238.3760  -13.6980  145.0390 N.pl3  75  ARG75      -0.0865
    157  CZ       239.6540  -13.5980  144.6830 C.cat  75  ARG75       0.5346
    158  NH1      240.1970  -12.4080  144.4580 N.pl3  75  ARG75       0.1354
    159  NH2      240.3970  -14.6880  144.5450 N.pl3  75  ARG75       0.1354
    160  N        234.2680  -14.0650  140.7410 N.am   76  VAL76      -0.1980
    161  CA       234.4400  -14.6170  139.3950 C.3    76  VAL76       0.1595
    162  C        233.3050  -14.1440  138.4680 C.2    76  VAL76       0.2287
    163  O        233.5630  -13.3260  137.5900 O.2    76  VAL76      -0.2864
    164  CB       234.5830  -16.1720  139.3930 C.3    76  VAL76       0.0276
    165  CG1      234.7750  -16.7260  137.9810 C.3    76  VAL76       0.0022
    166  CG2      235.7150  -16.6310  140.3060 C.3    76  VAL76       0.0022
    167  N        232.1040  -10.1670  138.5690 N.3    79  HIS79      -0.1226
    168  CA       233.2360   -9.3230  138.1830 C.3    79  HIS79       0.1752
    169  C        233.4790   -9.3960  136.6640 C.2    79  HIS79       0.2596
    170  O        233.5310   -8.3550  136.0050 O.2    79  HIS79      -0.2718
    171  CB       234.4980   -9.7330  138.9750 C.3    79  HIS79       0.0759
    172  CG       235.7640   -9.0910  138.4960 C.ar   79  HIS79       0.0818
    173  ND1      236.6340   -9.7560  137.6470 N.ar   79  HIS79      -0.2268
    174  CD2      236.2590   -7.8570  138.7510 C.ar   79  HIS79       0.1154
    175  CE1      237.6280   -8.9130  137.4220 C.ar   79  HIS79       0.1986
    176  NE2      237.4460   -7.7570  138.0630 N.ar   79  HIS79      -0.2212
    177  N        233.6170  -10.6220  136.1200 N.am   80  ASN80      -0.1974
    178  CA       233.8820  -10.8830  134.7050 C.3    80  ASN80       0.1688
    179  C        232.7310  -10.4440  133.7890 C.2    80  ASN80       0.2292
    180  O        233.0010  -10.0510  132.6530 O.2    80  ASN80      -0.2864
    181  CB       234.2010  -12.3590  134.4810 C.3    80  ASN80       0.1181
    182  CG       235.4800  -12.8240  135.1490 C.2    80  ASN80       0.2629
    183  OD1      236.3270  -12.0260  135.5820 O.2    80  ASN80      -0.2716
    184  ND2      235.6370  -14.1360  135.2580 N.am   80  ASN80      -0.0877
    185  N        233.0040   -6.9050  132.4090 N.3    83  LEU83      -0.1245
    186  CA       233.9450   -6.8280  131.2880 C.3    83  LEU83       0.1561
    187  C        233.2420   -7.2170  129.9910 C.2    83  LEU83       0.2260
    188  O        233.5470   -6.6580  128.9370 O.2    83  LEU83      -0.2867
    189  CB       235.1720   -7.7360  131.5090 C.3    83  LEU83       0.0270
    190  CG       235.9030   -7.6570  132.8540 C.3    83  LEU83       0.0019
    191  CD1      236.8030   -8.8600  133.0490 C.3    83  LEU83       0.0001
    192  CD2      236.7120   -6.3780  132.9800 C.3    83  LEU83       0.0001
@<TRIPOS>BOND
     1   188   187    2
     2   187   186    1
     3   186   189    1
     4   186   185    1
     5    35    34    1
     6   189   190    1
     7   180   179    2
     8     1     2    1
     9     4     3    2
    10   190   192    1
    11   190   191    1
    12    34    33    1
    13    39    38    2
    14     3     2    1
    15    33    32    1
    16   179   178    1
    17     2     5    1
    18    16    15    2
    19    32    29    1
    20   181   178    1
    21   181   182    1
    22    13    14    1
    23    38    37    1
    24   178   177    1
    25    15    14    1
    26    29    30    1
    27    29    28    1
    28    36    37    1
    29    36    30   am
    30     5     6    1
    31   182   184   am
    32   182   183    2
    33    27    26    2
    34    40    37    1
    35    40    41    1
    36    14    17    1
    37    24    25    1
    38    30    31    2
    39    28    26   am
    40    26    25    1
    41   170   169    2
    42   177   169   am
    43     6     8   ar
    44     6     7   ar
    45    17    18    1
    46   169   168    1
    47     8    10   ar
    48     7     9   ar
    49    20    18   ar
    50    20    22   ar
    51   175   173   ar
    52   175   176   ar
    53    18    19   ar
    54    58    59    2
    55    58    57    1
    56   163   162    2
    57   173   172   ar
    58    10    11   ar
    59   165   164    1
    60   176   174   ar
    61   168   167    1
    62   168   171    1
    63    57    56    1
    64    57    60    1
    65    22    23   ar
    66   162   161    1
    67     9    11   ar
    68   172   174   ar
    69   172   171    1
    70    62    63    1
    71    19    21   ar
    72    11    12    1
    73    68    66    1
    74    51    52    1
    75    51    50    1
    76    51    54    1
    77   164   161    1
    78   164   166    1
    79   161   160    1
    80    23    21   ar
    81    52    53    2
    82    60    61    1
    83    87    86    1
    84    63    66    1
    85    63    64    1
    86    67    66    1
    87    67    69    1
    88    43    42    1
    89    43    44    1
    90    43    46    1
    91    54    55    1
    92    44    45    2
    93    48    47    1
    94   152   151    2
    95   160   151   am
    96    46    47    1
    97    64    65    2
    98    86    88    1
    99    86    85    1
   100    47    49    1
   101   151   150    1
   102    85    82    1
   103   147   146    2
   104   143   142    1
   105   150   149    1
   106   150   153    1
   107   146   145    1
   108    82    81    1
   109    82    83    1
   110   148   145    1
   111    83    84    2
   112   153   154    1
   113   145   144    1
   114   142   141    1
   115   126   125   ar
   116   126   124   ar
   117   158   157    1
   118   159   157    1
   119   157   156    2
   120   125   123   ar
   121   141   140    1
   122   156   155    1
   123   154   155    1
   124    79    77   ar
   125    79    80   ar
   126   124   122   ar
   127    77    75   ar
   128    80    78   ar
   129   138   137    2
   130   123   120   ar
   131   100    97    1
   132   140   139    1
   133   122   120   ar
   134   122   121   ar
   135    75    74    1
   136    75    76   ar
   137   120   118   ar
   138   137   136    1
   139   136   139    1
   140   136   135    1
   141    78    76   ar
   142    95    94    1
   143    95    89    1
   144    71    74    1
   145    71    72    1
   146    71    70    1
   147   121   119   ar
   148    97    96    1
   149    97    98    1
   150    72    73    2
   151    96    91   am
   152    94    93    1
   153    89    90    1
   154    98    99    2
   155   118   119   ar
   156   118   117    1
   157    93    90    1
   158    91    90    1
   159    91    92    2
   160   117   114    1
   161   133   131    1
   162   130   129    2
   163   110   108   ar
   164   110   111   ar
   165   108   106   ar
   166   132   131    1
   167   132   134    1
   168   131   128    1
   169   114   113    1
   170   114   115    1
   171   129   128    1
   172   113   103   am
   173   112   111    1
   174   128   127    1
   175   111   109   ar
   176   106   105    1
   177   106   107   ar
   178   105   102    1
   179   115   116    2
   180   101   102    1
   181   103   102    1
   182   103   104    2
   183   109   107   ar
