@<TRIPOS>MOLECULE
tmp/4ozjA00.pdb
 100 96 0 0 0
SMALL
GASTEIGER

@<TRIPOS>ATOM
      1  N         -8.5810    6.3660   12.4470 N.3    13  ILE13      -0.1245
      2  CA        -8.9650    5.8500   11.1540 C.3    13  ILE13       0.1561
      3  C        -10.0530    6.7570   10.6360 C.2    13  ILE13       0.2260
      4  O        -11.0770    6.9310   11.3070 O.2    13  ILE13      -0.2867
      5  CB        -9.4550    4.3920   11.1870 C.3    13  ILE13       0.0252
      6  CG1       -8.4080    3.4760   11.8110 C.3    13  ILE13       0.0019
      7  CG2       -9.8030    3.9400    9.7760 C.3    13  ILE13       0.0019
      8  CD1       -8.5490    3.3370   13.2970 C.3    13  ILE13       0.0001
      9  N         -5.3440    2.0580    4.4040 N.3    39  VAL39      -0.1231
     10  CA        -5.9690    0.8510    4.9790 C.3    39  VAL39       0.1692
     11  C         -7.3500    0.6420    4.3810 C.2    39  VAL39       0.2593
     12  O         -7.8190    1.4280    3.5800 O.2    39  VAL39      -0.2718
     13  CB        -6.0340    0.9350    6.5170 C.3    39  VAL39       0.0266
     14  CG1       -4.6460    1.1590    7.1230 C.3    39  VAL39       0.0020
     15  CG2       -6.9800    2.0600    6.9530 C.3    39  VAL39       0.0020
     16  N         -7.9680   -0.4760    4.7410 N.am   40  SER40      -0.1938
     17  CA        -9.3290   -0.8370    4.3490 C.3    40  SER40       0.2055
     18  C        -10.0710   -1.2370    5.6190 C.2    40  SER40       0.2644
     19  O         -9.4610   -1.7550    6.5460 O.2    40  SER40      -0.2714
     20  CB        -9.2900   -2.0200    3.3780 C.3    40  SER40       0.2130
     21  OG        -8.4780   -1.7490    2.2410 O.3    40  SER40      -0.2179
     22  N        -11.3770   -1.0460    5.6690 N.am   41  GLY41      -0.1939
     23  CA       -12.0630   -1.4260    6.8790 C.3    41  GLY41       0.2014
     24  C        -13.5620   -1.5340    6.7510 C.2    41  GLY41       0.2639
     25  O        -14.1380   -1.2230    5.7090 O.2    41  GLY41      -0.2714
     26  N        -14.1650   -2.0300    7.8130 N.am   42  ARG42      -0.1963
     27  CA       -15.6020   -1.9370    8.0100 C.3    42  ARG42       0.1729
     28  C        -15.8630   -1.6760    9.4750 C.2    42  ARG42       0.2617
     29  O        -15.0480   -1.9800   10.3330 O.2    42  ARG42      -0.2715
     30  CB       -16.3290   -3.2000    7.5400 C.3    42  ARG42       0.0348
     31  CG       -16.0380   -4.3940    8.4160 C.3    42  ARG42       0.0492
     32  CD       -16.8010   -5.6500    8.0350 C.3    42  ARG42       0.2205
     33  NE       -16.4160   -6.7250    8.9380 N.pl3  42  ARG42      -0.0865
     34  CZ       -16.5730   -8.0310    8.6890 C.cat  42  ARG42       0.5346
     35  NH1      -16.1770   -8.9170    9.5980 N.pl3  42  ARG42       0.1354
     36  NH2      -17.0790   -8.4550    7.5310 N.pl3  42  ARG42       0.1354
     37  N        -17.0230   -1.0830    9.7650 N.am   43  GLY43      -0.1940
     38  CA       -17.4430   -0.8600   11.1420 C.3    43  GLY43       0.2014
     39  C        -18.5480   -1.8510   11.5000 C.2    43  GLY43       0.2639
     40  O        -18.4620   -3.0420   11.1600 O.2    43  GLY43      -0.2714
     41  N        -19.5790   -1.3520   12.1810 N.am   44  SER44      -0.1949
     42  CA       -20.7660   -2.1370   12.5500 C.3    44  SER44       0.1924
     43  C        -21.8330   -2.1480   11.4370 C.2    44  SER44       0.2314
     44  O        -22.9500   -2.6370   11.6490 O.2    44  SER44      -0.2863
     45  CB       -21.3880   -1.5580   13.8290 C.3    44  SER44       0.2116
     46  OG       -20.4430   -1.4850   14.8810 O.3    44  SER44      -0.2180
     47  N         -9.9040    3.4950    3.6710 N.3    50  LYS50      -0.1245
     48  CA        -9.7740    4.4350    4.7810 C.3    50  LYS50       0.1561
     49  C         -8.3070    4.8910    4.8880 C.2    50  LYS50       0.2260
     50  O         -7.4210    4.3680    4.1870 O.2    50  LYS50      -0.2867
     51  CB       -10.2650    3.8510    6.1100 C.3    50  LYS50       0.0271
     52  CG       -11.7200    3.3530    6.1140 C.3    50  LYS50       0.0035
     53  CD       -12.7150    4.5030    6.0840 C.3    50  LYS50       0.0206
     54  CE       -14.1220    3.9490    5.8670 C.3    50  LYS50       0.1093
     55  NZ       -15.1480    5.0270    5.8100 N.3    50  LYS50      -0.1314
     56  N        -22.2880    7.7360    8.8180 N.3    78  LYS78      -0.1231
     57  CA       -21.6280    6.4900    9.1800 C.3    78  LYS78       0.1693
     58  C        -20.4160    6.2720    8.2740 C.2    78  LYS78       0.2593
     59  O        -20.4660    6.5560    7.0740 O.2    78  LYS78      -0.2718
     60  CB       -22.6100    5.3170    9.1100 C.3    78  LYS78       0.0285
     61  CG       -23.7390    5.4600   10.1280 C.3    78  LYS78       0.0035
     62  CD       -24.6970    4.2790   10.1160 C.3    78  LYS78       0.0206
     63  CE       -25.7680    4.4310   11.1870 C.3    78  LYS78       0.1093
     64  NZ       -25.2190    4.2630   12.5620 N.3    78  LYS78      -0.1314
     65  N        -19.3220    5.8010    8.8710 N.am   79  GLY79      -0.1942
     66  CA       -18.0380    5.6680    8.1780 C.3    79  GLY79       0.2014
     67  C        -16.9970    6.7210    8.5480 C.2    79  GLY79       0.2639
     68  O        -15.8660    6.6580    8.0780 O.2    79  GLY79      -0.2714
     69  N        -17.3670    7.6670    9.4080 N.am   80  ASP80      -0.1957
     70  CA       -16.4430    8.7280    9.8240 C.3    80  ASP80       0.1840
     71  C        -15.2100    8.2260   10.5700 C.2    80  ASP80       0.2623
     72  O        -14.1890    8.8780   10.5460 O.2    80  ASP80      -0.2715
     73  CB       -17.1390    9.7470   10.7150 C.3    80  ASP80       0.1450
     74  CG       -17.8770   10.8190    9.9300 C.2    80  ASP80       0.3671
     75  OD1      -17.8930   10.8110    8.6730 O.co2  80  ASP80      -0.2456
     76  OD2      -18.4300   11.6990   10.6110 O.co2  80  ASP80      -0.2456
     77  N        -15.3130    7.1030   11.2690 N.am   81  GLY81      -0.1940
     78  CA       -14.1390    6.4780   11.8780 C.3    81  GLY81       0.2014
     79  C        -14.0180    6.7160   13.3580 C.2    81  GLY81       0.2638
     80  O        -14.9660    7.1720   14.0200 O.2    81  GLY81      -0.2714
     81  N        -12.8540    6.3990   13.8880 N.am   82  LYS82      -0.1977
     82  CA       -12.6240    6.3720   15.3020 C.3    82  LYS82       0.1596
     83  C        -11.1890    6.7660   15.5660 C.2    82  LYS82       0.2287
     84  O        -10.3220    6.5920   14.7110 O.2    82  LYS82      -0.2864
     85  CB       -12.8870    4.9720   15.8720 C.3    82  LYS82       0.0298
     86  CG       -14.3670    4.5690   15.8280 C.3    82  LYS82       0.0038
     87  CD       -14.7200    3.4800   16.8280 C.3    82  LYS82       0.0206
     88  CE       -16.1880    3.0790   16.7050 C.3    82  LYS82       0.1093
     89  NZ       -16.4310    2.2310   15.5160 N.3    82  LYS82      -0.1314
     90  N         -8.2030    6.2600   18.6090 N.3    84  PHE84      -0.1241
     91  CA        -7.7750    5.4900   19.7510 C.3    84  PHE84       0.1605
     92  C         -6.4950    6.0790   20.3260 C.2    84  PHE84       0.2264
     93  O         -5.6440    6.5500   19.5820 O.2    84  PHE84      -0.2867
     94  CB        -7.5260    4.0360   19.3270 C.3    84  PHE84       0.0534
     95  CG        -8.6870    3.4180   18.6010 C.ar   84  PHE84      -0.0203
     96  CD1       -9.8420    3.1230   19.2920 C.ar   84  PHE84      -0.0042
     97  CD2       -8.6360    3.1710   17.2420 C.ar   84  PHE84      -0.0042
     98  CE1      -10.9190    2.5550   18.6450 C.ar   84  PHE84      -0.0003
     99  CE2       -9.7240    2.6140   16.5790 C.ar   84  PHE84      -0.0003
    100  CZ       -10.8620    2.3000   17.2890 C.ar   84  PHE84      -0.0000
@<TRIPOS>BOND
     1    21    20    1
     2    20    17    1
     3    12    11    2
     4    47    48    1
     5    50    49    2
     6    17    16    1
     7    17    18    1
     8    11    16   am
     9    11    10    1
    10     9    10    1
    11    48    49    1
    12    48    51    1
    13    10    13    1
    14    18    22   am
    15    18    19    2
    16    22    23    1
    17    25    24    2
    18    55    54    1
    19    54    53    1
    20    53    52    1
    21    51    52    1
    22    13    15    1
    23    13    14    1
    24    24    23    1
    25    24    26   am
    26    59    58    2
    27    36    34    1
    28    30    27    1
    29    30    31    1
    30    26    27    1
    31    27    28    1
    32    32    31    1
    33    32    33    1
    34    68    67    2
    35    66    67    1
    36    66    65    1
    37    58    65   am
    38    58    57    1
    39    67    69   am
    40    75    74   ar
    41    34    33    2
    42    34    35    1
    43    56    57    1
    44    60    57    1
    45    60    61    1
    46    69    70    1
    47    28    37   am
    48    28    29    2
    49    37    38    1
    50     7     5    1
    51    70    71    1
    52    70    73    1
    53    74    76   ar
    54    74    73    1
    55    62    61    1
    56    62    63    1
    57    72    71    2
    58    71    77   am
    59     3     2    1
    60     3     4    2
    61    38    39    1
    62     2     5    1
    63     2     1    1
    64    40    39    2
    65    63    64    1
    66     5     6    1
    67    77    78    1
    68    43    44    2
    69    43    42    1
    70    39    41   am
    71     6     8    1
    72    78    79    1
    73    41    42    1
    74    42    45    1
    75    79    81   am
    76    79    80    2
    77    45    46    1
    78    81    82    1
    79    84    83    2
    80    82    83    1
    81    82    85    1
    82    89    88    1
    83    86    85    1
    84    86    87    1
    85    99    97   ar
    86    99   100   ar
    87    88    87    1
    88    97    95   ar
    89   100    98   ar
    90    95    96   ar
    91    95    94    1
    92    90    91    1
    93    98    96   ar
    94    94    91    1
    95    93    92    2
    96    91    92    1
