@<TRIPOS>MOLECULE
tmp/4ozlA00.pdb
 100 96 0 0 0
SMALL
GASTEIGER

@<TRIPOS>ATOM
      1  N         54.2490   81.5050  107.5550 N.3    14  ILE14      -0.1245
      2  CA        53.9420   82.1240  106.2680 C.3    14  ILE14       0.1561
      3  C         55.2550   82.6740  105.7450 C.2    14  ILE14       0.2260
      4  O         55.8750   83.5360  106.3850 O.2    14  ILE14      -0.2867
      5  CB        52.9310   83.2840  106.3890 C.3    14  ILE14       0.0252
      6  CG1       51.7340   82.8750  107.2460 C.3    14  ILE14       0.0019
      7  CG2       52.4830   83.7500  105.0010 C.3    14  ILE14       0.0019
      8  CD1       50.9100   81.7950  106.6290 C.3    14  ILE14       0.0001
      9  N         48.9600   80.7580   99.5150 N.3    40  VAL40      -0.1231
     10  CA        48.2530   81.8850  100.1360 C.3    40  VAL40       0.1692
     11  C         48.7670   83.2110   99.5670 C.2    40  VAL40       0.2593
     12  O         49.6970   83.2310   98.7510 O.2    40  VAL40      -0.2718
     13  CB        48.3930   81.8940  101.7030 C.3    40  VAL40       0.0266
     14  CG1       47.8980   80.5740  102.2980 C.3    40  VAL40       0.0020
     15  CG2       49.8440   82.1740  102.1350 C.3    40  VAL40       0.0020
     16  N         48.1380   84.3110   99.9550 N.am   41  SER41      -0.1938
     17  CA        48.6370   85.6450   99.6210 C.3    41  SER41       0.2055
     18  C         48.5070   86.5320  100.8470 C.2    41  SER41       0.2644
     19  O         47.7480   86.2180  101.7600 O.2    41  SER41      -0.2714
     20  CB        47.8710   86.2450   98.4390 C.3    41  SER41       0.2130
     21  OG        48.1430   85.5160   97.2530 O.3    41  SER41      -0.2179
     22  N         49.2280   87.6480  100.8810 N.am   42  GLY42      -0.1939
     23  CA        49.0950   88.5010  102.0370 C.3    42  GLY42       0.2014
     24  C         49.7800   89.8390  101.9220 C.2    42  GLY42       0.2639
     25  O         50.4070   90.1630  100.9090 O.2    42  GLY42      -0.2714
     26  N         49.6440   90.6240  102.9850 N.am   43  ARG43      -0.1963
     27  CA        50.4740   91.8040  103.1620 C.3    43  ARG43       0.1729
     28  C         50.8350   91.8920  104.6300 C.2    43  ARG43       0.2617
     29  O         50.1560   91.3110  105.4820 O.2    43  ARG43      -0.2715
     30  CB        49.7420   93.0660  102.7170 C.3    43  ARG43       0.0348
     31  CG        48.5190   93.3500  103.5620 C.3    43  ARG43       0.0492
     32  CD        47.7550   94.6040  103.1350 C.3    43  ARG43       0.2205
     33  NE        46.6750   94.8630  104.0810 N.pl3  43  ARG43      -0.0865
     34  CZ        45.6330   95.6590  103.8540 C.cat  43  ARG43       0.5346
     35  NH1       44.7090   95.8080  104.7940 N.pl3  43  ARG43       0.1354
     36  NH2       45.5060   96.2980  102.6960 N.pl3  43  ARG43       0.1354
     37  N         51.9220   92.5940  104.9200 N.am   44  GLY44      -0.1940
     38  CA        52.3330   92.8090  106.2920 C.3    44  GLY44       0.2014
     39  C         52.0550   94.2340  106.7260 C.2    44  GLY44       0.2639
     40  O         50.9810   94.7800  106.4490 O.2    44  GLY44      -0.2714
     41  N         53.0380   94.8100  107.4170 N.am   45  SER45      -0.1949
     42  CA        53.0400   96.1910  107.9000 C.3    45  SER45       0.1924
     43  C         52.4390   96.3040  109.2970 C.2    45  SER45       0.2314
     44  O         53.0320   95.8280  110.2680 O.2    45  SER45      -0.2863
     45  CB        52.3620   97.1510  106.9190 C.3    45  SER45       0.2116
     46  OG        52.5240   98.4950  107.3450 O.3    45  SER45      -0.2180
     47  N         52.4470   84.1240   98.9220 N.3    50  LYS50      -0.1245
     48  CA        53.2660   83.5190   99.9730 C.3    50  LYS50       0.1561
     49  C         52.9290   82.0380  100.0460 C.2    50  LYS50       0.2260
     50  O         52.0340   81.5570   99.3470 O.2    50  LYS50      -0.2867
     51  CB        53.0050   84.1730  101.3440 C.3    50  LYS50       0.0271
     52  CG        53.2600   85.6930  101.3850 C.3    50  LYS50       0.0035
     53  CD        54.7520   86.0510  101.3340 C.3    50  LYS50       0.0206
     54  CE        54.9380   87.5160  100.9620 C.3    50  LYS50       0.1093
     55  NZ        56.3780   87.9190  100.8420 N.3    50  LYS50      -0.1314
     56  N         62.2400   92.8290  103.8690 N.3    78  LYS78      -0.1231
     57  CA        60.8390   92.8660  104.2760 C.3    78  LYS78       0.1693
     58  C         60.0120   91.9700  103.3640 C.2    78  LYS78       0.2593
     59  O         60.1850   91.9860  102.1420 O.2    78  LYS78      -0.2718
     60  CB        60.3180   94.3020  104.2770 C.3    78  LYS78       0.0285
     61  CG        61.0010   95.1660  105.3410 C.3    78  LYS78       0.0035
     62  CD        60.3410   96.5280  105.4660 C.3    78  LYS78       0.0206
     63  CE        60.7440   97.2110  106.7650 C.3    78  LYS78       0.1093
     64  NZ        59.9710   98.4630  106.9920 N.3    78  LYS78      -0.1314
     65  N         59.1340   91.1700  103.9660 N.am   79  GLY79      -0.1942
     66  CA        58.3550   90.1850  103.2360 C.3    79  GLY79       0.2014
     67  C         58.7250   88.7560  103.6170 C.2    79  GLY79       0.2639
     68  O         58.1220   87.8080  103.1230 O.2    79  GLY79      -0.2714
     69  N         59.7130   88.5910  104.5020 N.am   80  ASP80      -0.1957
     70  CA        60.1740   87.2550  104.9050 C.3    80  ASP80       0.1840
     71  C         59.1180   86.4410  105.6570 C.2    80  ASP80       0.2623
     72  O         59.1970   85.2150  105.7050 O.2    80  ASP80      -0.2715
     73  CB        61.4120   87.3720  105.8010 C.3    80  ASP80       0.1450
     74  CG        62.7130   87.4370  105.0210 C.2    80  ASP80       0.3671
     75  OD1       62.6960   87.4080  103.7740 O.co2  80  ASP80      -0.2456
     76  OD2       63.7720   87.5300  105.6840 O.co2  80  ASP80      -0.2456
     77  N         58.1630   87.1190  106.2860 N.am   81  GLY81      -0.1940
     78  CA        57.0710   86.4260  106.9390 C.3    81  GLY81       0.2014
     79  C         57.2340   86.1520  108.4240 C.2    81  GLY81       0.2638
     80  O         58.0710   86.7460  109.1190 O.2    81  GLY81      -0.2714
     81  N         56.4070   85.2330  108.9100 N.am   82  LYS82      -0.1977
     82  CA        56.2310   85.0150  110.3370 C.3    82  LYS82       0.1596
     83  C         55.9860   83.5500  110.6310 C.2    82  LYS82       0.2287
     84  O         55.4600   82.8140  109.7880 O.2    82  LYS82      -0.2864
     85  CB        55.0000   85.7710  110.8400 C.3    82  LYS82       0.0298
     86  CG        54.8610   87.1950  110.3740 C.3    82  LYS82       0.0038
     87  CD        55.7060   88.0920  111.2190 C.3    82  LYS82       0.0206
     88  CE        54.8720   89.1920  111.8620 C.3    82  LYS82       0.1093
     89  NZ        54.5630   90.3090  110.9400 N.3    82  LYS82      -0.1314
     90  N         54.0200   81.2090  113.6690 N.3    84  PHE84      -0.1241
     91  CA        53.1350   81.2630  114.8230 C.3    84  PHE84       0.1605
     92  C         53.0070   79.8750  115.4350 C.2    84  PHE84       0.2264
     93  O         53.0200   78.8760  114.7230 O.2    84  PHE84      -0.2867
     94  CB        51.7550   81.7630  114.4020 C.3    84  PHE84       0.0534
     95  CG        51.7890   83.0720  113.6790 C.ar   84  PHE84      -0.0203
     96  CD1       52.0960   84.2420  114.3610 C.ar   84  PHE84      -0.0042
     97  CD2       51.5290   83.1420  112.3200 C.ar   84  PHE84      -0.0042
     98  CE1       52.1370   85.4590  113.7070 C.ar   84  PHE84      -0.0003
     99  CE2       51.5660   84.3640  111.6590 C.ar   84  PHE84      -0.0003
    100  CZ        51.8660   85.5220  112.3560 C.ar   84  PHE84      -0.0000
@<TRIPOS>BOND
     1    21    20    1
     2    20    17    1
     3    12    11    2
     4    47    48    1
     5    50    49    2
     6     9    10    1
     7    11    16   am
     8    11    10    1
     9    17    16    1
    10    17    18    1
    11    48    49    1
    12    48    51    1
    13    10    13    1
    14    55    54    1
    15    18    22   am
    16    18    19    2
    17    22    23    1
    18    25    24    2
    19    54    53    1
    20    53    52    1
    21    51    52    1
    22    13    15    1
    23    13    14    1
    24    24    23    1
    25    24    26   am
    26    59    58    2
    27    36    34    1
    28    30    27    1
    29    30    31    1
    30    26    27    1
    31    68    67    2
    32    32    31    1
    33    32    33    1
    34    27    28    1
    35    66    67    1
    36    66    65    1
    37    58    65   am
    38    58    57    1
    39    67    69   am
    40    75    74   ar
    41    34    33    2
    42    34    35    1
    43    56    57    1
    44    57    60    1
    45    60    61    1
    46    69    70    1
    47    28    37   am
    48    28    29    2
    49    70    71    1
    50    70    73    1
    51    37    38    1
    52     7     5    1
    53    74    76   ar
    54    74    73    1
    55    61    62    1
    56    62    63    1
    57    71    72    2
    58    71    77   am
    59     3     2    1
    60     3     4    2
    61     2     5    1
    62     2     1    1
    63    77    78    1
    64    38    39    1
    65     5     6    1
    66    40    39    2
    67     8     6    1
    68    39    41   am
    69    63    64    1
    70    45    46    1
    71    45    42    1
    72    78    79    1
    73    41    42    1
    74    42    43    1
    75    79    81   am
    76    79    80    2
    77    81    82    1
    78    43    44    2
    79    84    83    2
    80    82    83    1
    81    82    85    1
    82    86    85    1
    83    86    87    1
    84    89    88    1
    85    87    88    1
    86    99    97   ar
    87    99   100   ar
    88    97    95   ar
    89   100    98   ar
    90    90    91    1
    91    95    96   ar
    92    95    94    1
    93    98    96   ar
    94    94    91    1
    95    93    92    2
    96    91    92    1
