@<TRIPOS>MOLECULE
tmp/4oznA00.pdb
 119 115 0 0 0
SMALL
GASTEIGER

@<TRIPOS>ATOM
      1  N        -46.7440   38.7050  -21.7410 N.3    14  ILE14      -0.1245
      2  CA       -47.8820   38.8440  -20.8420 C.3    14  ILE14       0.1561
      3  C        -49.0570   38.2440  -21.5830 C.2    14  ILE14       0.2260
      4  O        -49.4500   38.7450  -22.6370 O.2    14  ILE14      -0.2867
      5  CB       -48.1860   40.3170  -20.4720 C.3    14  ILE14       0.0252
      6  CG1      -46.8980   41.1110  -20.1730 C.3    14  ILE14       0.0019
      7  CG2      -49.1800   40.3860  -19.3180 C.3    14  ILE14       0.0019
      8  CD1      -46.0470   40.5570  -19.0530 C.3    14  ILE14       0.0001
      9  N        -49.6530   37.8040  -12.5770 N.3    40  VAL40      -0.1231
     10  CA       -49.6440   39.2630  -12.6380 C.3    40  VAL40       0.1692
     11  C        -51.0330   39.7900  -12.9580 C.2    40  VAL40       0.2593
     12  O        -51.9520   39.0220  -13.2260 O.2    40  VAL40      -0.2718
     13  CB       -48.6350   39.8030  -13.6930 C.3    40  VAL40       0.0266
     14  CG1      -47.2040   39.4530  -13.3100 C.3    40  VAL40       0.0020
     15  CG2      -48.9540   39.2920  -15.0910 C.3    40  VAL40       0.0020
     16  N        -51.1720   41.1090  -12.9280 N.am   41  SER41      -0.1938
     17  CA       -52.3880   41.7750  -13.3620 C.3    41  SER41       0.2055
     18  C        -52.0070   43.0510  -14.0960 C.2    41  SER41       0.2644
     19  O        -50.9390   43.6020  -13.8610 O.2    41  SER41      -0.2714
     20  CB       -53.2900   42.0820  -12.1700 C.3    41  SER41       0.2130
     21  OG       -52.5470   42.6760  -11.1280 O.3    41  SER41      -0.2179
     22  N        -52.8700   43.5060  -14.9970 N.am   42  GLY42      -0.1939
     23  CA       -52.6210   44.7350  -15.7310 C.3    42  GLY42       0.2014
     24  C        -53.7840   45.2270  -16.5660 C.2    42  GLY42       0.2639
     25  O        -54.9180   44.7520  -16.4310 O.2    42  GLY42      -0.2714
     26  N        -53.4840   46.1990  -17.4210 N.am   43  ARG43      -0.1963
     27  CA       -54.4240   46.7290  -18.4010 C.3    43  ARG43       0.1729
     28  C        -53.6340   47.2110  -19.6240 C.2    43  ARG43       0.2617
     29  O        -52.4430   47.5180  -19.5200 O.2    43  ARG43      -0.2715
     30  CB       -55.2450   47.8770  -17.8050 C.3    43  ARG43       0.0348
     31  CG       -54.4760   49.1830  -17.7040 C.3    43  ARG43       0.0492
     32  CD       -55.2020   50.2520  -16.9160 C.3    43  ARG43       0.2205
     33  NE       -54.3370   51.4170  -16.7470 N.pl3  43  ARG43      -0.0865
     34  CZ       -54.6270   52.4780  -16.0020 C.cat  43  ARG43       0.5346
     35  NH1      -53.7580   53.4760  -15.9220 N.pl3  43  ARG43       0.1354
     36  NH2      -55.7790   52.5480  -15.3380 N.pl3  43  ARG43       0.1354
     37  N        -54.3020   47.2680  -20.7730 N.am   44  GLY44      -0.1940
     38  CA       -53.6900   47.7330  -22.0090 C.3    44  GLY44       0.2014
     39  C        -53.9860   49.1910  -22.2890 C.2    44  GLY44       0.2639
     40  O        -53.9940   50.0190  -21.3760 O.2    44  GLY44      -0.2714
     41  N        -54.2070   49.5000  -23.5650 N.am   45  SER45      -0.1949
     42  CA       -54.5400   50.8540  -24.0070 C.3    45  SER45       0.1924
     43  C        -55.9370   51.2680  -23.5430 C.2    45  SER45       0.2314
     44  O        -56.7750   50.4190  -23.2280 O.2    45  SER45      -0.2863
     45  CB       -54.4340   50.9610  -25.5320 C.3    45  SER45       0.2116
     46  OG       -53.1240   50.6450  -25.9840 O.3    45  SER45      -0.2180
     47  N        -56.7910   43.2150  -14.7850 N.3    60  HIS60      -0.1241
     48  CA       -57.1600   41.8630  -15.1860 C.3    60  HIS60       0.1621
     49  C        -56.0260   40.8840  -14.9300 C.2    60  HIS60       0.2264
     50  O        -54.8620   41.1960  -15.1650 O.2    60  HIS60      -0.2867
     51  CB       -57.5670   41.8350  -16.6610 C.3    60  HIS60       0.0745
     52  CG       -58.6970   42.7630  -16.9920 C.ar   60  HIS60       0.0817
     53  ND1      -58.5210   43.9130  -17.7330 N.ar   60  HIS60      -0.2268
     54  CD2      -60.0130   42.7180  -16.6710 C.ar   60  HIS60       0.1154
     55  CE1      -59.6820   44.5330  -17.8620 C.ar   60  HIS60       0.1986
     56  NE2      -60.6020   43.8300  -17.2250 N.ar   60  HIS60      -0.2212
     57  N        -53.3680   38.1690  -15.3850 N.3    62  LYS62      -0.1245
     58  CA       -52.5750   37.6870  -16.5060 C.3    62  LYS62       0.1561
     59  C        -51.4270   36.8210  -16.0100 C.2    62  LYS62       0.2260
     60  O        -51.1690   36.7270  -14.8060 O.2    62  LYS62      -0.2867
     61  CB       -52.0220   38.8550  -17.3410 C.3    62  LYS62       0.0271
     62  CG       -53.0630   39.8160  -17.9000 C.3    62  LYS62       0.0035
     63  CD       -53.9130   39.1830  -18.9910 C.3    62  LYS62       0.0206
     64  CE       -55.0450   40.1030  -19.4060 C.3    62  LYS62       0.1093
     65  NZ       -55.9690   39.4240  -20.3530 N.3    62  LYS62      -0.1314
     66  N        -58.8650   38.4800  -29.7650 N.3    89  GLU89      -0.1231
     67  CA       -59.6800   39.3850  -28.9540 C.3    89  GLU89       0.1699
     68  C        -58.8010   40.2310  -28.0360 C.2    89  GLU89       0.2592
     69  O        -57.6930   39.8190  -27.6770 O.2    89  GLU89      -0.2718
     70  CB       -60.6880   38.5940  -28.1110 C.3    89  GLU89       0.0402
     71  CG       -61.4960   37.5530  -28.8750 C.3    89  GLU89       0.1161
     72  CD       -62.5670   38.1550  -29.7730 C.2    89  GLU89       0.3649
     73  OE1      -63.0400   39.2790  -29.4880 O.co2  89  GLU89      -0.2457
     74  OE2      -62.9480   37.4950  -30.7670 O.co2  89  GLU89      -0.2457
     75  N        -59.3030   41.4070  -27.6550 N.am   90  LYS90      -0.1966
     76  CA       -58.6200   42.2890  -26.7020 C.3    90  LYS90       0.1728
     77  C        -58.3090   41.5560  -25.3980 C.2    90  LYS90       0.2617
     78  O        -59.1740   40.8880  -24.8330 O.2    90  LYS90      -0.2715
     79  CB       -59.4570   43.5470  -26.4320 C.3    90  LYS90       0.0311
     80  CG       -59.2810   44.6390  -27.4810 C.3    90  LYS90       0.0038
     81  CD       -60.5690   45.4270  -27.6850 C.3    90  LYS90       0.0206
     82  CE       -60.5500   46.1910  -29.0020 C.3    90  LYS90       0.1093
     83  NZ       -61.9150   46.6050  -29.4280 N.3    90  LYS90      -0.1314
     84  N        -57.0660   41.6750  -24.9410 N.am   91  GLY91      -0.1940
     85  CA       -56.6000   40.9690  -23.7510 C.3    91  GLY91       0.2014
     86  C        -55.5640   39.8920  -24.0370 C.2    91  GLY91       0.2639
     87  O        -55.0380   39.2720  -23.1080 O.2    91  GLY91      -0.2714
     88  N        -55.2660   39.6740  -25.3190 N.am   92  ASP92      -0.1957
     89  CA       -54.2850   38.6640  -25.7480 C.3    92  ASP92       0.1840
     90  C        -52.8600   38.9360  -25.2680 C.2    92  ASP92       0.2623
     91  O        -52.0340   38.0260  -25.2210 O.2    92  ASP92      -0.2715
     92  CB       -54.2880   38.5150  -27.2720 C.3    92  ASP92       0.1450
     93  CG       -55.3550   37.5620  -27.7680 C.2    92  ASP92       0.3671
     94  OD1      -56.2290   37.1520  -26.9690 O.co2  92  ASP92      -0.2456
     95  OD2      -55.3190   37.2260  -28.9710 O.co2  92  ASP92      -0.2456
     96  N        -52.5760   40.1880  -24.9270 N.am   93  GLY93      -0.1940
     97  CA       -51.2950   40.5470  -24.3360 C.3    93  GLY93       0.2014
     98  C        -50.2260   40.9170  -25.3430 C.2    93  GLY93       0.2638
     99  O        -50.5090   41.1360  -26.5270 O.2    93  GLY93      -0.2714
    100  N        -48.9880   40.9850  -24.8640 N.am   94  LYS94      -0.1977
    101  CA       -47.8690   41.4290  -25.6780 C.3    94  LYS94       0.1596
    102  C        -46.5950   40.6790  -25.3380 C.2    94  LYS94       0.2287
    103  O        -46.4580   40.0960  -24.2580 O.2    94  LYS94      -0.2864
    104  CB       -47.6610   42.9360  -25.5220 C.3    94  LYS94       0.0298
    105  CG       -48.5940   43.7700  -26.3830 C.3    94  LYS94       0.0038
    106  CD       -48.6140   45.2210  -25.9430 C.3    94  LYS94       0.0206
    107  CE       -49.8050   45.9520  -26.5430 C.3    94  LYS94       0.1093
    108  NZ       -50.0250   47.2540  -25.8580 N.3    94  LYS94      -0.1314
    109  N        -42.3340   41.1190  -25.3590 N.3    96  PHE96      -0.1241
    110  CA       -41.2140   42.0480  -25.4400 C.3    96  PHE96       0.1605
    111  C        -39.8990   41.2940  -25.3910 C.2    96  PHE96       0.2264
    112  O        -39.7520   40.3390  -24.6290 O.2    96  PHE96      -0.2867
    113  CB       -41.2720   43.0610  -24.2990 C.3    96  PHE96       0.0534
    114  CG       -42.6330   43.6570  -24.0850 C.ar   96  PHE96      -0.0203
    115  CD1      -43.1500   44.5920  -24.9840 C.ar   96  PHE96      -0.0042
    116  CD2      -43.4040   43.2830  -22.9880 C.ar   96  PHE96      -0.0042
    117  CE1      -44.4090   45.1410  -24.7860 C.ar   96  PHE96      -0.0003
    118  CE2      -44.6630   43.8340  -22.7830 C.ar   96  PHE96      -0.0003
    119  CZ       -45.1630   44.7650  -23.6830 C.ar   96  PHE96      -0.0000
@<TRIPOS>BOND
     1    74    72   ar
     2    72    73   ar
     3    72    71    1
     4    66    67    1
     5    83    82    1
     6    82    81    1
     7    95    93   ar
     8    67    70    1
     9    67    68    1
    10    71    70    1
    11    68    69    2
    12    68    75   am
    13    93    92    1
    14    93    94   ar
    15    81    80    1
    16    75    76    1
    17    80    79    1
    18    92    89    1
    19    76    79    1
    20    76    77    1
    21   107   106    1
    22   107   108    1
    23    99    98    2
    24   105   106    1
    25   105   104    1
    26    46    45    1
    27    89    88    1
    28    89    90    1
    29   101   104    1
    30   101   102    1
    31   101   100    1
    32    45    42    1
    33   110   111    1
    34   110   109    1
    35   110   113    1
    36    77    84   am
    37    77    78    2
    38   111   112    2
    39    98   100   am
    40    98    97    1
    41   102   103    2
    42    88    86   am
    43    90    91    2
    44    90    96   am
    45   115   117   ar
    46   115   114   ar
    47    84    85    1
    48    96    97    1
    49   117   119   ar
    50   113   114    1
    51   114   116   ar
    52    86    85    1
    53    86    87    2
    54    42    41    1
    55    42    43    1
    56   119   118   ar
    57    41    39   am
    58    43    44    2
    59   116   118   ar
    60     4     3    2
    61    39    38    1
    62    39    40    2
    63    38    37    1
    64     1     2    1
    65     3     2    1
    66     2     5    1
    67    37    28   am
    68     5     6    1
    69     5     7    1
    70    65    64    1
    71     6     8    1
    72    28    29    2
    73    28    27    1
    74    64    63    1
    75    63    62    1
    76    27    30    1
    77    27    26    1
    78    62    61    1
    79    55    53   ar
    80    55    56   ar
    81    30    31    1
    82    53    52   ar
    83    31    32    1
    84    26    24   am
    85    61    58    1
    86    56    54   ar
    87    52    54   ar
    88    52    51    1
    89    32    33    1
    90    33    34    2
    91    51    48    1
    92    24    25    2
    93    24    23    1
    94    58    59    1
    95    58    57    1
    96    59    60    2
    97    34    35    1
    98    34    36    1
    99    23    22    1
   100    48    49    1
   101    48    47    1
   102    50    49    2
   103    15    13    1
   104    22    18   am
   105    18    19    2
   106    18    17    1
   107    13    14    1
   108    13    10    1
   109    17    16    1
   110    17    20    1
   111    12    11    2
   112    11    16   am
   113    11    10    1
   114    10     9    1
   115    20    21    1
