@<TRIPOS>MOLECULE
tmp/4ozoB00.pdb
 106 103 0 0 0
SMALL
GASTEIGER

@<TRIPOS>ATOM
      1  N         65.7780    5.1000   20.7510 N.3   163  TRP163     -0.1241
      2  CA        65.5110    5.1540   22.1820 C.3   163  TRP163      0.1605
      3  C         66.7810    4.8730   22.9700 C.2   163  TRP163      0.2264
      4  O         67.4720    3.8860   22.7150 O.2   163  TRP163     -0.2867
      5  CB        64.4660    4.1030   22.5360 C.3   163  TRP163      0.0550
      6  CG        63.3170    4.5750   23.3660 C.ar  163  TRP163      0.0003
      7  CD1       62.2310    5.2790   22.9350 C.ar  163  TRP163      0.0946
      8  CD2       63.1030    4.3180   24.7590 C.ar  163  TRP163      0.0152
      9  NE1       61.3640    5.4930   23.9770 N.ar  163  TRP163     -0.2442
     10  CE2       61.8740    4.9120   25.1080 C.ar  163  TRP163      0.0810
     11  CE3       63.8340    3.6470   25.7460 C.ar  163  TRP163      0.0012
     12  CZ2       61.3670    4.8700   26.3990 C.ar  163  TRP163      0.0191
     13  CZ3       63.3250    3.5980   27.0270 C.ar  163  TRP163      0.0001
     14  CH2       62.1070    4.2090   27.3440 C.ar  163  TRP163      0.0015
     15  N         67.6300    4.1820   26.7030 N.3   165  ASP165     -0.1225
     16  CA        67.2810    3.8630   28.0870 C.3   165  ASP165      0.1805
     17  C         68.3740    4.3310   29.0490 C.2   165  ASP165      0.2598
     18  O         69.5670    4.1510   28.7890 O.2   165  ASP165     -0.2718
     19  CB        67.0940    2.3400   28.2190 C.3   165  ASP165      0.1424
     20  CG        66.2310    1.9490   29.4050 C.2   165  ASP165      0.3668
     21  OD1       66.2810    2.6370   30.4520 O.co2 165  ASP165     -0.2456
     22  OD2       65.4960    0.9390   29.2850 O.co2 165  ASP165     -0.2456
     23  N         67.9730    4.9040   30.1750 N.am  166  GLY166     -0.1942
     24  CA        68.9410    5.4550   31.1060 C.3   166  GLY166      0.2014
     25  C         69.4320    4.5040   32.1790 C.2   166  GLY166      0.2638
     26  O         70.4540    4.7600   32.8290 O.2   166  GLY166     -0.2714
     27  N         68.7030    3.4140   32.3820 N.am  167  ALA167     -0.1977
     28  CA        69.0910    2.4520   33.4000 C.3   167  ALA167      0.1597
     29  C         70.5150    1.9550   33.1510 C.2   167  ALA167      0.2287
     30  O         70.8940    1.6520   32.0230 O.2   167  ALA167     -0.2864
     31  CB        68.1190    1.3150   33.4470 C.3   167  ALA167      0.0319
     32  N         64.7120    9.7570   21.9330 N.3   194  PHE194     -0.1241
     33  CA        64.3800    9.6800   23.3380 C.3   194  PHE194      0.1605
     34  C         65.6980    9.6080   24.0920 C.2   194  PHE194      0.2264
     35  O         66.4310    8.6260   23.9880 O.2   194  PHE194     -0.2867
     36  CB        63.5370    8.4410   23.5990 C.3   194  PHE194      0.0534
     37  CG        63.1770    8.2430   25.0400 C.ar  194  PHE194     -0.0203
     38  CD1       62.0470    8.8240   25.5650 C.ar  194  PHE194     -0.0042
     39  CD2       63.9610    7.4600   25.8620 C.ar  194  PHE194     -0.0042
     40  CE1       61.7110    8.6400   26.8840 C.ar  194  PHE194     -0.0003
     41  CE2       63.6310    7.2700   27.1890 C.ar  194  PHE194     -0.0003
     42  CZ        62.5050    7.8570   27.6980 C.ar  194  PHE194     -0.0000
     43  N         68.0810   10.2020   27.7160 N.3   196  THR196     -0.1203
     44  CA        68.0380   10.2710   29.1590 C.3   196  THR196      0.1994
     45  C         69.4080   10.6280   29.7010 C.2   196  THR196      0.2617
     46  O         70.4080   10.5730   28.9820 O.2   196  THR196     -0.2717
     47  CB        67.5680    8.9290   29.7660 C.3   196  THR196      0.1784
     48  OG1       68.2620    7.8570   29.1230 O.3   196  THR196     -0.2211
     49  CG2       66.0790    8.7400   29.5450 C.3   196  THR196      0.0376
     50  N         69.4220   11.0010   30.9740 N.am  197  LYS197     -0.1979
     51  CA        70.6360   11.3110   31.7080 C.3   197  LYS197      0.1596
     52  C         71.6700   12.1080   30.8970 C.2   197  LYS197      0.2287
     53  O         71.3580   13.1920   30.3860 O.2   197  LYS197     -0.2864
     54  CB        71.2060   10.0250   32.3080 C.3   197  LYS197      0.0298
     55  CG        70.2420    9.3760   33.3060 C.3   197  LYS197      0.0038
     56  CD        70.6890    7.9940   33.7470 C.3   197  LYS197      0.0206
     57  CE        69.8260    7.5360   34.9130 C.3   197  LYS197      0.1093
     58  NZ        70.0740    6.1420   35.3350 N.3   197  LYS197     -0.1314
     59  N         61.9370   11.4310   29.1780 N.3   207  TRP207     -0.1241
     60  CA        61.1660   10.5730   30.0540 C.3   207  TRP207      0.1605
     61  C         60.3250   11.4450   31.0070 C.2   207  TRP207      0.2264
     62  O         60.6960   12.5760   31.3140 O.2   207  TRP207     -0.2867
     63  CB        62.1170    9.6580   30.8380 C.3   207  TRP207      0.0550
     64  CG        61.4250    8.5820   31.6270 C.ar  207  TRP207      0.0003
     65  CD1       60.3380    7.8520   31.2470 C.ar  207  TRP207      0.0946
     66  CD2       61.7660    8.1350   32.9420 C.ar  207  TRP207      0.0152
     67  NE1       59.9820    6.9820   32.2390 N.ar  207  TRP207     -0.2442
     68  CE2       60.8400    7.1360   33.2940 C.ar  207  TRP207      0.0810
     69  CE3       62.7630    8.4860   33.8580 C.ar  207  TRP207      0.0012
     70  CZ2       60.8890    6.4710   34.5160 C.ar  207  TRP207      0.0191
     71  CZ3       62.8080    7.8380   35.0630 C.ar  207  TRP207      0.0001
     72  CH2       61.8770    6.8360   35.3860 C.ar  207  TRP207      0.0015
     73  N         58.1540    8.0900   35.3660 N.3   210  ASN210     -0.1225
     74  CA        57.5020    6.8670   35.8470 C.3   210  ASN210      0.1785
     75  C         57.0420    5.9550   34.7170 C.2   210  ASN210      0.2597
     76  O         57.0060    6.3520   33.5510 O.2   210  ASN210     -0.2718
     77  CB        56.3260    7.1550   36.7910 C.3   210  ASN210      0.1169
     78  CG        55.1020    7.7180   36.0680 C.2   210  ASN210      0.2627
     79  OD1       54.4130    7.0140   35.3310 O.2   210  ASN210     -0.2716
     80  ND2       54.8220    8.9930   36.2990 N.am  210  ASN210     -0.0877
     81  N         56.6760    4.7340   35.0800 N.am  211  GLU211     -0.1979
     82  CA        56.2550    3.7360   34.1060 C.3   211  GLU211      0.1602
     83  C         54.8310    3.2890   34.3730 C.2   211  GLU211      0.2287
     84  O         54.4330    2.1920   33.9990 O.2   211  GLU211     -0.2864
     85  CB        57.1950    2.5270   34.1340 C.3   211  GLU211      0.0415
     86  CG        58.5520    2.8170   33.5510 C.3   211  GLU211      0.1163
     87  CD        59.4980    1.6340   33.6550 C.2   211  GLU211      0.3649
     88  OE1       59.1250    0.6330   34.3070 O.co2 211  GLU211     -0.2457
     89  OE2       60.6120    1.7060   33.0820 O.co2 211  GLU211     -0.2457
     90  N         68.2550   13.1140   36.6920 N.3   231  GLU231     -0.1245
     91  CA        66.9790   12.4130   36.7710 C.3   231  GLU231      0.1567
     92  C         66.3730   12.2070   38.1730 C.2   231  GLU231      0.2260
     93  O         65.2690   12.6920   38.4550 O.2   231  GLU231     -0.2867
     94  CB        67.1400   11.0860   36.0570 C.3   231  GLU231      0.0388
     95  CG        65.8910   10.2980   35.8730 C.3   231  GLU231      0.1160
     96  CD        66.1580    9.0750   35.0380 C.2   231  GLU231      0.3649
     97  OE1       66.2750    7.9780   35.6200 O.co2 231  GLU231     -0.2457
     98  OE2       66.2800    9.2300   33.8060 O.co2 231  GLU231     -0.2457
     99  N         55.8900    6.0050   28.6090 N.3   254  ASP254     -0.1239
    100  CA        56.0920    4.5970   28.2940 C.3   254  ASP254      0.1674
    101  C         55.4470    3.6890   29.3360 C.2   254  ASP254      0.2266
    102  O         55.6430    3.8650   30.5340 O.2   254  ASP254     -0.2867
    103  CB        57.5870    4.2750   28.1590 C.3   254  ASP254      0.1410
    104  CG        58.3450    4.4340   29.4680 C.2   254  ASP254      0.3668
    105  OD1       58.1260    5.4620   30.1620 O.co2 254  ASP254     -0.2456
    106  OD2       59.1560    3.5300   29.7980 O.co2 254  ASP254     -0.2456
@<TRIPOS>BOND
     1     1     2    1
     2    32    33    1
     3     2     5    1
     4     2     3    1
     5     5     6    1
     6     4     3    2
     7     7     6   ar
     8     7     9   ar
     9    33    36    1
    10    33    34    1
    11     6     8   ar
    12    36    37    1
    13     9    10   ar
    14    35    34    2
    15     8    10   ar
    16     8    11   ar
    17    37    38   ar
    18    37    39   ar
    19    10    12   ar
    20    38    40   ar
    21    11    13   ar
    22    39    41   ar
    23    12    14   ar
    24    15    16    1
    25    40    42   ar
    26    13    14   ar
    27    41    42   ar
    28    43    44    1
    29    16    19    1
    30    16    17    1
    31   103   100    1
    32   103   104    1
    33    19    20    1
    34   100    99    1
    35   100   101    1
    36    18    17    2
    37    46    45    2
    38    17    23   am
    39    48    47    1
    40    44    45    1
    41    44    47    1
    42    59    60    1
    43    22    20   ar
    44   101   102    2
    45    20    21   ar
    46   104   106   ar
    47   104   105   ar
    48    49    47    1
    49    45    50   am
    50    60    63    1
    51    60    61    1
    52    23    24    1
    53    53    52    2
    54    63    64    1
    55    52    51    1
    56    50    51    1
    57    61    62    2
    58    24    25    1
    59    65    64   ar
    60    65    67   ar
    61    64    66   ar
    62    51    54    1
    63    30    29    2
    64    25    27   am
    65    25    26    2
    66    67    68   ar
    67    54    55    1
    68    27    28    1
    69    66    68   ar
    70    66    69   ar
    71    89    87   ar
    72    29    28    1
    73    68    70   ar
    74    55    56    1
    75    28    31    1
    76    76    75    2
    77    86    87    1
    78    86    85    1
    79    87    88   ar
    80    56    57    1
    81    98    96   ar
    82    69    71   ar
    83    84    83    2
    84    82    85    1
    85    82    83    1
    86    82    81    1
    87    70    72   ar
    88    75    81   am
    89    75    74    1
    90    57    58    1
    91    96    97   ar
    92    96    95    1
    93    71    72   ar
    94    79    78    2
    95    73    74    1
    96    74    77    1
    97    95    94    1
    98    94    91    1
    99    78    80   am
   100    78    77    1
   101    90    91    1
   102    91    92    1
   103    92    93    2
