@<TRIPOS>MOLECULE
tmp/4ozqB00.pdb
 142 136 0 0 0
SMALL
GASTEIGER

@<TRIPOS>ATOM
      1  N          2.0830  -17.2260   54.7770 N.3   378  ARG378     -0.1245
      2  CA         3.1940  -17.0750   55.7160 C.3   378  ARG378      0.1563
      3  C          3.2070  -18.1790   56.7730 C.2   378  ARG378      0.2260
      4  O          2.2210  -18.3880   57.4690 O.2   378  ARG378     -0.2867
      5  CB         3.1800  -15.7160   56.3850 C.3   378  ARG378      0.0307
      6  CG         4.5030  -15.3870   57.0600 C.3   378  ARG378      0.0489
      7  CD         4.3450  -14.2310   58.0230 C.3   378  ARG378      0.2205
      8  NE         5.6210  -13.5910   58.3140 N.pl3 378  ARG378     -0.0865
      9  CZ         5.7470  -12.4230   58.9330 C.cat 378  ARG378      0.5346
     10  NH1        4.6820  -11.7240   59.3230 N.pl3 378  ARG378      0.1354
     11  NH2        6.9510  -11.9390   59.1550 N.pl3 378  ARG378      0.1354
     12  N          4.7510  -19.2140   60.1240 N.3   380  ARG380     -0.1231
     13  CA         5.4220  -18.6820   61.3090 C.3   380  ARG380      0.1679
     14  C          6.2450  -19.7390   61.9900 C.2   380  ARG380      0.2434
     15  O          6.0870  -20.9160   61.6700 O.2   380  ARG380     -0.2733
     16  CB         4.3910  -18.1710   62.2980 C.3   380  ARG380      0.0321
     17  CG         3.4330  -19.2120   62.8160 C.3   380  ARG380      0.0489
     18  CD         2.7130  -18.6980   64.0430 C.3   380  ARG380      0.2205
     19  NE         1.7330  -19.6470   64.5630 N.pl3 380  ARG380     -0.0865
     20  CZ         2.0290  -20.7710   65.2210 C.cat 380  ARG380      0.5346
     21  NH1        3.2940  -21.1150   65.4460 N.pl3 380  ARG380      0.1354
     22  NH2        1.0550  -21.5660   65.6410 N.pl3 380  ARG380      0.1354
     23  N          7.0800  -19.3330   62.9620 N.am  381  PRO381     -0.2729
     24  CA         7.8150  -20.2700   63.7820 C.3   381  PRO381      0.1401
     25  C          6.9300  -20.9670   64.7890 C.2   381  PRO381      0.2269
     26  O          5.7960  -20.5760   65.0160 O.2   381  PRO381     -0.2865
     27  CB         8.8000  -19.3920   64.5640 C.3   381  PRO381      0.0296
     28  CG         8.6640  -18.0540   64.0370 C.3   381  PRO381      0.0237
     29  CD         7.3070  -17.9640   63.4190 C.3   381  PRO381      0.0939
     30  N          5.0800  -21.7950   68.0080 N.3   383  SER383     -0.1217
     31  CA         4.5720  -21.0080   69.1200 C.3   383  SER383      0.1889
     32  C          5.0180  -21.6270   70.4400 C.2   383  SER383      0.2288
     33  O          5.4610  -22.7900   70.4880 O.2   383  SER383     -0.2866
     34  CB         3.0480  -21.0000   69.0840 C.3   383  SER383      0.2089
     35  OG         2.5370  -22.2910   69.3140 O.3   383  SER383     -0.2183
     36  N          8.6730  -17.8020   57.3530 N.3   423  SER423     -0.1217
     37  CA         9.1480  -17.1460   58.5560 C.3   423  SER423      0.1889
     38  C          9.2750  -18.1430   59.6760 C.2   423  SER423      0.2288
     39  O          9.2250  -17.7820   60.8580 O.2   423  SER423     -0.2866
     40  CB         8.2200  -16.0280   58.9650 C.3   423  SER423      0.2089
     41  OG         8.1720  -15.0900   57.9260 O.3   423  SER423     -0.2183
     42  N         14.5020  -18.1410   61.5100 N.3   426  GLU426     -0.1245
     43  CA        15.3530  -17.0060   61.0940 C.3   426  GLU426      0.1567
     44  C         16.6170  -17.3460   60.2560 C.2   426  GLU426      0.2260
     45  O         17.0210  -16.6090   59.3550 O.2   426  GLU426     -0.2867
     46  CB        15.7360  -16.1700   62.3120 C.3   426  GLU426      0.0388
     47  CG        14.5290  -15.8090   63.1660 C.3   426  GLU426      0.1160
     48  CD        14.7560  -14.5830   64.0200 C.2   426  GLU426      0.3649
     49  OE1       15.7030  -13.8090   63.7520 O.co2 426  GLU426     -0.2457
     50  OE2       13.9700  -14.3940   64.9710 O.co2 426  GLU426     -0.2457
     51  N         14.3600  -16.8920   54.5200 N.3   431  TYR431     -0.1241
     52  CA        13.5320  -16.4410   55.6170 C.3   431  TYR431      0.1605
     53  C         12.9170  -15.0800   55.3010 C.2   431  TYR431      0.2264
     54  O         13.5100  -14.2810   54.5950 O.2   431  TYR431     -0.2867
     55  CB        14.3770  -16.3260   56.8750 C.3   431  TYR431      0.0534
     56  CG        13.6600  -15.6720   58.0110 C.ar  431  TYR431     -0.0201
     57  CD1       12.7310  -16.3700   58.7430 C.ar  431  TYR431     -0.0009
     58  CD2       13.8860  -14.3530   58.3460 C.ar  431  TYR431     -0.0009
     59  CE1       12.0510  -15.7940   59.7960 C.ar  431  TYR431      0.0417
     60  CE2       13.2060  -13.7710   59.4010 C.ar  431  TYR431      0.0417
     61  CZ        12.2930  -14.5170   60.1190 C.ar  431  TYR431      0.1957
     62  OH        11.6130  -13.9920   61.1600 O.3   431  TYR431     -0.2866
     63  N         -6.2590  -19.2540   60.9880 N.3   462  GLN462     -0.1231
     64  CA        -6.8140  -19.6820   62.2640 C.3   462  GLN462      0.1698
     65  C         -6.2060  -18.8390   63.3760 C.2   462  GLN462      0.2593
     66  O         -5.1790  -18.2090   63.1750 O.2   462  GLN462     -0.2718
     67  CB        -6.5360  -21.1520   62.4830 C.3   462  GLN462      0.0381
     68  CG        -5.1740  -21.4280   63.0710 C.3   462  GLN462      0.0905
     69  CD        -4.9680  -22.8690   63.4000 C.2   462  GLN462      0.2608
     70  OE1       -3.9930  -23.4700   62.9850 O.2   462  GLN462     -0.2717
     71  NE2       -5.8770  -23.4280   64.1710 N.am  462  GLN462     -0.0878
     72  N         -6.8280  -18.8200   64.5430 N.am  463  THR463     -0.1939
     73  CA        -6.2580  -18.0700   65.6690 C.3   463  THR463      0.2028
     74  C         -4.8750  -18.6060   66.0040 C.2   463  THR463      0.2643
     75  O         -4.6730  -19.8010   66.0100 O.2   463  THR463     -0.2714
     76  CB        -7.1360  -18.1440   66.9150 C.3   463  THR463      0.1808
     77  OG1       -8.3710  -17.4800   66.6500 O.3   463  THR463     -0.2208
     78  CG2       -6.4580  -17.4720   68.0990 C.3   463  THR463      0.0379
     79  N         -3.9240  -17.7170   66.2390 N.am  464  GLY464     -0.1939
     80  CA        -2.5590  -18.1270   66.5510 C.3   464  GLY464      0.2014
     81  C         -1.6390  -18.3300   65.3560 C.2   464  GLY464      0.2640
     82  O         -0.4440  -18.5540   65.5330 O.2   464  GLY464     -0.2714
     83  N         -2.1640  -18.2270   64.1400 N.am  465  SER465     -0.1935
     84  CA        -1.3470  -18.4810   62.9610 C.3   465  SER465      0.2055
     85  C         -0.4510  -17.3210   62.5940 C.2   465  SER465      0.2644
     86  O          0.5410  -17.5130   61.9000 O.2   465  SER465     -0.2714
     87  CB        -2.1790  -18.8910   61.7640 C.3   465  SER465      0.2130
     88  OG        -3.4610  -18.3500   61.8270 O.3   465  SER465     -0.2179
     89  N         -0.7850  -16.1200   63.0680 N.am  466  GLY466     -0.1939
     90  CA         0.1050  -14.9420   62.9300 C.3   466  GLY466      0.2014
     91  C         -0.5600  -13.8220   62.1620 C.2   466  GLY466      0.2639
     92  O          0.0980  -13.0700   61.4530 O.2   466  GLY466     -0.2714
     93  N         -1.8750  -13.7070   62.2830 N.am  467  LYS467     -0.1963
     94  CA        -2.5660  -12.6540   61.5630 C.3   467  LYS467      0.1728
     95  C         -2.0970  -11.2970   62.0740 C.2   467  LYS467      0.2617
     96  O         -1.6010  -10.4630   61.3110 O.2   467  LYS467     -0.2715
     97  CB        -4.0880  -12.7510   61.7100 C.3   467  LYS467      0.0311
     98  CG        -4.7870  -13.6770   60.7050 C.3   467  LYS467      0.0038
     99  CD        -6.3000  -13.4270   60.6890 C.3   467  LYS467      0.0206
    100  CE        -7.1540  -14.5770   61.2100 C.3   467  LYS467      0.1093
    101  NZ        -6.6910  -15.2740   62.4590 N.3   467  LYS467     -0.1314
    102  N         -2.2570  -11.0660   63.3660 N.am  468  SER468     -0.1936
    103  CA        -1.9510   -9.7500   63.9010 C.3   468  SER468      0.2055
    104  C         -0.4670   -9.4550   63.7690 C.2   468  SER468      0.2643
    105  O         -0.0490   -8.3140   63.5260 O.2   468  SER468     -0.2714
    106  CB        -2.3510   -9.6310   65.3730 C.3   468  SER468      0.2130
    107  OG        -2.1040   -8.2920   65.8580 O.3   468  SER468     -0.2179
    108  N          0.3370  -10.4780   63.9930 N.am  469  TYR469     -0.1959
    109  CA         1.7690  -10.2830   63.9130 C.3   469  TYR469      0.1771
    110  C          2.0250   -9.7410   62.5030 C.2   469  TYR469      0.2620
    111  O          2.7430   -8.7580   62.3050 O.2   469  TYR469     -0.2715
    112  CB         2.5300  -11.5810   64.1960 C.3   469  TYR469      0.0574
    113  CG         4.0200  -11.4190   64.0800 C.ar  469  TYR469     -0.0198
    114  CD1        4.6740  -11.6290   62.8680 C.ar  469  TYR469     -0.0009
    115  CD2        4.7870  -11.0460   65.1640 C.ar  469  TYR469     -0.0009
    116  CE1        6.0470  -11.4690   62.7420 C.ar  469  TYR469      0.0417
    117  CE2        6.1580  -10.8740   65.0410 C.ar  469  TYR469      0.0417
    118  CZ         6.7800  -11.0940   63.8250 C.ar  469  TYR469      0.1957
    119  OH         8.1520  -10.9570   63.7000 O.3   469  TYR469     -0.2866
    120  N          1.3990  -10.3720   61.5280 N.am  470  THR470     -0.1951
    121  CA         1.6770  -10.0400   60.1490 C.3   470  THR470      0.1897
    122  C          1.1230   -8.6670   59.7990 C.2   470  THR470      0.2313
    123  O          1.7870   -7.8900   59.1200 O.2   470  THR470     -0.2863
    124  CB         1.1440  -11.1260   59.1940 C.3   470  THR470      0.1794
    125  OG1        2.0560  -12.2300   59.2190 O.3   470  THR470     -0.2208
    126  CG2        1.0450  -10.6540   57.7810 C.3   470  THR470      0.0378
    127  N          4.4400   -5.9790   66.4630 N.3   474  LEU474     -0.1245
    128  CA         4.7380   -5.4160   67.8170 C.3   474  LEU474      0.1561
    129  C          5.8860   -4.4110   67.7290 C.2   474  LEU474      0.2260
    130  O          6.5890   -4.3640   66.7230 O.2   474  LEU474     -0.2867
    131  CB         5.1540   -6.5160   68.7930 C.3   474  LEU474      0.0270
    132  CG         4.7040   -7.9380   68.4500 C.3   474  LEU474      0.0019
    133  CD1        5.6820   -8.9350   69.0580 C.3   474  LEU474      0.0001
    134  CD2        3.2800   -8.2020   68.9180 C.3   474  LEU474      0.0001
    135  N         -8.6390   -7.7300   58.8530 N.3   597  ASP597     -0.1239
    136  CA        -8.2510   -8.8390   59.6870 C.3   597  ASP597      0.1674
    137  C         -9.5000   -9.6660   59.8240 C.2   597  ASP597      0.2266
    138  O        -10.4570   -9.2330   60.4500 O.2   597  ASP597     -0.2867
    139  CB        -7.7990   -8.3480   61.0480 C.3   597  ASP597      0.1410
    140  CG        -7.3690   -9.4640   61.9610 C.2   597  ASP597      0.3668
    141  OD1       -6.2470   -9.9430   61.8090 O.co2 597  ASP597     -0.2456
    142  OD2       -8.1280   -9.8340   62.8740 O.co2 597  ASP597     -0.2456
@<TRIPOS>BOND
     1    51    52    1
     2    54    53    2
     3     1     2    1
     4    53    52    1
     5    52    55    1
     6     2     5    1
     7     2     3    1
     8     5     6    1
     9     3     4    2
    10    55    56    1
    11     6     7    1
    12    36    37    1
    13   126   124    1
    14    41    40    1
    15    56    58   ar
    16    56    57   ar
    17     7     8    1
    18     8     9    2
    19    58    60   ar
    20    37    40    1
    21    37    38    1
    22    57    59   ar
    23   135   136    1
    24     9    11    1
    25     9    10    1
    26   123   122    2
    27   124   125    1
    28   124   121    1
    29    45    44    2
    30    60    61   ar
    31    38    39    2
    32   136   137    1
    33   136   139    1
    34    59    61   ar
    35   122   121    1
    36   137   138    2
    37    61    62    1
    38    12    13    1
    39   121   120    1
    40    44    43    1
    41    99    98    1
    42    99   100    1
    43    98    97    1
    44    63    64    1
    45   139   140    1
    46    43    42    1
    47    43    46    1
    48   100   101    1
    49    13    14    1
    50    13    16    1
    51    96    95    2
    52    92    91    2
    53   120   110   am
    54    94    97    1
    55    94    95    1
    56    94    93    1
    57    15    14    2
    58    87    88    1
    59    87    84    1
    60   141   140   ar
    61    86    85    2
    62   140   142   ar
    63    14    23   am
    64    95   102   am
    65    91    93   am
    66    91    90    1
    67    64    67    1
    68    64    65    1
    69    16    17    1
    70   111   110    2
    71    46    47    1
    72    67    68    1
    73   110   109    1
    74    85    84    1
    75    85    89   am
    76   116   114   ar
    77   116   118   ar
    78    17    18    1
    79   114   113   ar
    80    90    89    1
    81    84    83    1
    82    23    29    1
    83    23    24    1
    84    70    69    2
    85    68    69    1
    86    47    48    1
    87    66    65    2
    88   102   103    1
    89    65    72   am
    90    69    71   am
    91    29    28    1
    92   105   104    2
    93   119   118    1
    94    49    48   ar
    95   104   103    1
    96   104   108   am
    97    24    27    1
    98    24    25    1
    99   118   117   ar
   100   103   106    1
   101   109   108    1
   102   109   112    1
   103    48    50   ar
   104    28    27    1
   105    18    19    1
   106   113   112    1
   107   113   115   ar
   108    83    81   am
   109    72    73    1
   110    19    20    2
   111    25    26    2
   112   117   115   ar
   113    20    21    1
   114    20    22    1
   115    81    82    2
   116    81    80    1
   117   106   107    1
   118    73    74    1
   119    73    76    1
   120    74    75    2
   121    74    79   am
   122    79    80    1
   123   127   128    1
   124    77    76    1
   125   130   129    2
   126    76    78    1
   127   129   128    1
   128   128   131    1
   129    30    31    1
   130   132   131    1
   131   132   134    1
   132   132   133    1
   133    34    31    1
   134    34    35    1
   135    31    32    1
   136    32    33    2
