@<TRIPOS>MOLECULE
tmp/4oztB00.pdb
 91 88 0 0 0
SMALL
GASTEIGER

@<TRIPOS>ATOM
      1  N        -24.5440  -42.7840   14.6330 N.3    76  HIS76      -0.1241
      2  CA       -24.6700  -43.6070   13.4360 C.3    76  HIS76       0.1621
      3  C        -25.6580  -42.9940   12.4500 C.2    76  HIS76       0.2264
      4  O        -25.4200  -42.9480   11.2410 O.2    76  HIS76      -0.2867
      5  CB       -25.1210  -45.0180   13.7980 C.3    76  HIS76       0.0745
      6  CG       -25.4410  -45.8640   12.6070 C.ar   76  HIS76       0.0817
      7  ND1      -24.4730  -46.3070   11.7330 N.ar   76  HIS76      -0.2268
      8  CD2      -26.6210  -46.3300   12.1310 C.ar   76  HIS76       0.1154
      9  CE1      -25.0380  -47.0160   10.7750 C.ar   76  HIS76       0.1986
     10  NE2      -26.3420  -47.0470   10.9910 N.ar   76  HIS76      -0.2212
     11  N        -24.2810  -40.0120   10.5550 N.3    79  GLY79      -0.1210
     12  CA       -23.3380  -40.3050    9.4910 C.3    79  GLY79       0.1956
     13  C        -21.9000  -40.2290    9.9630 C.2    79  GLY79       0.2612
     14  O        -20.9720  -40.1430    9.1580 O.2    79  GLY79      -0.2717
     15  N        -21.7260  -40.2610   11.2810 N.am   80  VAL80      -0.1965
     16  CA       -20.4220  -40.1030   11.9110 C.3    80  VAL80       0.1727
     17  C        -20.1940  -41.2520   12.9070 C.2    80  VAL80       0.2617
     18  O        -19.2250  -41.2600   13.6680 O.2    80  VAL80      -0.2715
     19  CB       -20.3380  -38.7330   12.6310 C.3    80  VAL80       0.0290
     20  CG1      -18.9050  -38.3420   12.9070 C.3    80  VAL80       0.0023
     21  CG2      -20.9730  -37.6650   11.7840 C.3    80  VAL80       0.0023
     22  N        -21.0890  -42.2370   12.8780 N.am   81  GLY81      -0.1940
     23  CA       -21.0800  -43.3190   13.8500 C.3    81  GLY81       0.2014
     24  C        -19.7820  -44.0960   13.9670 C.2    81  GLY81       0.2640
     25  O        -19.4530  -44.6260   15.0290 O.2    81  GLY81      -0.2714
     26  N        -19.0310  -44.1460   12.8760 N.am   82  THR82      -0.1936
     27  CA       -17.8420  -44.9880   12.7980 C.3    82  THR82       0.2028
     28  C        -16.5780  -44.3230   13.3680 C.2    82  THR82       0.2642
     29  O        -15.6360  -45.0040   13.7810 O.2    82  THR82      -0.2714
     30  CB       -17.6330  -45.4860   11.3390 C.3    82  THR82       0.1808
     31  OG1      -17.6840  -46.9160   11.3070 O.3    82  THR82      -0.2208
     32  CG2      -16.3170  -45.0100   10.7530 C.3    82  THR82       0.0379
     33  N        -16.5760  -42.9960   13.4170 N.am   83  ILE83      -0.1977
     34  CA       -15.4050  -42.2500   13.8600 C.3    83  ILE83       0.1596
     35  C        -15.6700  -41.4280   15.1180 C.2    83  ILE83       0.2287
     36  O        -14.7840  -40.7190   15.5970 O.2    83  ILE83      -0.2864
     37  CB       -14.9240  -41.2890   12.7680 C.3    83  ILE83       0.0276
     38  CG1      -16.0640  -40.3530   12.3630 C.3    83  ILE83       0.0022
     39  CG2      -14.4210  -42.0550   11.5590 C.3    83  ILE83       0.0022
     40  CD1      -15.6710  -39.2900   11.3470 C.3    83  ILE83       0.0001
     41  N        -10.6680  -44.0570    8.1000 N.3   169  LYS169     -0.1231
     42  CA       -11.7320  -44.9590    8.5350 C.3   169  LYS169      0.1693
     43  C        -12.9560  -44.8000    7.6380 C.2   169  LYS169      0.2592
     44  O        -13.8980  -45.5890    7.7070 O.2   169  LYS169     -0.2718
     45  CB       -12.1070  -44.7120   10.0050 C.3   169  LYS169      0.0285
     46  CG       -11.4350  -45.6510   11.0190 C.3   169  LYS169      0.0035
     47  CD       -11.9720  -45.4280   12.4390 C.3   169  LYS169      0.0206
     48  CE       -11.5290  -46.5370   13.3940 C.3   169  LYS169      0.1093
     49  NZ       -10.0610  -46.5320   13.6620 N.3   169  LYS169     -0.1314
     50  N        -12.9180  -43.7760    6.7920 N.am  170  CYS170     -0.1956
     51  CA       -13.9820  -43.4980    5.8480 C.3   170  CYS170      0.1843
     52  C        -13.6070  -43.9170    4.4380 C.2   170  CYS170      0.2625
     53  O        -12.7240  -43.3220    3.8310 O.2   170  CYS170     -0.2714
     54  CB       -14.3230  -42.0100    5.8850 C.3   170  CYS170      0.0997
     55  SG       -15.0150  -41.4890    7.4970 S.3   170  CYS170     -0.0797
     56  N        -14.3210  -44.9060    3.9070 N.am  171  LEU171     -0.1963
     57  CA       -14.0900  -45.3840    2.5560 C.3   171  LEU171      0.1728
     58  C        -14.9460  -44.6150    1.5590 C.2   171  LEU171      0.2616
     59  O        -15.0660  -45.0140    0.4050 O.2   171  LEU171     -0.2715
     60  CB       -14.3530  -46.8900    2.4760 C.3   171  LEU171      0.0311
     61  CG       -13.6040  -47.7140    3.5250 C.3   171  LEU171      0.0022
     62  CD1      -13.9710  -49.1780    3.3990 C.3   171  LEU171      0.0001
     63  CD2      -12.1030  -47.5140    3.3960 C.3   171  LEU171      0.0001
     64  N        -15.5210  -43.5020    2.0060 N.am  172  GLU172     -0.1977
     65  CA       -16.3050  -42.6350    1.1300 C.3   172  GLU172      0.1602
     66  C        -16.0530  -41.1740    1.4780 C.2   172  GLU172      0.2287
     67  O        -15.5570  -40.8700    2.5610 O.2   172  GLU172     -0.2864
     68  CB       -17.8000  -42.9520    1.2570 C.3   172  GLU172      0.0415
     69  CG       -18.4070  -42.6050    2.6220 C.3   172  GLU172      0.1163
     70  CD       -19.8200  -43.1480    2.8030 C.2   172  GLU172      0.3649
     71  OE1      -20.0190  -44.3660    2.6110 O.co2 172  GLU172     -0.2457
     72  OE2      -20.7310  -42.3580    3.1420 O.co2 172  GLU172     -0.2457
     73  N        -17.1060  -38.0250    3.0110 N.3   174  LEU174     -0.1245
     74  CA       -18.0600  -37.7350    4.0790 C.3   174  LEU174      0.1561
     75  C        -19.2500  -36.8940    3.6350 C.2   174  LEU174      0.2260
     76  O        -19.0980  -35.9080    2.9140 O.2   174  LEU174     -0.2867
     77  CB       -17.3590  -37.0460    5.2490 C.3   174  LEU174      0.0270
     78  CG       -16.9410  -37.9260    6.4240 C.3   174  LEU174      0.0019
     79  CD1      -16.3030  -37.0910    7.5220 C.3   174  LEU174      0.0001
     80  CD2      -18.1410  -38.6750    6.9560 C.3   174  LEU174      0.0001
     81  N        -23.1990  -38.4300    0.1640 N.3   177  PHE177     -0.1241
     82  CA       -24.3400  -39.2440   -0.2460 C.3   177  PHE177      0.1605
     83  C        -25.6970  -38.6050    0.0600 C.2   177  PHE177      0.2264
     84  O        -26.7240  -39.0740   -0.4270 O.2   177  PHE177     -0.2867
     85  CB       -24.2600  -40.6330    0.3950 C.3   177  PHE177      0.0534
     86  CG       -24.5860  -40.6480    1.8660 C.ar  177  PHE177     -0.0203
     87  CD1      -23.7030  -40.1170    2.7930 C.ar  177  PHE177     -0.0042
     88  CD2      -25.7690  -41.2160    2.3220 C.ar  177  PHE177     -0.0042
     89  CE1      -23.9980  -40.1350    4.1500 C.ar  177  PHE177     -0.0003
     90  CE2      -26.0710  -41.2410    3.6780 C.ar  177  PHE177     -0.0003
     91  CZ       -25.1820  -40.6950    4.5920 C.ar  177  PHE177     -0.0000
@<TRIPOS>BOND
     1    84    83    2
     2    82    83    1
     3    82    81    1
     4    82    85    1
     5    85    86    1
     6    59    58    2
     7    65    68    1
     8    65    66    1
     9    65    64    1
    10    68    69    1
    11    66    67    2
    12    58    64   am
    13    58    57    1
    14    86    88   ar
    15    86    87   ar
    16    88    90   ar
    17    60    57    1
    18    60    61    1
    19    57    56    1
    20    71    70   ar
    21    69    70    1
    22    87    89   ar
    23    70    72   ar
    24    76    75    2
    25    73    74    1
    26    63    61    1
    27    62    61    1
    28    75    74    1
    29    90    91   ar
    30    53    52    2
    31    56    52   am
    32    74    77    1
    33    89    91   ar
    34    52    51    1
    35    77    78    1
    36    51    54    1
    37    51    50    1
    38    54    55    1
    39    78    80    1
    40    78    79    1
    41    50    43   am
    42    43    44    2
    43    43    42    1
    44    41    42    1
    45    42    45    1
    46    14    13    2
    47    12    13    1
    48    12    11    1
    49    13    15   am
    50    45    46    1
    51    32    30    1
    52     9    10   ar
    53     9     7   ar
    54    10     8   ar
    55    46    47    1
    56     4     3    2
    57    15    16    1
    58    31    30    1
    59    30    27    1
    60    40    38    1
    61    39    37    1
    62     7     6   ar
    63    21    19    1
    64    16    19    1
    65    16    17    1
    66     8     6   ar
    67    38    37    1
    68    47    48    1
    69     3     2    1
    70     6     5    1
    71    19    20    1
    72    37    34    1
    73    27    26    1
    74    27    28    1
    75    26    24   am
    76    22    17   am
    77    22    23    1
    78    17    18    2
    79    28    33   am
    80    28    29    2
    81    48    49    1
    82    33    34    1
    83     2     5    1
    84     2     1    1
    85    23    24    1
    86    34    35    1
    87    24    25    2
    88    35    36    2
