@<TRIPOS>MOLECULE
tmp/4oztA00.pdb
 235 222 0 0 0
SMALL
GASTEIGER

@<TRIPOS>ATOM
      1  N         20.2260  -52.4170   12.4140 N.3    23  GLU23      -0.1231
      2  CA        19.8200  -52.0960   11.0540 C.3    23  GLU23       0.1699
      3  C         19.7120  -53.3270   10.1690 C.2    23  GLU23       0.2592
      4  O         18.8620  -53.3870    9.2830 O.2    23  GLU23      -0.2718
      5  CB        20.8190  -51.1230   10.4360 C.3    23  GLU23       0.0402
      6  CG        20.3980  -50.5730    9.0940 C.3    23  GLU23       0.1161
      7  CD        20.7890  -49.1230    8.9390 C.2    23  GLU23       0.3649
      8  OE1       21.9150  -48.7650    9.3500 O.co2  23  GLU23      -0.2457
      9  OE2       19.9650  -48.3380    8.4250 O.co2  23  GLU23      -0.2457
     10  N         20.5810  -54.3040   10.4040 N.am   24  GLN24      -0.1966
     11  CA        20.6340  -55.4860    9.5500 C.3    24  GLN24       0.1718
     12  C         20.4590  -56.7930   10.3150 C.2    24  GLN24       0.2458
     13  O         20.9360  -56.9290   11.4410 O.2    24  GLN24      -0.2730
     14  CB        21.9510  -55.5240    8.7630 C.3    24  GLN24       0.0407
     15  CG        22.0920  -54.4260    7.7200 C.3    24  GLN24       0.0908
     16  CD        22.7690  -54.9110    6.4500 C.2    24  GLN24       0.2608
     17  OE1       23.1880  -56.0670    6.3570 O.2    24  GLN24      -0.2717
     18  NE2       22.8710  -54.0300    5.4610 N.am   24  GLN24      -0.0878
     19  N         19.7680  -57.7610    9.6950 N.am   25  PRO25      -0.2727
     20  CA        19.6520  -59.1110   10.2590 C.3    25  PRO25       0.1402
     21  C         21.0130  -59.7720   10.2760 C.2    25  PRO25       0.2269
     22  O         21.8600  -59.4020    9.4680 O.2    25  PRO25      -0.2865
     23  CB        18.7600  -59.8400    9.2480 C.3    25  PRO25       0.0296
     24  CG        18.0440  -58.7560    8.4940 C.3    25  PRO25       0.0237
     25  CD        19.0050  -57.6100    8.4420 C.3    25  PRO25       0.0939
     26  N         10.8060  -61.7780    0.5810 N.3    51  ILE51      -0.1231
     27  CA        10.1630  -60.5690    1.0980 C.3    51  ILE51       0.1692
     28  C          9.5300  -60.7720    2.4820 C.2    51  ILE51       0.2592
     29  O          9.8270  -60.0250    3.4300 O.2    51  ILE51      -0.2718
     30  CB         9.1260  -60.0230    0.0970 C.3    51  ILE51       0.0266
     31  CG1        9.8370  -59.4350   -1.1220 C.3    51  ILE51       0.0019
     32  CG2        8.2580  -58.9640    0.7430 C.3    51  ILE51       0.0020
     33  CD1        8.9050  -59.0380   -2.2430 C.3    51  ILE51       0.0001
     34  N          8.6910  -61.7990    2.6110 N.am   52  THR52      -0.1953
     35  CA         8.0100  -62.0560    3.8850 C.3    52  THR52       0.1897
     36  C          8.9500  -62.5330    5.0140 C.2    52  THR52       0.2313
     37  O          8.9430  -61.9860    6.1430 O.2    52  THR52      -0.2863
     38  CB         6.8520  -63.0510    3.6910 C.3    52  THR52       0.1794
     39  OG1        7.3230  -64.2000    2.9810 O.3    52  THR52      -0.2208
     40  CG2        5.7390  -62.4120    2.8850 C.3    52  THR52       0.0378
     41  N         12.1840  -62.2100    5.3090 N.3    54  ILE54      -0.1231
     42  CA        13.0800  -61.1490    5.7590 C.3    54  ILE54       0.1692
     43  C         12.2990  -60.1020    6.5420 C.2    54  ILE54       0.2592
     44  O         12.7970  -59.5770    7.5460 O.2    54  ILE54      -0.2718
     45  CB        13.8550  -60.4840    4.6030 C.3    54  ILE54       0.0266
     46  CG1       14.8070  -61.4860    3.9520 C.3    54  ILE54       0.0019
     47  CG2       14.6680  -59.3120    5.1090 C.3    54  ILE54       0.0020
     48  CD1       15.6100  -60.8940    2.8140 C.3    54  ILE54       0.0001
     49  N         11.0730  -59.8120    6.1010 N.am   55  THR55      -0.1953
     50  CA        10.2310  -58.8600    6.8310 C.3    55  THR55       0.1897
     51  C         10.0520  -59.2670    8.3030 C.2    55  THR55       0.2313
     52  O         10.0010  -58.4060    9.1930 O.2    55  THR55      -0.2863
     53  CB         8.8680  -58.6520    6.1450 C.3    55  THR55       0.1794
     54  OG1        9.0790  -58.2070    4.8000 O.3    55  THR55      -0.2208
     55  CG2        8.0440  -57.6170    6.8910 C.3    55  THR55       0.0378
     56  N         13.0690  -58.0790   10.0150 N.3    58  THR58      -0.1218
     57  CA        12.9260  -56.6300   10.0920 C.3    58  THR58       0.1862
     58  C         12.0920  -56.2230   11.3040 C.2    58  THR58       0.2287
     59  O         12.4820  -55.3290   12.0630 O.2    58  THR58      -0.2866
     60  CB        12.2670  -56.0770    8.8250 C.3    58  THR58       0.1770
     61  OG1       13.0640  -56.4200    7.6810 O.3    58  THR58      -0.2211
     62  CG2       12.1180  -54.5670    8.9190 C.3    58  THR58       0.0375
     63  N         14.0470  -56.7040   14.4590 N.3    61  LEU61      -0.1245
     64  CA        15.0110  -55.6140   14.5850 C.3    61  LEU61       0.1561
     65  C         14.3340  -54.3500   15.1120 C.2    61  LEU61       0.2260
     66  O         14.8750  -53.6630   15.9750 O.2    61  LEU61      -0.2867
     67  CB        15.6800  -55.3220   13.2390 C.3    61  LEU61       0.0270
     68  CG        16.5610  -56.4020   12.6090 C.3    61  LEU61       0.0019
     69  CD1       17.0990  -55.9190   11.2770 C.3    61  LEU61       0.0001
     70  CD2       17.6980  -56.7850   13.5370 C.3    61  LEU61       0.0001
     71  N          8.9320  -49.8030    9.6680 N.3    92  MET92      -0.1230
     72  CA         9.3310  -50.6080    8.5240 C.3    92  MET92       0.1702
     73  C          9.4060  -49.7640    7.2510 C.2    92  MET92       0.2592
     74  O         10.3380  -49.9160    6.4580 O.2    92  MET92      -0.2718
     75  CB         8.3540  -51.7750    8.3630 C.3    92  MET92       0.0401
     76  CG         8.6070  -52.6790    7.1900 C.3    92  MET92       0.0596
     77  SD         7.4100  -54.0280    7.1490 S.3    92  MET92      -0.1393
     78  CE         5.8920  -53.1360    6.8410 C.3    92  MET92       0.0692
     79  N          8.4430  -48.8640    7.0600 N.am   93  MET93      -0.1979
     80  CA         8.5060  -47.9380    5.9210 C.3    93  MET93       0.1605
     81  C          9.7450  -47.0370    5.9640 C.2    93  MET93       0.2287
     82  O         10.3710  -46.7780    4.9250 O.2    93  MET93      -0.2864
     83  CB         7.2390  -47.0890    5.8260 C.3    93  MET93       0.0413
     84  CG         5.9740  -47.8950    5.6340 C.3    93  MET93       0.0598
     85  SD         6.0430  -48.8490    4.1190 S.3    93  MET93      -0.1393
     86  CE         4.6000  -49.8980    4.3170 C.3    93  MET93       0.0692
     87  N         12.6910  -47.7500    7.5150 N.3    95  ARG95      -0.1231
     88  CA        13.8190  -48.6330    7.2520 C.3    95  ARG95       0.1694
     89  C         13.9460  -48.9050    5.7590 C.2    95  ARG95       0.2591
     90  O         15.0450  -48.8770    5.2020 O.2    95  ARG95      -0.2718
     91  CB        13.6580  -49.9440    8.0160 C.3    95  ARG95       0.0321
     92  CG        13.9050  -49.8190    9.5040 C.3    95  ARG95       0.0489
     93  CD        13.5260  -51.0970   10.2150 C.3    95  ARG95       0.2205
     94  NE        14.1300  -51.1680   11.5380 N.pl3  95  ARG95      -0.0865
     95  CZ        15.3180  -51.7090   11.7740 C.cat  95  ARG95       0.5346
     96  NH1       16.0180  -52.2200   10.7730 N.pl3  95  ARG95       0.1354
     97  NH2       15.8020  -51.7400   13.0050 N.pl3  95  ARG95       0.1354
     98  N         12.8120  -49.1540    5.1160 N.am   96  MET96      -0.1979
     99  CA        12.7940  -49.3530    3.6760 C.3    96  MET96       0.1605
    100  C         13.3220  -48.1240    2.9460 C.2    96  MET96       0.2287
    101  O         14.1810  -48.2360    2.0730 O.2    96  MET96      -0.2864
    102  CB        11.3800  -49.6680    3.2010 C.3    96  MET96       0.0413
    103  CG        11.1920  -49.4490    1.7220 C.3    96  MET96       0.0598
    104  SD         9.4640  -49.1880    1.3220 S.3    96  MET96      -0.1393
    105  CE         9.1680  -50.6260    0.3100 C.3    96  MET96       0.0692
    106  N         17.0220  -47.6160    2.4460 N.3    99  ARG99      -0.1245
    107  CA        17.7490  -48.5180    1.5520 C.3    99  ARG99       0.1563
    108  C         17.3580  -48.3180    0.0920 C.2    99  ARG99       0.2260
    109  O         17.6150  -49.1780   -0.7580 O.2    99  ARG99      -0.2867
    110  CB        17.5250  -49.9770    1.9570 C.3    99  ARG99       0.0307
    111  CG        18.0030  -50.3070    3.3550 C.3    99  ARG99       0.0489
    112  CD        19.5010  -50.4830    3.3860 C.3    99  ARG99       0.2205
    113  NE        19.8830  -51.7990    2.8850 N.pl3  99  ARG99      -0.0865
    114  CZ        21.1280  -52.1600    2.5950 C.cat  99  ARG99       0.5346
    115  NH1       22.1250  -51.2990    2.7450 N.pl3  99  ARG99       0.1354
    116  NH2       21.3750  -53.3810    2.1470 N.pl3  99  ARG99       0.1354
    117  N         14.7970  -50.9510   -4.1090 N.3   107  ILE107     -0.1231
    118  CA        15.1920  -51.1210   -2.7210 C.3   107  ILE107      0.1692
    119  C         16.2530  -52.2060   -2.6350 C.2   107  ILE107      0.2592
    120  O         16.0730  -53.2990   -3.1750 O.2   107  ILE107     -0.2718
    121  CB        13.9980  -51.4930   -1.8390 C.3   107  ILE107      0.0266
    122  CG1       13.0400  -50.3090   -1.7430 C.3   107  ILE107      0.0019
    123  CG2       14.4650  -51.8820   -0.4550 C.3   107  ILE107      0.0020
    124  CD1       11.6420  -50.6540   -2.1320 C.3   107  ILE107      0.0001
    125  N         17.3650  -51.8950   -1.9740 N.am  108  LEU108     -0.1966
    126  CA        18.4640  -52.8440   -1.8230 C.3   108  LEU108      0.1728
    127  C         18.3110  -53.6080   -0.5150 C.2   108  LEU108      0.2616
    128  O         18.4420  -53.0250    0.5620 O.2   108  LEU108     -0.2715
    129  CB        19.8030  -52.1060   -1.8460 C.3   108  LEU108      0.0311
    130  CG        21.0760  -52.9530   -1.7930 C.3   108  LEU108      0.0022
    131  CD1       21.2040  -53.8060   -3.0450 C.3   108  LEU108      0.0001
    132  CD2       22.2990  -52.0690   -1.6120 C.3   108  LEU108      0.0001
    133  N         18.0300  -54.9060   -0.6000 N.am  109  PHE109     -0.1960
    134  CA        17.8080  -55.7060    0.6090 C.3   109  PHE109      0.1771
    135  C         19.1110  -56.0070    1.3380 C.2   109  PHE109      0.2619
    136  O         20.1910  -55.7660    0.8090 O.2   109  PHE109     -0.2715
    137  CB        17.0830  -57.0130    0.2920 C.3   109  PHE109      0.0574
    138  CG        15.6160  -56.8500    0.0080 C.ar  109  PHE109     -0.0200
    139  CD1       15.0580  -55.5940   -0.1960 C.ar  109  PHE109     -0.0042
    140  CD2       14.7880  -57.9630   -0.0440 C.ar  109  PHE109     -0.0042
    141  CE1       13.6980  -55.4520   -0.4630 C.ar  109  PHE109     -0.0003
    142  CE2       13.4330  -57.8320   -0.3100 C.ar  109  PHE109     -0.0003
    143  CZ        12.8860  -56.5740   -0.5180 C.ar  109  PHE109     -0.0000
    144  N         19.0030  -56.5430    2.5500 N.am  110  ALA110     -0.1977
    145  CA        20.1690  -56.7870    3.3970 C.3   110  ALA110      0.1597
    146  C         21.1210  -57.8260    2.8060 C.2   110  ALA110      0.2287
    147  O         22.2750  -57.9250    3.2220 O.2   110  ALA110     -0.2864
    148  CB        19.7290  -57.1930    4.8000 C.3   110  ALA110      0.0319
    149  N          8.5590  -56.9730   -6.8500 N.3   120  TYR120     -0.1241
    150  CA         7.3430  -56.9400   -6.0470 C.3   120  TYR120      0.1605
    151  C          6.1130  -57.4030   -6.8240 C.2   120  TYR120      0.2264
    152  O          5.2920  -58.1520   -6.2940 O.2   120  TYR120     -0.2867
    153  CB         7.1160  -55.5390   -5.4800 C.3   120  TYR120      0.0534
    154  CG         7.9600  -55.2280   -4.2660 C.ar  120  TYR120     -0.0201
    155  CD1        9.2710  -54.7840   -4.3980 C.ar  120  TYR120     -0.0009
    156  CD2        7.4450  -55.3780   -2.9870 C.ar  120  TYR120     -0.0009
    157  CE1       10.0460  -54.4980   -3.2860 C.ar  120  TYR120      0.0417
    158  CE2        8.2100  -55.0970   -1.8700 C.ar  120  TYR120      0.0417
    159  CZ         9.5090  -54.6570   -2.0240 C.ar  120  TYR120      0.1957
    160  OH        10.2640  -54.3760   -0.9080 O.3   120  TYR120     -0.2866
    161  N          2.8040  -58.5810   -5.1470 N.3   125  MET125     -0.1245
    162  CA         2.6270  -57.3550   -4.3880 C.3   125  MET125      0.1570
    163  C          2.8100  -56.1300   -5.2790 C.2   125  MET125      0.2261
    164  O          3.5770  -55.2290   -4.9490 O.2   125  MET125     -0.2867
    165  CB         3.6300  -57.3120   -3.2330 C.3   125  MET125      0.0387
    166  CG         3.5950  -58.5280   -2.3170 C.3   125  MET125      0.0595
    167  SD         4.8390  -58.4390   -1.0150 S.3   125  MET125     -0.1393
    168  CE         4.1640  -59.5750    0.1920 C.3   125  MET125      0.0692
    169  N          0.8210  -52.0220   -4.5510 N.3   128  THR128     -0.1218
    170  CA         1.2140  -51.1250   -3.4610 C.3   128  THR128      0.1862
    171  C          2.6370  -50.5670   -3.6470 C.2   128  THR128      0.2287
    172  O          3.0200  -49.4890   -3.1200 O.2   128  THR128     -0.2866
    173  CB         1.0590  -51.8980   -2.1210 C.3   128  THR128      0.1770
    174  OG1       -0.1590  -51.5020   -1.4790 O.3   128  THR128     -0.2211
    175  CG2        2.2240  -51.6790   -1.1780 C.3   128  THR128      0.0375
    176  N          4.9320  -47.3330   -2.2980 N.3   132  LEU132     -0.1245
    177  CA         6.1480  -47.5430   -1.5030 C.3   132  LEU132      0.1561
    178  C          7.3650  -46.7870   -2.0670 C.2   132  LEU132      0.2260
    179  O          8.0350  -46.0120   -1.3630 O.2   132  LEU132     -0.2867
    180  CB         6.4610  -49.0360   -1.4060 C.3   132  LEU132      0.0270
    181  CG         5.4000  -49.9140   -0.7420 C.3   132  LEU132      0.0019
    182  CD1        5.8740  -51.3560   -0.6210 C.3   132  LEU132      0.0001
    183  CD2        5.0190  -49.3640    0.6160 C.3   132  LEU132      0.0001
    184  N         -0.3870  -51.1600    4.1550 N.3   214  ASN214     -0.1240
    185  CA         0.3070  -52.3940    4.4760 C.3   214  ASN214      0.1653
    186  C         -0.6200  -53.3500    5.2040 C.2   214  ASN214      0.2266
    187  O         -0.4570  -54.5730    5.1440 O.2   214  ASN214     -0.2867
    188  CB         1.5500  -52.1140    5.3150 C.3   214  ASN214      0.1155
    189  CG         2.3470  -53.3670    5.5940 C.2   214  ASN214      0.2627
    190  OD1        2.2110  -53.9820    6.6520 O.2   214  ASN214     -0.2716
    191  ND2        3.1730  -53.7650    4.6370 N.am  214  ASN214     -0.0877
    192  N         -2.8870  -54.9730    2.3440 N.3   217  MET217     -0.1230
    193  CA        -2.4410  -56.1940    1.7030 C.3   217  MET217      0.1702
    194  C         -3.1180  -57.3270    2.4880 C.2   217  MET217      0.2592
    195  O         -4.2120  -57.1380    3.0340 O.2   217  MET217     -0.2718
    196  CB        -0.9190  -56.2670    1.6860 C.3   217  MET217      0.0401
    197  CG        -0.3340  -57.2550    0.6960 C.3   217  MET217      0.0596
    198  SD         0.9860  -56.5380   -0.2930 S.3   217  MET217     -0.1393
    199  CE         0.0650  -55.5880   -1.5080 C.3   217  MET217      0.0692
    200  N         -2.4780  -58.4890    2.5770 N.am  218  CYS218     -0.1970
    201  CA        -3.0300  -59.7000    3.2310 C.3   218  CYS218      0.1712
    202  C         -4.5230  -60.0620    3.0580 C.2   218  CYS218      0.2296
    203  O         -4.9330  -61.1540    3.4540 O.2   218  CYS218     -0.2864
    204  CB        -2.6870  -59.6820    4.7060 C.3   218  CYS218      0.0983
    205  SG        -2.1230  -58.0650    5.3030 S.3   218  CYS218     -0.0798
    206  N          0.4910  -64.5990    4.4660 N.3   228  LEU228     -0.1245
    207  CA         1.4670  -63.9670    5.3400 C.3   228  LEU228      0.1561
    208  C          1.9280  -64.9690    6.3760 C.2   228  LEU228      0.2260
    209  O          1.1210  -65.7560    6.8680 O.2   228  LEU228     -0.2867
    210  CB         0.8500  -62.7800    6.0780 C.3   228  LEU228      0.0270
    211  CG         0.8200  -61.4060    5.4300 C.3   228  LEU228      0.0019
    212  CD1        0.3540  -60.3990    6.4590 C.3   228  LEU228      0.0001
    213  CD2        2.1930  -61.0460    4.9080 C.3   228  LEU228      0.0001
    214  N          3.5390  -62.1650   11.3400 N.3   232  LEU232     -0.1245
    215  CA         3.1430  -60.8940   10.7340 C.3   232  LEU232      0.1561
    216  C          1.6290  -60.7110   10.7450 C.2   232  LEU232      0.2260
    217  O          1.1250  -59.6110   10.9700 O.2   232  LEU232     -0.2867
    218  CB         3.6750  -60.7920    9.3040 C.3   232  LEU232      0.0270
    219  CG         5.1960  -60.8270    9.1690 C.3   232  LEU232      0.0019
    220  CD1        5.6260  -60.6940    7.7160 C.3   232  LEU232      0.0001
    221  CD2        5.8090  -59.7320   10.0160 C.3   232  LEU232      0.0001
    222  N         -0.0060  -57.5580   12.8990 N.3   236  TRP236     -0.1241
    223  CA        -0.7560  -56.5220   12.1830 C.3   236  TRP236      0.1605
    224  C         -2.2630  -56.7210   12.1680 C.2   236  TRP236      0.2264
    225  O         -2.9630  -56.1480   11.3260 O.2   236  TRP236     -0.2867
    226  CB        -0.2260  -56.3760   10.7600 C.3   236  TRP236      0.0550
    227  CG         1.1680  -55.8170   10.7560 C.ar  236  TRP236      0.0003
    228  CD1        1.7090  -54.9730   11.6790 C.ar  236  TRP236      0.0946
    229  CD2        2.2130  -56.0910    9.7990 C.ar  236  TRP236      0.0152
    230  NE1        3.0180  -54.6970   11.3460 N.ar  236  TRP236     -0.2442
    231  CE2        3.3480  -55.3710   10.2010 C.ar  236  TRP236      0.0810
    232  CE3        2.2880  -56.8750    8.6450 C.ar  236  TRP236      0.0012
    233  CZ2        4.5600  -55.4110    9.4720 C.ar  236  TRP236      0.0191
    234  CZ3        3.4940  -56.9130    7.9230 C.ar  236  TRP236      0.0001
    235  CH2        4.6050  -56.1880    8.3400 C.ar  236  TRP236      0.0015
@<TRIPOS>BOND
     1   149   150    1
     2   151   152    2
     3   151   150    1
     4   150   153    1
     5   153   154    1
     6   163   164    2
     7   163   162    1
     8   161   162    1
     9   169   170    1
    10   155   154   ar
    11   155   157   ar
    12   162   165    1
    13   154   156   ar
    14   117   118    1
    15   171   170    1
    16   171   172    2
    17   170   173    1
    18   157   159   ar
    19   165   166    1
    20   120   119    2
    21   131   130    1
    22   156   158   ar
    23   118   119    1
    24   118   121    1
    25   119   125   am
    26   166   167    1
    27   176   177    1
    28    33    31    1
    29   124   122    1
    30   173   174    1
    31   173   175    1
    32   178   177    1
    33   178   179    2
    34   159   158   ar
    35   159   160    1
    36   125   126    1
    37   129   126    1
    38   129   130    1
    39   121   122    1
    40   121   123    1
    41   126   127    1
    42   130   132    1
    43   199   198    1
    44   177   180    1
    45   180   181    1
    46    31    30    1
    47   167   168    1
    48   109   108    2
    49   181   182    1
    50   181   183    1
    51   133   127   am
    52   133   134    1
    53   143   141   ar
    54   143   142   ar
    55   127   128    2
    56   141   139   ar
    57   142   140   ar
    58   198   197    1
    59   139   138   ar
    60   140   138   ar
    61   138   137    1
    62   108   107    1
    63    30    32    1
    64    30    27    1
    65   137   134    1
    66   105   104    1
    67    26    27    1
    68   134   135    1
    69   197   196    1
    70   136   135    2
    71    27    28    1
    72   104   103    1
    73   135   144   am
    74   107   110    1
    75   107   106    1
    76   196   193    1
    77   193   192    1
    78   193   194    1
    79   103   102    1
    80   110   111    1
    81   101   100    2
    82   116   114    1
    83    28    34   am
    84    28    29    2
    85   194   200   am
    86   194   195    2
    87   144   145    1
    88   200   201    1
    89   114   115    1
    90   114   113    2
    91    34    35    1
    92   146   147    2
    93   146   145    1
    94    48    46    1
    95   113   112    1
    96    40    38    1
    97   100    99    1
    98    39    38    1
    99   202   201    1
   100   202   203    2
   101   102    99    1
   102   201   204    1
   103   111   112    1
   104   145   148    1
   105    99    98    1
   106    38    35    1
   107    35    36    1
   108    46    45    1
   109    85    86    1
   110    85    84    1
   111   184   185    1
   112   206   207    1
   113   185   186    1
   114   185   188    1
   115    45    47    1
   116    45    42    1
   117   191   189   am
   118   204   205    1
   119    54    53    1
   120   213   211    1
   121    82    81    2
   122    36    37    2
   123    98    89   am
   124   187   186    2
   125    90    89    2
   126    41    42    1
   127   188   189    1
   128   207   210    1
   129   207   208    1
   130   211   210    1
   131   211   212    1
   132    18    16   am
   133   189   190    2
   134    84    83    1
   135    42    43    1
   136    89    88    1
   137    83    80    1
   138    80    81    1
   139    80    79    1
   140    49    43   am
   141    49    50    1
   142    53    50    1
   143    53    55    1
   144    17    16    2
   145   208   209    2
   146    16    15    1
   147    74    73    2
   148    43    44    2
   149    50    51    1
   150    78    77    1
   151    79    73   am
   152    77    76    1
   153    76    75    1
   154    73    72    1
   155    88    87    1
   156    88    91    1
   157    61    60    1
   158   220   219    1
   159    15    14    1
   160   234   235   ar
   161   234   232   ar
   162    91    92    1
   163    51    52    2
   164   235   233   ar
   165    75    72    1
   166     9     7   ar
   167    25    24    1
   168    25    19    1
   169    24    23    1
   170    72    71    1
   171   232   229   ar
   172    14    11    1
   173    60    62    1
   174    60    57    1
   175     7     6    1
   176     7     8   ar
   177     6     5    1
   178   219   218    1
   179   219   221    1
   180    23    20    1
   181     4     3    2
   182   218   215    1
   183    22    21    2
   184   233   231   ar
   185    92    93    1
   186    11    12    1
   187    11    10    1
   188    19    20    1
   189    19    12   am
   190   229   231   ar
   191   229   227   ar
   192    56    57    1
   193    57    58    1
   194     3    10   am
   195     3     2    1
   196   231   230   ar
   197    93    94    1
   198    20    21    1
   199    12    13    2
   200     5     2    1
   201   215   216    1
   202   215   214    1
   203   216   217    2
   204   227   226    1
   205   227   228   ar
   206   226   223    1
   207    96    95    1
   208     2     1    1
   209    69    68    1
   210    58    59    2
   211   225   224    2
   212   230   228   ar
   213    94    95    2
   214    95    97    1
   215   224   223    1
   216   223   222    1
   217    68    67    1
   218    68    70    1
   219    67    64    1
   220    63    64    1
   221    64    65    1
   222    65    66    2
