@<TRIPOS>MOLECULE
tmp/4ozvA00.pdb
 139 137 0 0 0
SMALL
GASTEIGER

@<TRIPOS>ATOM
      1  N        -11.9110   -4.4730   -4.1610 N.3    36  SER36      -0.1202
      2  CA       -13.1300   -3.6830   -4.0320 C.3    36  SER36       0.2020
      3  C        -13.1660   -2.9690   -2.6920 C.2    36  SER36       0.2619
      4  O        -12.8250   -3.5480   -1.6610 O.2    36  SER36      -0.2717
      5  CB       -14.3710   -4.5630   -4.1830 C.3    36  SER36       0.2103
      6  OG       -15.5360   -3.8560   -3.7880 O.3    36  SER36      -0.2182
      7  N        -13.5980   -1.7130   -2.6990 N.am   37  LYS37      -0.1965
      8  CA       -13.6550   -0.9480   -1.4630 C.3    37  LYS37       0.1728
      9  C        -14.7410   -1.4900   -0.5320 C.2    37  LYS37       0.2616
     10  O        -14.7840   -1.1430    0.6470 O.2    37  LYS37      -0.2715
     11  CB       -13.8900    0.5340   -1.7520 C.3    37  LYS37       0.0311
     12  CG       -15.2730    0.8750   -2.2840 C.3    37  LYS37       0.0038
     13  CD       -15.5350    2.3650   -2.1080 C.3    37  LYS37       0.0206
     14  CE       -16.8480    2.7840   -2.7380 C.3    37  LYS37       0.1093
     15  NZ       -16.7190    2.9380   -4.2130 N.3    37  LYS37      -0.1314
     16  N        -15.6080   -2.3450   -1.0640 N.am   38  TYR38      -0.1974
     17  CA       -16.6720   -2.9500   -0.2680 C.3    38  TYR38       0.1639
     18  C        -16.3480   -4.3990    0.0970 C.2    38  TYR38       0.2290
     19  O        -17.2400   -5.1630    0.4690 O.2    38  TYR38      -0.2864
     20  CB       -18.0110   -2.9030   -1.0160 C.3    38  TYR38       0.0560
     21  CG       -18.5980   -1.5200   -1.1930 C.ar   38  TYR38      -0.0198
     22  CD1      -18.9130   -0.7310   -0.0930 C.ar   38  TYR38      -0.0009
     23  CD2      -18.8600   -1.0110   -2.4590 C.ar   38  TYR38      -0.0009
     24  CE1      -19.4590    0.5320   -0.2490 C.ar   38  TYR38       0.0417
     25  CE2      -19.4070    0.2490   -2.6250 C.ar   38  TYR38       0.0417
     26  CZ       -19.7050    1.0150   -1.5160 C.ar   38  TYR38       0.1957
     27  OH       -20.2500    2.2700   -1.6700 O.3    38  TYR38      -0.2866
     28  N        -23.5890   -4.9560   -0.6390 N.3    45  ARG45      -0.1245
     29  CA       -22.3150   -4.3520   -1.0400 C.3    45  ARG45       0.1563
     30  C        -22.2400   -2.8830   -0.6340 C.2    45  ARG45       0.2260
     31  O        -21.8870   -2.0220   -1.4400 O.2    45  ARG45      -0.2867
     32  CB       -22.1050   -4.4930   -2.5520 C.3    45  ARG45       0.0307
     33  CG       -22.0950   -5.9390   -3.0540 C.3    45  ARG45       0.0489
     34  CD       -20.9590   -6.7470   -2.4330 C.3    45  ARG45       0.2205
     35  NE       -19.6450   -6.2160   -2.7920 N.pl3  45  ARG45      -0.0865
     36  CZ       -18.4900   -6.7190   -2.3640 C.cat  45  ARG45       0.5346
     37  NH1      -17.3440   -6.1710   -2.7450 N.pl3  45  ARG45       0.1354
     38  NH2      -18.4780   -7.7730   -1.5580 N.pl3  45  ARG45       0.1354
     39  N         -7.2940   -0.3780   -2.7270 N.3    56  PHE56      -0.1241
     40  CA        -7.9050   -0.0210   -4.0090 C.3    56  PHE56       0.1605
     41  C         -7.3380    1.2780   -4.5850 C.2    56  PHE56       0.2264
     42  O         -6.8030    1.2800   -5.6950 O.2    56  PHE56      -0.2867
     43  CB        -9.4250    0.0930   -3.8390 C.3    56  PHE56       0.0534
     44  CG       -10.1370    0.7440   -4.9970 C.ar   56  PHE56      -0.0203
     45  CD1      -10.1030    0.1870   -6.2660 C.ar   56  PHE56      -0.0042
     46  CD2      -10.8850    1.8970   -4.8000 C.ar   56  PHE56      -0.0042
     47  CE1      -10.7790    0.7920   -7.3240 C.ar   56  PHE56      -0.0003
     48  CE2      -11.5640    2.4980   -5.8510 C.ar   56  PHE56      -0.0003
     49  CZ       -11.5110    1.9430   -7.1100 C.ar   56  PHE56      -0.0000
     50  N        -14.2450   -7.4140  -11.7300 N.3   109  HIS109     -0.1226
     51  CA       -15.2950   -6.4020  -11.8500 C.3   109  HIS109      0.1752
     52  C        -14.7750   -4.9940  -11.5700 C.2   109  HIS109      0.2596
     53  O        -15.0790   -4.0550  -12.3050 O.2   109  HIS109     -0.2718
     54  CB       -16.4610   -6.7220  -10.9100 C.3   109  HIS109      0.0759
     55  CG       -17.6020   -5.7580  -11.0220 C.ar  109  HIS109      0.0818
     56  ND1      -17.6950   -4.6180  -10.2510 N.ar  109  HIS109     -0.2268
     57  CD2      -18.6990   -5.7620  -11.8180 C.ar  109  HIS109      0.1154
     58  CE1      -18.7970   -3.9610  -10.5680 C.ar  109  HIS109      0.1986
     59  NE2      -19.4250   -4.6360  -11.5160 N.ar  109  HIS109     -0.2212
     60  N        -13.9720   -4.8570  -10.5200 N.am  110  THR110     -0.1953
     61  CA       -13.4250   -3.5610  -10.1350 C.3   110  THR110      0.1897
     62  C        -12.4970   -3.0000  -11.2170 C.2   110  THR110      0.2313
     63  O        -12.5060   -1.7940  -11.5100 O.2   110  THR110     -0.2863
     64  CB       -12.6630   -3.6700   -8.7990 C.3   110  THR110      0.1794
     65  OG1      -13.5350   -4.2130   -7.7980 O.3   110  THR110     -0.2208
     66  CG2      -12.1640   -2.3110   -8.3460 C.3   110  THR110      0.0378
     67  N        -14.3390   -1.8250  -14.2470 N.3   113  SER113     -0.1217
     68  CA       -14.9490   -0.5590  -13.8480 C.3   113  SER113      0.1889
     69  C        -13.9640    0.5920  -14.0120 C.2   113  SER113      0.2288
     70  O        -14.3550    1.6850  -14.4090 O.2   113  SER113     -0.2866
     71  CB       -15.4540   -0.6170  -12.4050 C.3   113  SER113      0.2089
     72  OG       -16.5540   -1.5170  -12.2880 O.3   113  SER113     -0.2183
     73  N        -14.3290    3.9290  -16.4500 N.3   117  TRP117     -0.1241
     74  CA       -14.2980    5.2450  -15.8000 C.3   117  TRP117      0.1605
     75  C        -13.2530    6.1490  -16.4400 C.2   117  TRP117      0.2264
     76  O        -13.5300    7.3090  -16.7540 O.2   117  TRP117     -0.2867
     77  CB       -14.0420    5.1070  -14.3000 C.3   117  TRP117      0.0550
     78  CG       -15.3050    4.8680  -13.4830 C.ar  117  TRP117      0.0003
     79  CD1      -16.5880    5.2550  -13.7960 C.ar  117  TRP117      0.0946
     80  CD2      -15.3930    4.1740  -12.2320 C.ar  117  TRP117      0.0152
     81  NE1      -17.4610    4.8420  -12.8060 N.ar  117  TRP117     -0.2442
     82  CE2      -16.7490    4.1840  -11.8360 C.ar  117  TRP117      0.0810
     83  CE3      -14.4540    3.5530  -11.4030 C.ar  117  TRP117      0.0012
     84  CZ2      -17.1820    3.5930  -10.6500 C.ar  117  TRP117      0.0191
     85  CZ3      -14.8870    2.9660  -10.2290 C.ar  117  TRP117      0.0001
     86  CH2      -16.2380    2.9910   -9.8630 C.ar  117  TRP117      0.0015
     87  N        -25.7220    0.8580  -11.9730 N.3   172  ASN172     -0.1225
     88  CA       -25.0860    2.1130  -12.3520 C.3   172  ASN172      0.1785
     89  C        -23.7660    1.9110  -13.1130 C.2   172  ASN172      0.2597
     90  O        -23.4150    2.7480  -13.9370 O.2   172  ASN172     -0.2718
     91  CB       -24.8610    2.9920  -11.1240 C.3   172  ASN172      0.1169
     92  CG       -23.8890    2.3890  -10.1520 C.2   172  ASN172      0.2627
     93  OD1      -22.6790    2.5770  -10.2740 O.2   172  ASN172     -0.2716
     94  ND2      -24.4070    1.6580   -9.1730 N.am  172  ASN172     -0.0877
     95  N        -23.0680    0.7980  -12.8870 N.am  173  HIS173     -0.1975
     96  CA       -21.8260    0.5690  -13.6190 C.3   173  HIS173      0.1656
     97  C        -22.0630    0.4580  -15.1150 C.2   173  HIS173      0.2291
     98  O        -21.2910    0.9920  -15.9140 O.2   173  HIS173     -0.2864
     99  CB       -21.1060   -0.6770  -13.1200 C.3   173  HIS173      0.0771
    100  CG       -20.3210   -0.4480  -11.8730 C.ar  173  HIS173      0.0820
    101  ND1      -19.1270    0.2450  -11.8630 N.ar  173  HIS173     -0.2267
    102  CD2      -20.5620   -0.8030  -10.5890 C.ar  173  HIS173      0.1154
    103  CE1      -18.6600    0.2950  -10.6290 C.ar  173  HIS173      0.1986
    104  NE2      -19.5110   -0.3340   -9.8370 N.ar  173  HIS173     -0.2212
    105  N        -28.8600   -1.4090   -2.3370 N.3   220  ARG220     -0.1245
    106  CA       -27.6970   -0.8580   -1.6480 C.3   220  ARG220      0.1563
    107  C        -28.0950   -0.2410   -0.3050 C.2   220  ARG220      0.2260
    108  O        -27.2950    0.4370    0.3340 O.2   220  ARG220     -0.2867
    109  CB       -26.9870    0.1760   -2.5240 C.3   220  ARG220      0.0307
    110  CG       -26.6370   -0.3120   -3.9280 C.3   220  ARG220      0.0489
    111  CD       -25.8440   -1.6160   -3.9270 C.3   220  ARG220      0.2205
    112  NE       -24.4380   -1.4330   -3.5670 N.pl3 220  ARG220     -0.0865
    113  CZ       -23.5010   -1.0190   -4.4160 C.cat 220  ARG220      0.5346
    114  NH1      -22.2430   -0.8790   -4.0130 N.pl3 220  ARG220      0.1354
    115  NH2      -23.8250   -0.7390   -5.6710 N.pl3 220  ARG220      0.1354
    116  N        -27.0410    6.0700   -4.6580 N.3   227  TYR227     -0.1241
    117  CA       -26.7690    5.3480   -5.8950 C.3   227  TYR227      0.1605
    118  C        -27.8100    5.6540   -6.9790 C.2   227  TYR227      0.2264
    119  O        -27.4950    5.5820   -8.1620 O.2   227  TYR227     -0.2867
    120  CB       -26.6510    3.8360   -5.6310 C.3   227  TYR227      0.0534
    121  CG       -25.2320    3.4270   -5.2660 C.ar  227  TYR227     -0.0201
    122  CD1      -24.2110    3.4900   -6.2090 C.ar  227  TYR227     -0.0009
    123  CD2      -24.9090    3.0030   -3.9830 C.ar  227  TYR227     -0.0009
    124  CE1      -22.9060    3.1340   -5.8880 C.ar  227  TYR227      0.0417
    125  CE2      -23.6050    2.6390   -3.6530 C.ar  227  TYR227      0.0417
    126  CZ       -22.6120    2.7080   -4.6110 C.ar  227  TYR227      0.1957
    127  OH       -21.3190    2.3580   -4.3010 O.3   227  TYR227     -0.2866
    128  N        -26.4240    8.7180   -8.3750 N.3   230  TYR230     -0.1241
    129  CA       -25.2340    8.3590   -9.1410 C.3   230  TYR230      0.1605
    130  C        -25.5910    7.8310  -10.5330 C.2   230  TYR230      0.2264
    131  O        -24.7980    7.9420  -11.4740 O.2   230  TYR230     -0.2867
    132  CB       -24.4060    7.3270   -8.3670 C.3   230  TYR230      0.0534
    133  CG       -23.0330    7.0430   -8.9450 C.ar  230  TYR230     -0.0201
    134  CD1      -22.1340    8.0760   -9.1900 C.ar  230  TYR230     -0.0009
    135  CD2      -22.6200    5.7390   -9.2070 C.ar  230  TYR230     -0.0009
    136  CE1      -20.8750    7.8170   -9.7090 C.ar  230  TYR230      0.0417
    137  CE2      -21.3580    5.4720   -9.7240 C.ar  230  TYR230      0.0417
    138  CZ       -20.4940    6.5170   -9.9710 C.ar  230  TYR230      0.1957
    139  OH       -19.2320    6.2740  -10.4870 O.3   230  TYR230     -0.2866
@<TRIPOS>BOND
     1    76    75    2
     2    73    74    1
     3    75    74    1
     4    98    97    2
     5    74    77    1
     6    97    96    1
     7    70    69    2
     8    77    78    1
     9    67    68    1
    10    69    68    1
    11    90    89    2
    12    68    71    1
    13    79    78   ar
    14    79    81   ar
    15    96    99    1
    16    96    95    1
    17    78    80   ar
    18    99   100    1
    19    89    95   am
    20    89    88    1
    21    81    82   ar
    22    71    72    1
    23    88    87    1
    24    88    91    1
    25    53    52    2
    26    80    82   ar
    27    80    83   ar
    28   100   101   ar
    29   100   102   ar
    30   101   103   ar
    31    51    50    1
    32    51    52    1
    33    51    54    1
    34    82    84   ar
    35    57    59   ar
    36    57    55   ar
    37    52    60   am
    38    59    58   ar
    39    63    62    2
    40   131   130    2
    41    83    85   ar
    42    62    61    1
    43    91    92    1
    44    55    54    1
    45    55    56   ar
    46    84    86   ar
    47   103   104   ar
    48   102   104   ar
    49    58    56   ar
    50   130   129    1
    51    60    61    1
    52   139   138    1
    53    93    92    2
    54    85    86   ar
    55    92    94   am
    56    61    64    1
    57   138   137   ar
    58   138   136   ar
    59   137   135   ar
    60   136   134   ar
    61   135   133   ar
    62   134   133   ar
    63   129   128    1
    64   129   132    1
    65   133   132    1
    66    64    66    1
    67    64    65    1
    68   119   118    2
    69    47    49   ar
    70    47    45   ar
    71    49    48   ar
    72   118   117    1
    73    45    44   ar
    74   122   124   ar
    75   122   121   ar
    76   117   120    1
    77   117   116    1
    78   124   126   ar
    79    48    46   ar
    80    42    41    2
    81   115   113    1
    82   120   121    1
    83   121   123   ar
    84    44    46   ar
    85    44    43    1
    86   126   127    1
    87   126   125   ar
    88    41    40    1
    89   113   114    1
    90   113   112    2
    91    15    14    1
    92     5     2    1
    93     5     6    1
    94     1     2    1
    95     2     3    1
    96    40    43    1
    97    40    39    1
    98   123   125   ar
    99   110   111    1
   100   110   109    1
   101   111   112    1
   102    33    32    1
   103    33    34    1
   104    35    34    1
   105    35    36    2
   106    37    36    1
   107    14    13    1
   108     7     3   am
   109     7     8    1
   110     3     4    2
   111    25    23   ar
   112    25    26   ar
   113    32    29    1
   114   109   106    1
   115    23    21   ar
   116    36    38    1
   117   105   106    1
   118    12    13    1
   119    12    11    1
   120    11     8    1
   121    27    26    1
   122   106   107    1
   123    26    24   ar
   124     8     9    1
   125    31    30    2
   126    21    20    1
   127    21    22   ar
   128    16     9   am
   129    16    17    1
   130    29    28    1
   131    29    30    1
   132    20    17    1
   133     9    10    2
   134   107   108    2
   135    17    18    1
   136    24    22   ar
   137    18    19    2
