@<TRIPOS>MOLECULE
tmp/4p01A00.pdb
 83 80 0 0 0
SMALL
GASTEIGER

@<TRIPOS>ATOM
      1  N        -36.6460  -13.4980    9.9740 N.3     1  PRO1       -0.2102
      2  CA       -35.9950  -12.6300   10.9690 C.3     1  PRO1        0.1504
      3  C        -34.6850  -13.2420   11.4810 C.2     1  PRO1        0.2575
      4  O        -34.6480  -14.4390   11.7080 O.2     1  PRO1       -0.2718
      5  CB       -37.0100  -12.6020   12.1100 C.3     1  PRO1        0.0282
      6  CG       -38.2850  -13.2040   11.5270 C.3     1  PRO1        0.0208
      7  CD       -37.8420  -14.1650   10.4910 C.3     1  PRO1        0.0893
      8  N        -33.6710  -12.4270   11.6650 N.am    2  MET2       -0.1980
      9  CA       -32.4020  -12.7940   12.1800 C.3     2  MET2        0.1605
     10  C        -32.0500  -11.8250   13.3060 C.2     2  MET2        0.2287
     11  O        -32.1250  -10.5940   13.1270 O.2     2  MET2       -0.2864
     12  CB       -31.3220  -12.6150   11.1460 C.3     2  MET2        0.0413
     13  CG       -31.7170  -13.0460    9.7600 C.3     2  MET2        0.0598
     14  SD       -30.4670  -12.5410    8.5210 S.3     2  MET2       -0.1393
     15  CE       -31.7510  -12.4060    7.2200 C.3     2  MET2        0.0692
     16  N        -44.1140  -15.1900   12.5150 N.3    32  LYS32      -0.1245
     17  CA       -43.4300  -16.0140   11.4990 C.3    32  LYS32       0.1561
     18  C        -43.1670  -17.3720   12.1170 C.2    32  LYS32       0.2260
     19  O        -42.8430  -17.4630   13.3130 O.2    32  LYS32      -0.2867
     20  CB       -42.0820  -15.4040   11.1200 C.3    32  LYS32       0.0271
     21  CG       -42.1020  -14.0060   10.4720 C.3    32  LYS32       0.0035
     22  CD       -42.7140  -13.9710    9.1110 C.3    32  LYS32       0.0206
     23  CE       -42.7120  -12.5570    8.5310 C.3    32  LYS32       0.1093
     24  NZ       -42.8840  -12.5040    7.0460 N.3    32  LYS32      -0.1314
     25  N        -38.0990  -20.2740   10.1880 N.3    36  TYR36      -0.1241
     26  CA       -37.5060  -19.1970    9.3940 C.3    36  TYR36       0.1605
     27  C        -36.6020  -18.2640   10.2360 C.2    36  TYR36       0.2264
     28  O        -35.9820  -17.3640    9.6960 O.2    36  TYR36      -0.2867
     29  CB       -38.6160  -18.3700    8.7570 C.3    36  TYR36       0.0534
     30  CG       -39.1620  -18.9210    7.4510 C.ar   36  TYR36      -0.0201
     31  CD1      -38.4970  -18.6670    6.2220 C.ar   36  TYR36      -0.0009
     32  CD2      -40.3700  -19.6620    7.4090 C.ar   36  TYR36      -0.0009
     33  CE1      -38.9850  -19.1610    5.0140 C.ar   36  TYR36       0.0417
     34  CE2      -40.8560  -20.1550    6.2040 C.ar   36  TYR36       0.0417
     35  CZ       -40.1830  -19.8960    5.0270 C.ar   36  TYR36       0.1957
     36  OH       -40.7050  -20.3900    3.8670 O.3    36  TYR36      -0.2866
     37  N        -32.7440   -8.1260   11.6290 N.3    62  HIS62      -0.1226
     38  CA       -33.0360   -7.9930   10.1850 C.3    62  HIS62       0.1752
     39  C        -34.2950   -8.7770    9.9610 C.2    62  HIS62       0.2597
     40  O        -34.4320   -9.8910   10.4980 O.2    62  HIS62      -0.2718
     41  CB       -31.9240   -8.6450    9.3740 C.3    62  HIS62       0.0759
     42  CG       -30.6010   -7.9670    9.4940 C.ar   62  HIS62       0.0818
     43  ND1      -29.7610   -8.1300   10.5830 N.ar   62  HIS62      -0.2268
     44  CD2      -29.9800   -7.0850    8.6840 C.ar   62  HIS62       0.1154
     45  CE1      -28.6730   -7.4090   10.4220 C.ar   62  HIS62       0.1986
     46  NE2      -28.7800   -6.7580    9.2850 N.ar   62  HIS62      -0.2212
     47  N        -35.2130   -8.2470    9.1520 N.am   63  SER63      -0.1938
     48  CA       -36.4240   -8.9240    8.8310 C.3    63  SER63       0.2055
     49  C        -36.8960   -8.4500    7.4610 C.2    63  SER63       0.2642
     50  O        -36.6640   -7.2960    7.1030 O.2    63  SER63      -0.2714
     51  CB       -37.4810   -8.6480    9.9050 C.3    63  SER63       0.2130
     52  OG       -38.7090   -9.3250    9.6300 O.3    63  SER63      -0.2179
     53  N        -37.4590   -9.3760    6.6780 N.am   64  ILE64      -0.1977
     54  CA       -38.0840   -9.0030    5.4240 C.3    64  ILE64       0.1596
     55  C        -39.4900   -8.5400    5.7950 C.2    64  ILE64       0.2287
     56  O        -40.3620   -9.3490    6.1310 O.2    64  ILE64      -0.2864
     57  CB       -38.1280  -10.1390    4.4070 C.3    64  ILE64       0.0276
     58  CG1      -36.7020  -10.5040    4.0330 C.3    64  ILE64       0.0022
     59  CG2      -38.9550   -9.6820    3.1970 C.3    64  ILE64       0.0022
     60  CD1      -36.5480  -11.7500    3.1900 C.3    64  ILE64       0.0001
     61  N        -36.6140   -8.5760   -0.1270 N.3   103  ALA103     -0.1245
     62  CA       -36.5280  -10.0140   -0.3250 C.3   103  ALA103      0.1562
     63  C        -35.3660  -10.3690   -1.2860 C.2   103  ALA103      0.2260
     64  O        -34.6980  -11.3790   -1.1370 O.2   103  ALA103     -0.2867
     65  CB       -37.8770  -10.5550   -0.8400 C.3   103  ALA103      0.0290
     66  N        -31.8680  -10.8160    0.3720 N.3   106  VAL106     -0.1245
     67  CA       -31.6020  -11.9160    1.3150 C.3   106  VAL106      0.1561
     68  C        -31.4260  -13.1980    0.5950 C.2   106  VAL106      0.2260
     69  O        -32.3670  -13.7080   -0.0300 O.2   106  VAL106     -0.2867
     70  CB       -32.6900  -12.0830    2.3730 C.3   106  VAL106      0.0252
     71  CG1      -32.2650  -13.1400    3.3540 C.3   106  VAL106      0.0019
     72  CG2      -32.9220  -10.7200    3.1230 C.3   106  VAL106      0.0019
     73  N        -34.8730  -14.6350   -1.6010 N.3   113  PHE113     -0.1241
     74  CA       -36.3160  -14.6820   -1.3150 C.3   113  PHE113      0.1605
     75  C        -37.1850  -13.9130   -2.3180 C.2   113  PHE113      0.2264
     76  O        -38.3660  -13.8340   -2.1350 O.2   113  PHE113     -0.2867
     77  CB       -36.5530  -14.2310    0.1440 C.3   113  PHE113      0.0534
     78  CG       -36.1990  -15.3090    1.1590 C.ar  113  PHE113     -0.0203
     79  CD1      -36.8920  -16.5310    1.1730 C.ar  113  PHE113     -0.0042
     80  CD2      -35.1280  -15.1520    2.0570 C.ar  113  PHE113     -0.0042
     81  CE1      -36.5830  -17.5420    2.1060 C.ar  113  PHE113     -0.0003
     82  CE2      -34.8000  -16.1670    2.9480 C.ar  113  PHE113     -0.0003
     83  CZ       -35.5160  -17.3790    2.9710 C.ar  113  PHE113     -0.0000
@<TRIPOS>BOND
     1    75    76    2
     2    75    74    1
     3    73    74    1
     4    74    77    1
     5    63    64    2
     6    63    62    1
     7    65    62    1
     8    62    61    1
     9    69    68    2
    10    77    78    1
    11    66    67    1
    12    68    67    1
    13    78    79   ar
    14    78    80   ar
    15    79    81   ar
    16    67    70    1
    17    80    82   ar
    18    81    83   ar
    19    70    72    1
    20    70    71    1
    21    82    83   ar
    22    60    58    1
    23    59    57    1
    24    36    35    1
    25    58    57    1
    26    57    54    1
    27    33    35   ar
    28    33    31   ar
    29    35    34   ar
    30    54    55    1
    31    54    53    1
    32    55    56    2
    33    34    32   ar
    34    31    30   ar
    35    53    49   am
    36    24    23    1
    37    50    49    2
    38    15    14    1
    39    32    30   ar
    40    30    29    1
    41    49    48    1
    42    14    13    1
    43    23    22    1
    44    44    46   ar
    45    44    42   ar
    46    29    26    1
    47    48    47    1
    48    48    51    1
    49    22    21    1
    50    47    39   am
    51    46    45   ar
    52    41    42    1
    53    41    38    1
    54    26    25    1
    55    26    27    1
    56    42    43   ar
    57    52    51    1
    58    28    27    2
    59    13    12    1
    60    39    38    1
    61    39    40    2
    62     1     7    1
    63     1     2    1
    64    38    37    1
    65    45    43   ar
    66    21    20    1
    67     7     6    1
    68     2     3    1
    69     2     5    1
    70    20    17    1
    71    12     9    1
    72     3     8   am
    73     3     4    2
    74    17    18    1
    75    17    16    1
    76     6     5    1
    77     8     9    1
    78    18    19    2
    79     9    10    1
    80    11    10    2
