@<TRIPOS>MOLECULE
tmp/4p04A00.pdb
 143 134 0 0 0
SMALL
GASTEIGER

@<TRIPOS>ATOM
      1  N        -51.2730  109.1810  112.8930 N.3   171  PHE171     -0.1241
      2  CA       -50.2730  108.9120  111.8790 C.3   171  PHE171      0.1605
      3  C        -49.2360  110.0100  111.8650 C.2   171  PHE171      0.2264
      4  O        -49.1480  110.7850  110.9190 O.2   171  PHE171     -0.2867
      5  CB       -50.9380  108.8080  110.5270 C.3   171  PHE171      0.0534
      6  CG       -50.0940  108.1720  109.4900 C.ar  171  PHE171     -0.0203
      7  CD1      -49.4180  107.0090  109.7540 C.ar  171  PHE171     -0.0042
      8  CD2      -50.0280  108.7000  108.2340 C.ar  171  PHE171     -0.0042
      9  CE1      -48.6690  106.4100  108.7980 C.ar  171  PHE171     -0.0003
     10  CE2      -49.2720  108.1010  107.2750 C.ar  171  PHE171     -0.0003
     11  CZ       -48.5860  106.9570  107.5510 C.ar  171  PHE171     -0.0000
     12  N        -46.8090  113.3520  109.0800 N.3   208  TYR208     -0.1241
     13  CA       -45.8310  112.3970  108.6330 C.3   208  TYR208      0.1605
     14  C        -45.2670  112.8880  107.3110 C.2   208  TYR208      0.2264
     15  O        -45.9200  112.7460  106.2830 O.2   208  TYR208     -0.2867
     16  CB       -46.4930  111.0440  108.4610 C.3   208  TYR208      0.0534
     17  CG       -45.6130  109.8260  108.5960 C.ar  208  TYR208     -0.0201
     18  CD1      -44.4950  109.6400  107.7860 C.ar  208  TYR208     -0.0009
     19  CD2      -45.9520  108.8200  109.4760 C.ar  208  TYR208     -0.0009
     20  CE1      -43.7230  108.4880  107.8780 C.ar  208  TYR208      0.0417
     21  CE2      -45.1780  107.6730  109.5860 C.ar  208  TYR208      0.0417
     22  CZ       -44.0660  107.5080  108.7830 C.ar  208  TYR208      0.1957
     23  OH       -43.2990  106.3630  108.8890 O.3   208  TYR208     -0.2866
     24  N        -44.0410  113.3240  103.9160 N.3   210  MET210     -0.1245
     25  CA       -43.8350  112.4020  102.8080 C.3   210  MET210      0.1570
     26  C        -44.1470  112.9450  101.4540 C.2   210  MET210      0.2261
     27  O        -44.4990  114.1010  101.2830 O.2   210  MET210     -0.2867
     28  CB       -44.7030  111.1620  102.9310 C.3   210  MET210      0.0387
     29  CG       -45.0290  110.6710  104.2860 C.3   210  MET210      0.0595
     30  SD       -46.4640  109.6460  104.0890 S.3   210  MET210     -0.1393
     31  CE       -46.7250  109.1090  105.6820 C.3   210  MET210      0.0692
     32  N        -48.2480  110.1350  101.9450 N.3   252  HIS252     -0.1241
     33  CA       -47.6920  109.2510  100.9070 C.3   252  HIS252      0.1621
     34  C        -47.2230  109.9100   99.6180 C.2   252  HIS252      0.2264
     35  O        -46.1240  109.6310   99.1500 O.2   252  HIS252     -0.2867
     36  CB       -48.6940  108.1380  100.5830 C.3   252  HIS252      0.0745
     37  CG       -48.8470  107.1500  101.6950 C.ar  252  HIS252      0.0817
     38  ND1      -49.7150  107.3430  102.7440 N.ar  252  HIS252     -0.2268
     39  CD2      -48.2060  105.9880  101.9480 C.ar  252  HIS252      0.1154
     40  CE1      -49.6140  106.3380  103.5900 C.ar  252  HIS252      0.1986
     41  NE2      -48.7090  105.4980  103.1270 N.ar  252  HIS252     -0.2212
     42  N        -57.2830  107.4550  103.5670 N.3   283  ARG283     -0.1245
     43  CA       -56.5200  107.2560  102.3500 C.3   283  ARG283      0.1563
     44  C        -57.2450  106.7580  101.1220 C.2   283  ARG283      0.2260
     45  O        -56.8630  105.7360  100.5390 O.2   283  ARG283     -0.2867
     46  CB       -55.3640  106.2900  102.6180 C.3   283  ARG283      0.0307
     47  CG       -54.4930  106.7490  103.7590 C.3   283  ARG283      0.0489
     48  CD       -53.3140  105.8200  104.0140 C.3   283  ARG283      0.2205
     49  NE       -52.7430  106.1450  105.3190 N.pl3 283  ARG283     -0.0865
     50  CZ       -52.9990  105.5240  106.4730 C.cat 283  ARG283      0.5346
     51  NH1      -52.4370  105.9770  107.5750 N.pl3 283  ARG283      0.1354
     52  NH2      -53.8030  104.4740  106.5570 N.pl3 283  ARG283      0.1354
     53  N        -49.5900   96.4480  110.5500 N.3   321  VAL321     -0.1231
     54  CA       -50.8150   97.1230  110.9430 C.3   321  VAL321      0.1692
     55  C        -50.5860   98.6190  110.8060 C.2   321  VAL321      0.2592
     56  O        -50.6480   99.1820  109.7150 O.2   321  VAL321     -0.2718
     57  CB       -51.2030   96.7550  112.3760 C.3   321  VAL321      0.0266
     58  CG1      -52.4820   97.4600  112.8160 C.3   321  VAL321      0.0020
     59  CG2      -51.4400   95.2440  112.4450 C.3   321  VAL321      0.0020
     60  N        -50.3370   99.2640  111.9310 N.am  322  CYS322     -0.1970
     61  CA       -49.7890  100.6020  111.9220 C.3   322  CYS322      0.1712
     62  C        -48.3870  100.5040  112.4600 C.2   322  CYS322      0.2296
     63  O        -47.4480  100.1940  111.7310 O.2   322  CYS322     -0.2864
     64  CB       -50.6080  101.5180  112.7550 C.3   322  CYS322      0.0983
     65  SG       -52.2660  101.8300  112.0800 S.3   322  CYS322     -0.0798
     66  N        -56.0160  102.2350  101.1410 N.3   352  HIS352     -0.1241
     67  CA       -54.6320  102.6110  101.3930 C.3   352  HIS352      0.1621
     68  C        -53.9020  102.9440  100.1010 C.2   352  HIS352      0.2264
     69  O        -52.9200  102.2970   99.7650 O.2   352  HIS352     -0.2867
     70  CB       -53.8970  101.4880  102.1230 C.3   352  HIS352      0.0745
     71  CG       -52.6620  101.9290  102.8470 C.ar  352  HIS352      0.0817
     72  ND1      -52.6070  102.0470  104.2180 N.ar  352  HIS352     -0.2268
     73  CD2      -51.4360  102.2760  102.3920 C.ar  352  HIS352      0.1154
     74  CE1      -51.4010  102.4500  104.5770 C.ar  352  HIS352      0.1986
     75  NE2      -50.6720  102.5950  103.4880 N.ar  352  HIS352     -0.2212
     76  N        -51.3110  104.8880   97.9010 N.3   354  ASN354     -0.1240
     77  CA       -50.0180  105.3460   98.3560 C.3   354  ASN354      0.1653
     78  C        -49.1350  105.7910   97.2190 C.2   354  ASN354      0.2266
     79  O        -47.9580  106.0480   97.4140 O.2   354  ASN354     -0.2867
     80  CB       -49.3220  104.2480   99.1500 C.3   354  ASN354      0.1155
     81  CG       -49.2930  102.9200   98.4120 C.2   354  ASN354      0.2627
     82  OD1      -49.3050  102.8710   97.1840 O.2   354  ASN354     -0.2716
     83  ND2      -49.2550  101.8320   99.1640 N.am  354  ASN354     -0.0877
     84  N        -52.7110   99.8490   98.0830 N.3   370  ARG370     -0.1245
     85  CA       -52.0060   98.7770   98.7390 C.3   370  ARG370      0.1563
     86  C        -52.9110   97.5730   98.8380 C.2   370  ARG370      0.2260
     87  O        -52.4880   96.4370   98.6240 O.2   370  ARG370     -0.2867
     88  CB       -51.5400   99.1910  100.1310 C.3   370  ARG370      0.0307
     89  CG       -50.5240   98.2330  100.6900 C.3   370  ARG370      0.0489
     90  CD       -50.4940   98.1770  102.1920 C.3   370  ARG370      0.2205
     91  NE       -49.4520   97.2640  102.6430 N.pl3 370  ARG370     -0.0865
     92  CZ       -49.4400   96.6810  103.8330 C.cat 370  ARG370      0.5346
     93  NH1      -50.4200   96.9020  104.6930 N.pl3 370  ARG370      0.1354
     94  NH2      -48.4540   95.8680  104.1590 N.pl3 370  ARG370      0.1354
     95  N        -49.6380   94.5250   97.6160 N.3   430  THR430     -0.1218
     96  CA       -49.4250   95.5710   98.6210 C.3   430  THR430      0.1862
     97  C        -48.3230   96.5170   98.1740 C.2   430  THR430      0.2287
     98  O        -47.5220   97.0110   98.9750 O.2   430  THR430     -0.2866
     99  CB       -49.0900   94.9970  100.0060 C.3   430  THR430      0.1770
    100  OG1      -47.9680   94.1180   99.9080 O.3   430  THR430     -0.2211
    101  CG2      -50.2700   94.2390  100.5470 C.3   430  THR430      0.0375
    102  N        -46.0470   99.5350   96.1000 N.3   432  ASN432     -0.1240
    103  CA       -45.8920  100.9720   96.2270 C.3   432  ASN432      0.1653
    104  C        -45.4850  101.5970   94.9150 C.2   432  ASN432      0.2266
    105  O        -45.2420  100.8930   93.9380 O.2   432  ASN432     -0.2867
    106  CB       -44.8640  101.3210   97.2870 C.3   432  ASN432      0.1155
    107  CG       -45.4250  101.2510   98.6710 C.2   432  ASN432      0.2627
    108  OD1      -45.8750  100.2000   99.1180 O.2   432  ASN432     -0.2716
    109  ND2      -45.4030  102.3740   99.3680 N.am  432  ASN432     -0.0877
    110  N        -43.5800   97.2380  103.7590 N.3   496  ILE496     -0.1231
    111  CA       -44.2550   98.5050  103.5610 C.3   496  ILE496      0.1692
    112  C        -43.3990   99.5310  102.8360 C.2   496  ILE496      0.2592
    113  O        -42.2530   99.2630  102.4820 O.2   496  ILE496     -0.2718
    114  CB       -44.6900   99.1010  104.8940 C.3   496  ILE496      0.0266
    115  CG1      -43.4840   99.3120  105.7970 C.3   496  ILE496      0.0019
    116  CG2      -45.7060   98.2130  105.5640 C.3   496  ILE496      0.0020
    117  CD1      -43.8460   99.6280  107.2090 C.3   496  ILE496      0.0001
    118  N        -43.9790  100.7120  102.6380 N.am  497  THR497     -0.1953
    119  CA       -43.3480  101.8400  101.9580 C.3   497  THR497      0.1897
    120  C        -42.5540  101.3940  100.7400 C.2   497  THR497      0.2313
    121  O        -42.9610  100.4610  100.0400 O.2   497  THR497     -0.2863
    122  CB       -42.4240  102.6370  102.9030 C.3   497  THR497      0.1794
    123  OG1      -41.2090  101.9220  103.1310 O.3   497  THR497     -0.2208
    124  CG2      -43.0780  102.8860  104.2200 C.3   497  THR497      0.0378
    125  N        -39.4710  102.0730  110.4840 N.3   553  THR553     -0.1218
    126  CA       -39.4320  102.0340  109.0340 C.3   553  THR553      0.1862
    127  C        -38.9710  103.3510  108.4010 C.2   553  THR553      0.2287
    128  O        -39.0850  104.4230  108.9840 O.2   553  THR553     -0.2866
    129  CB       -40.8070  101.6620  108.4720 C.3   553  THR553      0.1770
    130  OG1      -40.7430  101.5540  107.0440 O.3   553  THR553     -0.2211
    131  CG2      -41.8080  102.7170  108.8510 C.3   553  THR553      0.0375
    132  N        -39.4140  105.6160  104.6770 N.3   555  TYR555     -0.1241
    133  CA       -40.4840  105.6800  103.6900 C.3   555  TYR555      0.1605
    134  C        -40.0050  105.5880  102.2430 C.2   555  TYR555      0.2264
    135  O        -40.3390  104.6360  101.5320 O.2   555  TYR555     -0.2867
    136  CB       -41.3180  106.9550  103.8660 C.3   555  TYR555      0.0534
    137  CG       -42.4520  107.0020  102.8710 C.ar  555  TYR555     -0.0201
    138  CD1      -43.4030  106.0030  102.8480 C.ar  555  TYR555     -0.0009
    139  CD2      -42.5630  108.0280  101.9500 C.ar  555  TYR555     -0.0009
    140  CE1      -44.4300  106.0100  101.9410 C.ar  555  TYR555      0.0417
    141  CE2      -43.6010  108.0470  101.0390 C.ar  555  TYR555      0.0417
    142  CZ       -44.5320  107.0280  101.0420 C.ar  555  TYR555      0.1957
    143  OH       -45.5640  107.0240  100.1410 O.3   555  TYR555     -0.2866
@<TRIPOS>BOND
     1   105   104    2
     2   104   103    1
     3   102   103    1
     4   103   106    1
     5    82    81    2
     6    78    79    2
     7    78    77    1
     8   106   107    1
     9    95    96    1
    10    76    77    1
    11    84    85    1
    12    97    96    1
    13    97    98    2
    14    77    80    1
    15    81    80    1
    16    81    83   am
    17    96    99    1
    18    87    86    2
    19   107   108    2
    20   107   109   am
    21    85    86    1
    22    85    88    1
    23    35    34    2
    24    34    33    1
    25    69    68    2
    26   100    99    1
    27    99   101    1
    28   121   120    2
    29    68    67    1
    30    88    89    1
    31   143   142    1
    32    45    44    2
    33    36    33    1
    34    36    37    1
    35    89    90    1
    36   120   119    1
    37    33    32    1
    38   141   142   ar
    39   141   139   ar
    40   142   140   ar
    41    44    43    1
    42    66    67    1
    43    27    26    2
    44    67    70    1
    45    26    25    1
    46   135   134    2
    47    37    39   ar
    48    37    38   ar
    49   140   138   ar
    50    39    41   ar
    51   139   137   ar
    52   119   118    1
    53   119   122    1
    54    70    71    1
    55    90    91    1
    56   134   133    1
    57    43    46    1
    58    43    42    1
    59    73    71   ar
    60    73    75   ar
    61   113   112    2
    62    46    47    1
    63   118   112   am
    64    91    92    2
    65    38    40   ar
    66    25    28    1
    67    25    24    1
    68   112   111    1
    69    71    72   ar
    70   138   137   ar
    71   137   136    1
    72   122   123    1
    73   122   124    1
    74    28    29    1
    75    41    40   ar
    76    75    74   ar
    77   111   110    1
    78   111   114    1
    79   133   136    1
    80   133   132    1
    81    47    48    1
    82    92    94    1
    83    92    93    1
    84    48    49    1
    85    30    29    1
    86    30    31    1
    87    72    74   ar
    88   114   116    1
    89   114   115    1
    90    49    50    2
    91   115   117    1
    92    15    14    2
    93    50    52    1
    94    50    51    1
    95   130   129    1
    96    10    11   ar
    97    10     8   ar
    98    14    13    1
    99    11     9   ar
   100    18    20   ar
   101    18    17   ar
   102    20    22   ar
   103     8     6   ar
   104   127   128    2
   105   127   126    1
   106    16    17    1
   107    16    13    1
   108   129   131    1
   109   129   126    1
   110    17    19   ar
   111    13    12    1
   112    22    23    1
   113    22    21   ar
   114     9     7   ar
   115   126   125    1
   116    19    21   ar
   117     6     7   ar
   118     6     5    1
   119    56    55    2
   120     5     2    1
   121    53    54    1
   122    55    54    1
   123    55    60   am
   124     4     3    2
   125    54    57    1
   126    63    62    2
   127     3     2    1
   128     2     1    1
   129    61    60    1
   130    61    62    1
   131    61    64    1
   132    65    64    1
   133    57    59    1
   134    57    58    1
