@<TRIPOS>MOLECULE
tmp/4p05B00.pdb
 125 117 0 0 0
SMALL
GASTEIGER

@<TRIPOS>ATOM
      1  N         26.6510  -38.5490  -23.7230 N.3   171  PHE171     -0.1241
      2  CA        26.0730  -37.5040  -22.8590 C.3   171  PHE171      0.1605
      3  C         26.5470  -36.0910  -23.2140 C.2   171  PHE171      0.2264
      4  O         27.3200  -35.4480  -22.4880 O.2   171  PHE171     -0.2867
      5  CB        26.3910  -37.8300  -21.4070 C.3   171  PHE171      0.0534
      6  CG        25.4030  -37.2500  -20.4120 C.ar  171  PHE171     -0.0203
      7  CD1       24.0520  -37.5670  -20.4510 C.ar  171  PHE171     -0.0042
      8  CD2       25.8450  -36.4350  -19.3810 C.ar  171  PHE171     -0.0042
      9  CE1       23.1890  -37.0930  -19.4550 C.ar  171  PHE171     -0.0003
     10  CE2       24.9940  -35.9790  -18.3810 C.ar  171  PHE171     -0.0003
     11  CZ        23.6750  -36.2690  -18.4430 C.ar  171  PHE171     -0.0000
     12  N         25.4850  -32.3590  -25.5190 N.3   173  ILE173     -0.1245
     13  CA        24.3940  -31.4580  -25.8990 C.3   173  ILE173      0.1561
     14  C         24.8640  -30.0330  -25.8300 C.2   173  ILE173      0.2260
     15  O         25.6870  -29.6880  -24.9900 O.2   173  ILE173     -0.2867
     16  CB        23.1890  -31.6620  -24.9700 C.3   173  ILE173      0.0252
     17  CG1       21.9280  -31.0730  -25.4670 C.3   173  ILE173      0.0019
     18  CG2       23.4560  -31.1250  -23.5400 C.3   173  ILE173      0.0019
     19  CD1       20.7090  -31.5410  -24.6510 C.3   173  ILE173      0.0001
     20  N         28.4990  -31.9480  -21.7070 N.3   208  TYR208     -0.1241
     21  CA        27.2600  -31.4160  -21.2240 C.3   208  TYR208      0.1605
     22  C         27.6020  -30.3720  -20.1630 C.2   208  TYR208      0.2264
     23  O         27.9820  -30.7310  -19.0150 O.2   208  TYR208     -0.2867
     24  CB        26.4370  -32.5760  -20.6910 C.3   208  TYR208      0.0534
     25  CG        24.9600  -32.3510  -20.5330 C.ar  208  TYR208     -0.0201
     26  CD1       24.4560  -31.2350  -19.8620 C.ar  208  TYR208     -0.0009
     27  CD2       24.0660  -33.3300  -20.9030 C.ar  208  TYR208     -0.0009
     28  CE1       23.1100  -31.0830  -19.6330 C.ar  208  TYR208      0.0417
     29  CE2       22.7020  -33.1720  -20.6910 C.ar  208  TYR208      0.0417
     30  CZ        22.2400  -32.0640  -20.0680 C.ar  208  TYR208      0.1957
     31  OH        20.8830  -31.9670  -19.8740 O.3   208  TYR208     -0.2866
     32  N         27.7680  -28.3130  -17.2480 N.3   210  MET210     -0.1245
     33  CA        27.0440  -28.4180  -16.0060 C.3   210  MET210      0.1570
     34  C         27.8700  -28.0040  -14.8180 C.2   210  MET210      0.2261
     35  O         29.0420  -27.7700  -14.8670 O.2   210  MET210     -0.2867
     36  CB        26.7000  -29.8930  -15.7930 C.3   210  MET210      0.0387
     37  CG        25.8630  -30.5600  -16.8460 C.3   210  MET210      0.0595
     38  SD        25.7990  -32.3450  -16.7000 S.3   210  MET210     -0.1393
     39  CE        24.1960  -32.6680  -15.9960 C.3   210  MET210      0.0692
     40  N         27.5990  -32.8220  -13.9190 N.3   252  HIS252     -0.1241
     41  CA        26.6690  -32.5770  -12.8110 C.3   252  HIS252      0.1621
     42  C         27.1100  -31.5410  -11.8450 C.2   252  HIS252      0.2264
     43  O         26.2860  -30.6880  -11.4580 O.2   252  HIS252     -0.2867
     44  CB        26.2490  -33.8640  -12.0890 C.3   252  HIS252      0.0745
     45  CG        25.2790  -34.6880  -12.8700 C.ar  252  HIS252      0.0817
     46  ND1       25.6700  -35.6980  -13.7030 N.ar  252  HIS252     -0.2268
     47  CD2       23.9380  -34.5900  -13.0110 C.ar  252  HIS252      0.1154
     48  CE1       24.6250  -36.2060  -14.3090 C.ar  252  HIS252      0.1986
     49  NE2       23.5590  -35.5450  -13.9020 N.ar  252  HIS252     -0.2212
     50  N         13.0870  -41.6300  -18.0850 N.3   320  ALA320     -0.1245
     51  CA        14.1480  -40.7490  -17.5360 C.3   320  ALA320      0.1562
     52  C         15.3780  -41.5430  -17.0920 C.2   320  ALA320      0.2260
     53  O         16.5060  -41.1300  -17.3420 O.2   320  ALA320     -0.2867
     54  CB        13.6140  -39.9490  -16.3480 C.3   320  ALA320      0.0290
     55  N         25.0200  -42.9050  -10.1270 N.3   349  HIS349     -0.1241
     56  CA        24.6320  -41.6130  -10.6830 C.3   349  HIS349      0.1621
     57  C         24.7300  -40.5060   -9.6530 C.2   349  HIS349      0.2264
     58  O         23.7290  -39.8840   -9.2660 O.2   349  HIS349     -0.2867
     59  CB        23.1880  -41.7020  -11.1390 C.3   349  HIS349      0.0745
     60  CG        22.7870  -40.6390  -12.0860 C.ar  349  HIS349      0.0817
     61  ND1       22.5220  -40.9100  -13.4010 N.ar  349  HIS349     -0.2268
     62  CD2       22.5550  -39.3180  -11.9150 C.ar  349  HIS349      0.1154
     63  CE1       22.1950  -39.7930  -14.0420 C.ar  349  HIS349      0.1986
     64  NE2       22.1980  -38.8060  -13.1490 N.ar  349  HIS349     -0.2212
     65  N         25.2730  -36.9240   -8.3770 N.3   351  ASN351     -0.1240
     66  CA        24.8950  -35.6940   -9.0570 C.3   351  ASN351      0.1653
     67  C         25.0730  -34.4310   -8.2770 C.2   351  ASN351      0.2266
     68  O         24.7620  -33.3530   -8.7610 O.2   351  ASN351     -0.2867
     69  CB        23.5160  -35.8100   -9.6500 C.3   351  ASN351      0.1155
     70  CG        22.4250  -36.0620   -8.6090 C.2   351  ASN351      0.2627
     71  OD1       22.6120  -35.8090   -7.4050 O.2   351  ASN351     -0.2716
     72  ND2       21.2480  -36.5640   -9.0890 N.am  351  ASN351     -0.0877
     73  N         21.8860  -40.3580   -7.0650 N.3   367  ARG367     -0.1245
     74  CA        20.5290  -40.4280   -7.5380 C.3   367  ARG367      0.1563
     75  C         19.9140  -41.7910   -7.2350 C.2   367  ARG367      0.2260
     76  O         18.7510  -41.8800   -6.8490 O.2   367  ARG367     -0.2867
     77  CB        20.4430  -40.1270   -9.0050 C.3   367  ARG367      0.0307
     78  CG        19.0190  -39.9580   -9.4770 C.3   367  ARG367      0.0489
     79  CD        18.9150  -39.8820  -10.9970 C.3   367  ARG367      0.2205
     80  NE        17.5710  -39.5620  -11.4440 N.pl3 367  ARG367     -0.0865
     81  CZ        16.7330  -40.4120  -12.0040 C.cat 367  ARG367      0.5346
     82  NH1       17.0650  -41.6590  -12.1900 N.pl3 367  ARG367      0.1354
     83  NH2       15.5620  -40.0010  -12.3840 N.pl3 367  ARG367      0.1354
     84  N         18.5480  -34.5290   -6.0560 N.3   429  ASN429     -0.1240
     85  CA        19.5890  -33.6870   -6.6150 C.3   429  ASN429      0.1653
     86  C         19.9970  -32.6270   -5.6020 C.2   429  ASN429      0.2266
     87  O         19.2630  -32.3310   -4.6470 O.2   429  ASN429     -0.2867
     88  CB        19.1000  -32.9520   -7.8930 C.3   429  ASN429      0.1155
     89  CG        19.2650  -33.7640   -9.1600 C.2   429  ASN429      0.2627
     90  OD1       20.1120  -33.4480  -10.0130 O.2   429  ASN429     -0.2716
     91  ND2       18.4540  -34.8000   -9.3080 N.am  429  ASN429     -0.0877
     92  N         13.8910  -35.2040  -12.9220 N.3   493  ILE493     -0.1231
     93  CA        15.3700  -35.1100  -13.0490 C.3   493  ILE493      0.1692
     94  C         15.8390  -33.6770  -12.8040 C.2   493  ILE493      0.2592
     95  O         15.0520  -32.6900  -12.8130 O.2   493  ILE493     -0.2718
     96  CB        15.8900  -35.5970  -14.4760 C.3   493  ILE493      0.0266
     97  CG1       15.2400  -34.8340  -15.5870 C.3   493  ILE493      0.0019
     98  CG2       15.6580  -37.1010  -14.6480 C.3   493  ILE493      0.0020
     99  CD1       15.6590  -35.2390  -17.0230 C.3   493  ILE493      0.0001
    100  N         17.1570  -33.5800  -12.6360 N.am  494  THR494     -0.1953
    101  CA        17.8810  -32.3220  -12.5310 C.3   494  THR494      0.1897
    102  C         17.3450  -31.5300  -11.4080 C.2   494  THR494      0.2313
    103  O         16.9830  -32.1200  -10.3840 O.2   494  THR494     -0.2863
    104  CB        17.9880  -31.5390  -13.8980 C.3   494  THR494      0.1794
    105  OG1       16.8440  -30.7220  -14.1650 O.3   494  THR494     -0.2208
    106  CG2       18.2360  -32.4580  -15.0170 C.3   494  THR494      0.0378
    107  N         15.1070  -31.2240  -21.3160 N.3   550  THR550     -0.1218
    108  CA        15.1910  -30.8370  -19.8800 C.3   550  THR550      0.1862
    109  C         16.1320  -29.6750  -19.7400 C.2   550  THR550      0.2287
    110  O         17.0060  -29.4770  -20.5770 O.2   550  THR550     -0.2866
    111  CB        15.6900  -32.0160  -19.0360 C.3   550  THR550      0.1770
    112  OG1       15.5550  -31.7320  -17.6210 O.3   550  THR550     -0.2211
    113  CG2       17.1780  -32.4050  -19.3180 C.3   550  THR550      0.0375
    114  N         18.8180  -27.9410  -16.7360 N.3   552  TYR552     -0.1241
    115  CA        19.6070  -28.5400  -15.7190 C.3   552  TYR552      0.1605
    116  C         19.4180  -27.8870  -14.3780 C.2   552  TYR552      0.2264
    117  O         18.7660  -28.4260  -13.5140 O.2   552  TYR552     -0.2867
    118  CB        21.1050  -28.7070  -16.0890 C.3   552  TYR552      0.0534
    119  CG        21.8500  -29.4470  -15.0220 C.ar  552  TYR552     -0.0201
    120  CD1       21.4870  -30.7530  -14.6670 C.ar  552  TYR552     -0.0009
    121  CD2       22.9090  -28.8760  -14.3520 C.ar  552  TYR552     -0.0009
    122  CE1       22.1200  -31.4300  -13.6010 C.ar  552  TYR552      0.0417
    123  CE2       23.5690  -29.5550  -13.3500 C.ar  552  TYR552      0.0417
    124  CZ        23.1640  -30.8230  -12.9520 C.ar  552  TYR552      0.1957
    125  OH        23.8150  -31.5030  -11.9400 O.3   552  TYR552     -0.2866
@<TRIPOS>BOND
     1    13    14    1
     2    13    12    1
     3    13    16    1
     4    14    15    2
     5    17    16    1
     6    17    19    1
     7    16    18    1
     8     1     2    1
     9     3     2    1
    10     3     4    2
    11     2     5    1
    12    20    21    1
    13     5     6    1
    14   107   108    1
    15    21    24    1
    16    21    22    1
    17    27    29   ar
    18    27    25   ar
    19    24    25    1
    20    29    30   ar
    21   110   109    2
    22    25    26   ar
    23     7     6   ar
    24     7     9   ar
    25     6     8   ar
    26    22    23    2
    27    30    31    1
    28    30    28   ar
    29   108   109    1
    30   108   111    1
    31    26    28   ar
    32     9    11   ar
    33     8    10   ar
    34   113   111    1
    35   111   112    1
    36    11    10   ar
    37    50    51    1
    38    51    52    1
    39    51    54    1
    40    53    52    2
    41    32    33    1
    42    99    97    1
    43    37    38    1
    44    37    36    1
    45   114   115    1
    46    38    39    1
    47   118   115    1
    48   118   119    1
    49    33    36    1
    50    33    34    1
    51   115   116    1
    52    97    96    1
    53   119   120   ar
    54   119   121   ar
    55   106   104    1
    56    35    34    2
    57   120   122   ar
    58    98    96    1
    59    96    93    1
    60   116   117    2
    61   121   123   ar
    62    48    49   ar
    63    48    46   ar
    64   105   104    1
    65    63    61   ar
    66    63    64   ar
    67    40    41    1
    68    49    47   ar
    69   104   101    1
    70    46    45   ar
    71   122   124   ar
    72    61    60   ar
    73   123   124   ar
    74    64    62   ar
    75    93    92    1
    76    93    94    1
    77    47    45   ar
    78   124   125    1
    79    45    44    1
    80    95    94    2
    81    41    44    1
    82    41    42    1
    83    94   100   am
    84   100   101    1
    85   101   102    1
    86    83    81    1
    87    82    81    1
    88    60    62   ar
    89    60    59    1
    90    81    80    2
    91    42    43    2
    92    80    79    1
    93   102   103    2
    94    59    56    1
    95    79    78    1
    96    56    55    1
    97    56    57    1
    98    90    89    2
    99    57    58    2
   100    69    66    1
   101    69    70    1
   102    78    77    1
   103    91    89   am
   104    89    88    1
   105    72    70   am
   106    66    65    1
   107    66    67    1
   108    77    74    1
   109    68    67    2
   110    70    71    2
   111    88    85    1
   112    74    75    1
   113    74    73    1
   114    75    76    2
   115    85    84    1
   116    85    86    1
   117    86    87    2
