@<TRIPOS>MOLECULE
tmp/4p06B00.pdb
 148 139 0 0 0
SMALL
GASTEIGER

@<TRIPOS>ATOM
      1  N        -51.7500   49.1940   16.3720 N.3   140  PHE140     -0.1241
      2  CA       -50.6940   49.1760   17.3770 C.3   140  PHE140      0.1605
      3  C        -50.7920   48.0200   18.3350 C.2   140  PHE140      0.2264
      4  O        -51.8750   47.6140   18.7340 O.2   140  PHE140     -0.2867
      5  CB       -50.6930   50.4660   18.1800 C.3   140  PHE140      0.0534
      6  CG       -50.3150   51.6560   17.3810 C.ar  140  PHE140     -0.0203
      7  CD1      -49.3910   51.5450   16.3710 C.ar  140  PHE140     -0.0042
      8  CD2      -50.9010   52.8750   17.6200 C.ar  140  PHE140     -0.0042
      9  CE1      -49.0460   52.6350   15.6250 C.ar  140  PHE140     -0.0003
     10  CE2      -50.5680   53.9650   16.8820 C.ar  140  PHE140     -0.0003
     11  CZ       -49.6330   53.8520   15.8810 C.ar  140  PHE140     -0.0000
     12  N        -39.4800   48.0250   13.3740 N.3   171  PHE171     -0.1241
     13  CA       -40.5380   48.2390   12.3810 C.3   171  PHE171      0.1605
     14  C        -41.5270   47.0980   12.4990 C.2   171  PHE171      0.2264
     15  O        -41.4990   46.1690   11.7110 O.2   171  PHE171     -0.2867
     16  CB       -39.9650   48.3070   10.9600 C.3   171  PHE171      0.0534
     17  CG       -40.8380   49.0410    9.9720 C.ar  171  PHE171     -0.0203
     18  CD1      -41.1060   50.3840   10.1240 C.ar  171  PHE171     -0.0042
     19  CD2      -41.3550   48.3920    8.8700 C.ar  171  PHE171     -0.0042
     20  CE1      -41.8840   51.0600    9.2090 C.ar  171  PHE171     -0.0003
     21  CE2      -42.1280   49.0660    7.9530 C.ar  171  PHE171     -0.0003
     22  CZ       -42.3930   50.3990    8.1250 C.ar  171  PHE171     -0.0000
     23  N        -45.5320   45.8010   13.7920 N.3   173  ILE173     -0.1245
     24  CA       -46.9240   46.1300   14.0620 C.3   173  ILE173      0.1561
     25  C        -47.8930   45.0270   13.6110 C.2   173  ILE173      0.2260
     26  O        -47.6550   44.3420   12.6130 O.2   173  ILE173     -0.2867
     27  CB       -47.3010   47.4470   13.3700 C.3   173  ILE173      0.0252
     28  CG1      -48.5700   48.0460   13.9780 C.3   173  ILE173      0.0019
     29  CG2      -47.4120   47.2660   11.8590 C.3   173  ILE173      0.0019
     30  CD1      -48.9430   49.3890   13.3830 C.3   173  ILE173      0.0001
     31  N        -43.8270   43.9090    9.6970 N.3   208  TYR208     -0.1241
     32  CA       -44.7910   44.8850    9.2640 C.3   208  TYR208      0.1605
     33  C        -45.3810   44.3880    7.9610 C.2   208  TYR208      0.2264
     34  O        -44.7590   44.5310    6.9130 O.2   208  TYR208     -0.2867
     35  CB       -44.1000   46.2320    9.0870 C.3   208  TYR208      0.0534
     36  CG       -44.9940   47.4540    9.1120 C.ar  208  TYR208     -0.0201
     37  CD1      -45.9350   47.6800    8.1120 C.ar  208  TYR208     -0.0009
     38  CD2      -44.8650   48.4080   10.1110 C.ar  208  TYR208     -0.0009
     39  CE1      -46.7420   48.8130    8.1240 C.ar  208  TYR208      0.0417
     40  CE2      -45.6630   49.5390   10.1270 C.ar  208  TYR208      0.0417
     41  CZ       -46.6000   49.7390    9.1320 C.ar  208  TYR208      0.1957
     42  OH       -47.3870   50.8690    9.1460 O.3   208  TYR208     -0.2866
     43  N        -46.6430   43.9780    4.6140 N.3   210  MET210     -0.1245
     44  CA       -46.7390   44.9650    3.5550 C.3   210  MET210      0.1570
     45  C        -46.5580   44.4070    2.1780 C.2   210  MET210      0.2261
     46  O        -46.3410   43.2310    2.0020 O.2   210  MET210     -0.2867
     47  CB       -45.6850   46.0360    3.7450 C.3   210  MET210      0.0387
     48  CG       -45.6780   46.6740    5.0900 C.3   210  MET210      0.0595
     49  SD       -44.1520   47.5610    5.2810 S.3   210  MET210     -0.1393
     50  CE       -44.7180   49.2430    5.3730 C.3   210  MET210      0.0692
     51  N        -42.4100   47.0360    2.6560 N.3   252  HIS252     -0.1241
     52  CA       -42.9770   47.9390    1.6510 C.3   252  HIS252      0.1621
     53  C        -43.4610   47.2990    0.3640 C.2   252  HIS252      0.2264
     54  O        -44.4860   47.7090   -0.1740 O.2   252  HIS252     -0.2867
     55  CB       -41.9610   49.0260    1.2980 C.3   252  HIS252      0.0745
     56  CG       -41.8470   50.0910    2.3340 C.ar  252  HIS252      0.0817
     57  ND1      -40.9250   50.0420    3.3550 N.ar  252  HIS252     -0.2268
     58  CD2      -42.5660   51.2180    2.5290 C.ar  252  HIS252      0.1154
     59  CE1      -41.0710   51.1010    4.1250 C.ar  252  HIS252      0.1986
     60  NE2      -42.0570   51.8310    3.6460 N.ar  252  HIS252     -0.2212
     61  N        -42.1410   65.0130   11.9190 N.3   319  GLY319     -0.1210
     62  CA       -43.2960   64.2670   12.3800 C.3   319  GLY319      0.1956
     63  C        -43.3970   62.8790   11.7740 C.2   319  GLY319      0.2611
     64  O        -43.9520   61.9650   12.3880 O.2   319  GLY319     -0.2717
     65  N        -42.8560   62.7200   10.5690 N.am  320  ALA320     -0.1979
     66  CA       -42.9020   61.4420    9.8670 C.3   320  ALA320      0.1597
     67  C        -41.7620   60.5020   10.3060 C.2   320  ALA320      0.2287
     68  O        -40.7510   60.3310    9.6150 O.2   320  ALA320     -0.2864
     69  CB       -42.8590   61.6730    8.3710 C.3   320  ALA320      0.0319
     70  N        -34.6510   54.9890    1.7630 N.3   349  HIS349     -0.1241
     71  CA       -36.0160   54.5530    2.0180 C.3   349  HIS349      0.1621
     72  C        -36.7410   54.2030    0.7240 C.2   349  HIS349      0.2264
     73  O        -37.6800   54.8900    0.3360 O.2   349  HIS349     -0.2867
     74  CB       -36.7910   55.6320    2.7730 C.3   349  HIS349      0.0745
     75  CG       -38.0710   55.1510    3.3820 C.ar  349  HIS349      0.0817
     76  ND1      -38.2450   55.0240    4.7440 N.ar  349  HIS349     -0.2268
     77  CD2      -39.2400   54.7680    2.8190 C.ar  349  HIS349      0.1154
     78  CE1      -39.4650   54.5900    4.9900 C.ar  349  HIS349      0.1986
     79  NE2      -40.0870   54.4230    3.8420 N.ar  349  HIS349     -0.2212
     80  N        -39.3450   52.2170   -1.4570 N.3   351  ASN351     -0.1240
     81  CA       -40.6630   51.8140   -1.0100 C.3   351  ASN351      0.1653
     82  C        -41.5510   51.3460   -2.1500 C.2   351  ASN351      0.2266
     83  O        -42.7400   51.0970   -1.9540 O.2   351  ASN351     -0.2867
     84  CB       -41.3280   52.9700   -0.2460 C.3   351  ASN351      0.1155
     85  CG       -41.3280   54.2750   -1.0300 C.2   351  ASN351      0.2627
     86  OD1      -41.3220   54.2750   -2.2610 O.2   351  ASN351     -0.2716
     87  ND2      -41.3280   55.3960   -0.3170 N.am  351  ASN351     -0.0877
     88  N        -38.0310   57.3030   -1.4260 N.3   367  ARG367     -0.1245
     89  CA       -38.7400   58.3780   -0.7650 C.3   367  ARG367      0.1563
     90  C        -37.8360   59.5900   -0.5900 C.2   367  ARG367      0.2260
     91  O        -38.2870   60.7340   -0.6500 O.2   367  ARG367     -0.2867
     92  CB       -39.2610   57.9180    0.5940 C.3   367  ARG367      0.0307
     93  CG       -40.1410   58.9300    1.2670 C.3   367  ARG367      0.0489
     94  CD       -40.6230   58.5000    2.6320 C.3   367  ARG367      0.2205
     95  NE       -41.6150   59.4360    3.1600 N.pl3 367  ARG367     -0.0865
     96  CZ       -41.3640   60.3450    4.0920 C.cat 367  ARG367      0.5346
     97  NH1      -40.1550   60.4300    4.6130 N.pl3 367  ARG367      0.1354
     98  NH2      -42.3160   61.1690    4.5050 N.pl3 367  ARG367      0.1354
     99  N        -44.4920   57.5630   -3.3420 N.3   429  ASN429     -0.1240
    100  CA       -44.7060   56.1240   -3.2490 C.3   429  ASN429      0.1653
    101  C        -45.1370   55.5290   -4.5900 C.2   429  ASN429      0.2266
    102  O        -45.4240   56.2480   -5.5380 O.2   429  ASN429     -0.2867
    103  CB       -45.7640   55.7990   -2.1980 C.3   429  ASN429      0.1155
    104  CG       -45.2560   55.9600   -0.7970 C.2   429  ASN429      0.2627
    105  OD1      -44.9230   57.0610   -0.3750 O.2   429  ASN429     -0.2716
    106  ND2      -45.1990   54.8600   -0.0570 N.am  429  ASN429     -0.0877
    107  N        -47.0700   60.0580    4.3090 N.3   493  ILE493     -0.1231
    108  CA       -46.4260   58.7610    4.1490 C.3   493  ILE493      0.1692
    109  C        -47.3070   57.7260    3.4330 C.2   493  ILE493      0.2592
    110  O        -48.4850   57.9540    3.1800 O.2   493  ILE493     -0.2718
    111  CB       -46.0100   58.1730    5.5130 C.3   493  ILE493      0.0266
    112  CG1      -47.2280   58.0240    6.4200 C.3   493  ILE493      0.0019
    113  CG2      -44.9740   59.0380    6.1760 C.3   493  ILE493      0.0020
    114  CD1      -46.9190   57.4770    7.7770 C.3   493  ILE493      0.0001
    115  N        -46.6960   56.5820    3.1310 N.am  494  THR494     -0.1953
    116  CA       -47.3300   55.4300    2.4890 C.3   494  THR494      0.1897
    117  C        -48.1440   55.8400    1.2690 C.2   494  THR494      0.2313
    118  O        -47.7480   56.7550    0.5570 O.2   494  THR494     -0.2863
    119  CB       -48.1970   54.6320    3.4930 C.3   494  THR494      0.1794
    120  OG1      -49.4110   55.3230    3.7850 O.3   494  THR494     -0.2208
    121  CG2      -47.4370   54.4200    4.7900 C.3   494  THR494      0.0378
    122  N        -52.9670   62.3110    9.8310 N.3   515  LEU515     -0.1245
    123  CA       -52.0990   61.5450   10.7050 C.3   515  LEU515      0.1561
    124  C        -51.7200   62.3340   11.9550 C.2   515  LEU515      0.2260
    125  O        -51.7160   61.7980   13.0630 O.2   515  LEU515     -0.2867
    126  CB       -50.8500   61.1270    9.9380 C.3   515  LEU515      0.0270
    127  CG       -49.8630   60.2280   10.6700 C.3   515  LEU515      0.0019
    128  CD1      -50.5550   58.9590   11.1080 C.3   515  LEU515      0.0001
    129  CD2      -48.6790   59.9250    9.7680 C.3   515  LEU515      0.0001
    130  N        -51.1840   55.1580   11.0170 N.3   550  THR550     -0.1218
    131  CA       -51.2610   55.1540    9.5620 C.3   550  THR550      0.1862
    132  C        -51.7910   53.8170    8.9600 C.2   550  THR550      0.2287
    133  O        -51.7430   52.7470    9.5810 O.2   550  THR550     -0.2866
    134  CB       -49.8740   55.5210    8.9640 C.3   550  THR550      0.1770
    135  OG1      -49.9630   55.6530    7.5440 O.3   550  THR550     -0.2211
    136  CG2      -48.8280   54.4780    9.2960 C.3   550  THR550      0.0375
    137  N        -51.4020   51.5470    5.2420 N.3   552  TYR552     -0.1241
    138  CA       -50.2970   51.5070    4.2980 C.3   552  TYR552      0.1605
    139  C        -50.7870   51.5890    2.8420 C.2   552  TYR552      0.2264
    140  O        -50.5020   52.5620    2.1610 O.2   552  TYR552     -0.2867
    141  CB       -49.4110   50.2590    4.5310 C.3   552  TYR552      0.0534
    142  CG       -48.2550   50.1690    3.5500 C.ar  552  TYR552     -0.0201
    143  CD1      -47.3030   51.1710    3.4860 C.ar  552  TYR552     -0.0009
    144  CD2      -48.1350   49.1040    2.6680 C.ar  552  TYR552     -0.0009
    145  CE1      -46.2790   51.1350    2.5870 C.ar  552  TYR552      0.0417
    146  CE2      -47.0990   49.0560    1.7570 C.ar  552  TYR552      0.0417
    147  CZ       -46.1660   50.0830    1.7230 C.ar  552  TYR552      0.1957
    148  OH       -45.1160   50.0680    0.8290 O.3   552  TYR552     -0.2866
@<TRIPOS>BOND
     1   102   101    2
     2   101   100    1
     3    99   100    1
     4   100   103    1
     5    86    85    2
     6   103   104    1
     7    82    83    2
     8    82    81    1
     9    80    81    1
    10    88    89    1
    11    85    87   am
    12    85    84    1
    13    81    84    1
    14   104   105    2
    15   104   106   am
    16    89    90    1
    17    89    92    1
    18    91    90    2
    19    54    53    2
    20    73    72    2
    21    53    52    1
    22   118   117    2
    23    92    93    1
    24    72    71    1
    25   148   147    1
    26    93    94    1
    27   117   116    1
    28    55    52    1
    29    55    56    1
    30    52    51    1
    31   147   146   ar
    32   147   145   ar
    33   146   144   ar
    34    70    71    1
    35    46    45    2
    36    71    74    1
    37   140   139    2
    38    45    44    1
    39    56    58   ar
    40    56    57   ar
    41   116   115    1
    42   116   119    1
    43    58    60   ar
    44   145   143   ar
    45    94    95    1
    46   144   142   ar
    47    74    75    1
    48    77    75   ar
    49    77    79   ar
    50   139   138    1
    51   115   109   am
    52    95    96    2
    53   110   109    2
    54    57    59   ar
    55    75    76   ar
    56   109   108    1
    57   143   142   ar
    58   119   120    1
    59   119   121    1
    60   142   141    1
    61    44    47    1
    62    44    43    1
    63    60    59   ar
    64    47    48    1
    65    79    78   ar
    66    96    98    1
    67    96    97    1
    68   108   107    1
    69   108   111    1
    70   138   141    1
    71   138   137    1
    72    76    78   ar
    73    48    49    1
    74    49    50    1
    75   111   113    1
    76   111   112    1
    77   112   114    1
    78    34    33    2
    79   135   134    1
    80    21    22   ar
    81    21    19   ar
    82    33    32    1
    83    37    39   ar
    84    37    36   ar
    85    39    41   ar
    86    22    20   ar
    87    69    66    1
    88    19    17   ar
    89   132   131    1
    90   132   133    2
    91   134   136    1
    92   134   131    1
    93    35    36    1
    94    35    32    1
    95    36    38   ar
    96    41    42    1
    97    41    40   ar
    98    20    18   ar
    99    32    31    1
   100   131   130    1
   101    68    67    2
   102   129   127    1
   103   122   123    1
   104    66    67    1
   105    66    65    1
   106   126   127    1
   107   126   123    1
   108    17    18   ar
   109    17    16    1
   110    38    40   ar
   111    65    63   am
   112   127   128    1
   113   123   124    1
   114    16    13    1
   115    15    14    2
   116    63    62    1
   117    63    64    2
   118    29    27    1
   119    61    62    1
   120   124   125    2
   121    13    14    1
   122    13    12    1
   123    26    25    2
   124    27    28    1
   125    27    24    1
   126    30    28    1
   127    25    24    1
   128    23    24    1
   129     9    11   ar
   130     9     7   ar
   131    11    10   ar
   132     7     6   ar
   133     1     2    1
   134    10     8   ar
   135     2     5    1
   136     2     3    1
   137     6     8   ar
   138     6     5    1
   139     3     4    2
