@<TRIPOS>MOLECULE
tmp/4p0aA00.pdb
 151 151 0 0 0
SMALL
GASTEIGER

@<TRIPOS>ATOM
      1  N         11.5270   -0.8100    3.2230 N.3    75  ILE75      -0.1245
      2  CA        11.0360   -1.7960    2.2700 C.3    75  ILE75       0.1561
      3  C         10.1180   -1.1040    1.2520 C.2    75  ILE75       0.2260
      4  O         10.2540   -1.3250    0.0630 O.2    75  ILE75      -0.2867
      5  CB        10.2870   -2.9440    2.9860 C.3    75  ILE75       0.0252
      6  CG1       11.2440   -3.6840    3.9270 C.3    75  ILE75       0.0019
      7  CG2        9.6660   -3.9220    1.9480 C.3    75  ILE75       0.0019
      8  CD1       12.4840   -4.2460    3.1930 C.3    75  ILE75       0.0001
      9  N         12.1750    0.3800   -1.3410 N.3    78  LYS78      -0.1231
     10  CA        12.6440   -0.5900   -2.3310 C.3    78  LYS78       0.1693
     11  C         11.5480   -0.9340   -3.3570 C.2    78  LYS78       0.2592
     12  O         11.8450   -1.1650   -4.5410 O.2    78  LYS78      -0.2718
     13  CB        13.1790   -1.8450   -1.6310 C.3    78  LYS78       0.0285
     14  CG        14.4430   -1.5590   -0.8040 C.3    78  LYS78       0.0035
     15  CD        14.8090   -2.7230    0.1530 C.3    78  LYS78       0.0206
     16  CE        16.0810   -2.4220    0.9550 C.3    78  LYS78       0.1093
     17  NZ        16.5660   -3.6040    1.7470 N.3    78  LYS78      -0.1314
     18  N         10.2890   -0.9940   -2.9130 N.am   79  TYR79      -0.1976
     19  CA         9.2140   -1.2660   -3.8600 C.3    79  TYR79       0.1639
     20  C          9.1090   -0.1470   -4.9150 C.2    79  TYR79       0.2290
     21  O          8.9380   -0.4220   -6.1090 O.2    79  TYR79      -0.2864
     22  CB         7.8730   -1.4550   -3.1380 C.3    79  TYR79       0.0560
     23  CG         7.6630   -2.8520   -2.5710 C.ar   79  TYR79      -0.0198
     24  CD1        7.4810   -3.9510   -3.4130 C.ar   79  TYR79      -0.0009
     25  CD2        7.6180   -3.0640   -1.1970 C.ar   79  TYR79      -0.0009
     26  CE1        7.2860   -5.2210   -2.9010 C.ar   79  TYR79       0.0417
     27  CE2        7.4160   -4.3310   -0.6740 C.ar   79  TYR79       0.0417
     28  CZ         7.2500   -5.4020   -1.5270 C.ar   79  TYR79       0.1957
     29  OH         7.0540   -6.6630   -0.9980 O.3    79  TYR79      -0.2866
     30  N         12.2370   -0.1510   -7.3510 N.3    82  ASN82      -0.1225
     31  CA        12.1260   -1.2780   -8.2870 C.3    82  ASN82       0.1785
     32  C         11.2170   -0.9190   -9.4920 C.2    82  ASN82       0.2597
     33  O         11.4830   -1.3340  -10.6150 O.2    82  ASN82      -0.2718
     34  CB        11.6020   -2.5350   -7.5660 C.3    82  ASN82       0.1169
     35  CG        12.6640   -3.2200   -6.6830 C.2    82  ASN82       0.2627
     36  OD1       13.7910   -2.7340   -6.5600 O.2    82  ASN82      -0.2716
     37  ND2       12.2860   -4.3350   -6.0420 N.am   82  ASN82      -0.0877
     38  N         10.1800   -0.1090   -9.2490 N.am   83  LEU83      -0.1980
     39  CA         9.2510    0.3030  -10.2980 C.3    83  LEU83       0.1596
     40  C          9.9130    1.3100  -11.2220 C.2    83  LEU83       0.2287
     41  O          9.4440    1.4920  -12.3620 O.2    83  LEU83      -0.2864
     42  CB         7.9520    0.9030   -9.7000 C.3    83  LEU83       0.0297
     43  CG         6.9780   -0.0290   -8.9660 C.3    83  LEU83       0.0022
     44  CD1        5.7340    0.7400   -8.4930 C.3    83  LEU83       0.0001
     45  CD2        6.5620   -1.1770   -9.8930 C.3    83  LEU83       0.0001
     46  N         11.3640   -5.5600  -12.2590 N.3    89  PRO89      -0.2102
     47  CA        11.3470   -6.9690  -11.8390 C.3    89  PRO89       0.1504
     48  C         10.2070   -7.7380  -12.5230 C.2    89  PRO89       0.2576
     49  O          9.1480   -7.1430  -12.7890 O.2    89  PRO89      -0.2718
     50  CB        11.0500   -6.8820  -10.3190 C.3    89  PRO89       0.0282
     51  CG        11.4410   -5.5330   -9.9250 C.3    89  PRO89       0.0208
     52  CD        11.1420   -4.6540  -11.1140 C.3    89  PRO89       0.0893
     53  N         10.4260   -9.0070  -12.8580 N.am   90  ARG90      -0.1966
     54  CA         9.3090   -9.8340  -13.2500 C.3    90  ARG90       0.1729
     55  C          8.3670   -9.8180  -12.0460 C.2    90  ARG90       0.2616
     56  O          8.8260   -9.7470  -10.8910 O.2    90  ARG90      -0.2715
     57  CB         9.7540  -11.2720  -13.5090 C.3    90  ARG90       0.0348
     58  CG        10.8140  -11.4730  -14.5790 C.3    90  ARG90       0.0492
     59  CD        10.9070  -12.9600  -14.9190 C.3    90  ARG90       0.2205
     60  NE        11.9450  -13.2870  -15.8930 N.pl3  90  ARG90      -0.0865
     61  CZ        11.7310  -13.3900  -17.2030 C.cat  90  ARG90       0.5346
     62  NH1       10.5150  -13.1950  -17.6950 N.pl3  90  ARG90       0.1354
     63  NH2       12.7280  -13.6840  -18.0250 N.pl3  90  ARG90       0.1354
     64  N          7.0630   -9.8540  -12.3070 N.am   91  TYR91      -0.1960
     65  CA         6.0430   -9.8630  -11.2480 C.3    91  TYR91       0.1771
     66  C          6.0110   -8.5820  -10.4460 C.2    91  TYR91       0.2619
     67  O          5.6670   -8.6120   -9.2690 O.2    91  TYR91      -0.2715
     68  CB         6.2080  -11.0590  -10.3050 C.3    91  TYR91       0.0574
     69  CG         6.5180  -12.3220  -11.0400 C.ar   91  TYR91      -0.0198
     70  CD1        5.5320  -12.9880  -11.7440 C.ar   91  TYR91      -0.0009
     71  CD2        7.8010  -12.8470  -11.0470 C.ar   91  TYR91      -0.0009
     72  CE1        5.8100  -14.1580  -12.4450 C.ar   91  TYR91       0.0417
     73  CE2        8.0950  -14.0140  -11.7430 C.ar   91  TYR91       0.0417
     74  CZ         7.0930  -14.6710  -12.4410 C.ar   91  TYR91       0.1957
     75  OH         7.3630  -15.8370  -13.1400 O.3    91  TYR91      -0.2866
     76  N          6.3260   -7.4580  -11.0800 N.am   92  TRP92      -0.1974
     77  CA         6.2440   -6.1660  -10.3930 C.3    92  TRP92       0.1640
     78  C          4.7790   -5.7950  -10.2580 C.2    92  TRP92       0.2290
     79  O          4.3970   -4.9610   -9.4250 O.2    92  TRP92      -0.2864
     80  CB         6.9860   -5.0690  -11.1690 C.3    92  TRP92       0.0576
     81  CG         6.4550   -4.8620  -12.5620 C.ar   92  TRP92       0.0006
     82  CD1        6.8680   -5.5100  -13.6950 C.ar   92  TRP92       0.0946
     83  CD2        5.4190   -3.9500  -12.9750 C.ar   92  TRP92       0.0152
     84  NE1        6.1530   -5.0640  -14.7810 N.ar   92  TRP92      -0.2442
     85  CE2        5.2570   -4.1130  -14.3710 C.ar   92  TRP92       0.0810
     86  CE3        4.6180   -3.0170  -12.3070 C.ar   92  TRP92       0.0012
     87  CZ2        4.3110   -3.3660  -15.1160 C.ar   92  TRP92       0.0191
     88  CZ3        3.6660   -2.2760  -13.0560 C.ar   92  TRP92       0.0001
     89  CH2        3.5290   -2.4610  -14.4410 C.ar   92  TRP92       0.0015
     90  N          2.2670   -7.2280   -9.0230 N.3    94  GLY94      -0.1210
     91  CA         1.5480   -7.6170   -7.8090 C.3    94  GLY94       0.1956
     92  C          2.3950   -7.8800   -6.5600 C.2    94  GLY94       0.2612
     93  O          3.5260   -8.3680   -6.6220 O.2    94  GLY94      -0.2717
     94  N          1.8310   -7.5780   -5.4010 N.am   95  VAL95      -0.1965
     95  CA         2.4900   -7.8870   -4.1380 C.3    95  VAL95       0.1727
     96  C          1.5380   -8.7160   -3.2920 C.2    95  VAL95       0.2616
     97  O          0.3670   -8.3430   -3.1080 O.2    95  VAL95      -0.2715
     98  CB         2.9160   -6.6020   -3.3560 C.3    95  VAL95       0.0290
     99  CG1        3.5880   -6.9730   -2.0360 C.3    95  VAL95       0.0023
    100  CG2        3.8390   -5.7350   -4.2080 C.3    95  VAL95       0.0023
    101  N          2.0420   -9.8320   -2.7720 N.am   96  LYS96      -0.1977
    102  CA         1.2440  -10.7110   -1.9210 C.3    96  LYS96       0.1596
    103  C          1.3360  -10.2800   -0.4500 C.2    96  LYS96       0.2287
    104  O          2.4240   -9.9600    0.0490 O.2    96  LYS96      -0.2864
    105  CB         1.7250  -12.1600   -2.0800 C.3    96  LYS96       0.0298
    106  CG         1.6860  -12.6810   -3.5080 C.3    96  LYS96       0.0038
    107  CD         0.2840  -12.6360   -4.0900 C.3    96  LYS96       0.0206
    108  CE         0.2850  -13.0870   -5.5460 C.3    96  LYS96       0.1093
    109  NZ        -1.0890  -13.1690   -6.1120 N.3    96  LYS96      -0.1314
    110  N          0.9870  -12.1520    1.9870 N.3    98  ASN98      -0.1225
    111  CA         1.7290  -13.2320    2.6360 C.3    98  ASN98       0.1785
    112  C          3.1730  -13.4110    2.1540 C.2    98  ASN98       0.2597
    113  O          3.7460  -14.4900    2.3040 O.2    98  ASN98      -0.2718
    114  CB         0.9710  -14.5520    2.5000 C.3    98  ASN98       0.1169
    115  CG        -0.2600  -14.6050    3.3830 C.2    98  ASN98       0.2627
    116  OD1       -0.1620  -14.7910    4.6010 O.2    98  ASN98      -0.2716
    117  ND2       -1.4330  -14.4460    2.7720 N.am   98  ASN98      -0.0877
    118  N          3.7520  -12.3640    1.5690 N.am   99  ASN99      -0.1961
    119  CA         5.1830  -12.3500    1.2860 C.3    99  ASN99       0.1804
    120  C          5.8870  -12.1830    2.6230 C.2    99  ASN99       0.2463
    121  O          5.5200  -11.3090    3.4150 O.2    99  ASN99      -0.2730
    122  CB         5.5620  -11.2190    0.3220 C.3    99  ASN99       0.1195
    123  CG         7.0670  -11.1060    0.1130 C.2    99  ASN99       0.2630
    124  OD1        7.7470  -10.3290    0.7890 O.2    99  ASN99      -0.2716
    125  ND2        7.5950  -11.8900   -0.8260 N.am   99  ASN99      -0.0877
    126  N          6.8810  -13.0450    2.8930 N.am  100  PRO100     -0.2716
    127  CA         7.5920  -13.0970    4.1810 C.3   100  PRO100      0.1536
    128  C          8.1520  -11.7330    4.5500 C.2   100  PRO100      0.2598
    129  O          7.9730  -11.2820    5.6790 O.2   100  PRO100     -0.2715
    130  CB         8.7240  -14.0950    3.9110 C.3   100  PRO100      0.0310
    131  CG         8.1730  -14.9960    2.8260 C.3   100  PRO100      0.0237
    132  CD         7.3800  -14.0600    1.9430 C.3   100  PRO100      0.0939
    133  N          8.8130  -11.0890    3.5900 N.am  101  VAL101     -0.1978
    134  CA         9.4020   -9.7770    3.8080 C.3   101  VAL101      0.1596
    135  C          8.3240   -8.7000    3.9370 C.2   101  VAL101      0.2287
    136  O          8.4590   -7.7830    4.7740 O.2   101  VAL101     -0.2864
    137  CB        10.3670   -9.3780    2.6600 C.3   101  VAL101      0.0276
    138  CG1       11.1700   -8.1220    3.0220 C.3   101  VAL101      0.0022
    139  CG2       11.2900  -10.5330    2.2890 C.3   101  VAL101      0.0022
    140  N         -0.4780    0.1290   -7.0080 N.3   121  TYR121     -0.1241
    141  CA        -1.0860   -1.1480   -6.6290 C.3   121  TYR121      0.1605
    142  C         -2.4920   -0.9590   -6.0800 C.2   121  TYR121      0.2264
    143  O         -2.7370   -1.1570   -4.8790 O.2   121  TYR121     -0.2867
    144  CB        -0.2170   -1.8760   -5.6070 C.3   121  TYR121      0.0534
    145  CG         1.1410   -2.2740   -6.1330 C.ar  121  TYR121     -0.0201
    146  CD1        1.3070   -3.4690   -6.8390 C.ar  121  TYR121     -0.0009
    147  CD2        2.2680   -1.4810   -5.9030 C.ar  121  TYR121     -0.0009
    148  CE1        2.5590   -3.8670   -7.3120 C.ar  121  TYR121      0.0417
    149  CE2        3.5300   -1.8680   -6.3770 C.ar  121  TYR121      0.0417
    150  CZ         3.6700   -3.0630   -7.0800 C.ar  121  TYR121      0.1957
    151  OH         4.9250   -3.4530   -7.5460 O.3   121  TYR121     -0.2866
@<TRIPOS>BOND
     1    63    61    1
     2    62    61    1
     3    61    60    2
     4    60    59    1
     5    87    89   ar
     6    87    85   ar
     7    59    58    1
     8    84    85   ar
     9    84    82   ar
    10    58    57    1
    11    89    88   ar
    12    85    83   ar
    13    82    81   ar
    14    57    54    1
    15    54    53    1
    16    54    55    1
    17    75    74    1
    18    88    86   ar
    19    83    81   ar
    20    83    86   ar
    21    53    48   am
    22    49    48    2
    23    81    80    1
    24    48    47    1
    25    72    74   ar
    26    72    70   ar
    27    74    73   ar
    28    41    40    2
    29    64    55   am
    30    64    65    1
    31    46    47    1
    32    46    52    1
    33    55    56    2
    34    47    50    1
    35    70    69   ar
    36    73    71   ar
    37    65    66    1
    38    65    68    1
    39    40    39    1
    40    80    77    1
    41    52    51    1
    42    76    66   am
    43    76    77    1
    44    71    69   ar
    45    69    68    1
    46    33    32    2
    47    66    67    2
    48    77    78    1
    49    50    51    1
    50    39    42    1
    51    39    38    1
    52    78    79    2
    53    45    43    1
    54    42    43    1
    55    32    38   am
    56    32    31    1
    57    90    91    1
    58    43    44    1
    59    31    34    1
    60    31    30    1
    61    91    92    1
    62    34    35    1
    63   151   150    1
    64   148   150   ar
    65   148   146   ar
    66   150   149   ar
    67   140   141    1
    68   146   145   ar
    69    35    36    2
    70    35    37   am
    71   141   142    1
    72   141   144    1
    73    93    92    2
    74    92    94   am
    75   149   147   ar
    76   145   147   ar
    77   145   144    1
    78   109   108    1
    79    21    20    2
    80   142   143    2
    81   108   107    1
    82    94    95    1
    83    20    19    1
    84    12    11    2
    85   100    98    1
    86    95    98    1
    87    95    96    1
    88   107   106    1
    89    19    22    1
    90    19    18    1
    91   106   105    1
    92    24    26   ar
    93    24    23   ar
    94    11    18   am
    95    11    10    1
    96    98    99    1
    97    96    97    2
    98    96   101   am
    99    22    23    1
   100    26    28   ar
   101   101   102    1
   102    23    25   ar
   103    10    13    1
   104    10     9    1
   105   105   102    1
   106   102   103    1
   107    13    14    1
   108    28    29    1
   109    28    27   ar
   110    25    27   ar
   111   125   123   am
   112    14    15    1
   113   103   104    2
   114     4     3    2
   115   123   122    1
   116   123   124    2
   117    15    16    1
   118   122   119    1
   119    16    17    1
   120     3     2    1
   121   119   118    1
   122   119   120    1
   123   118   112   am
   124   132   131    1
   125   132   126    1
   126     7     5    1
   127   110   111    1
   128   112   113    2
   129   112   111    1
   130     2     5    1
   131     2     1    1
   132   139   137    1
   133   114   111    1
   134   114   115    1
   135   120   126   am
   136   120   121    2
   137   137   138    1
   138   137   134    1
   139   117   115   am
   140   131   130    1
   141   126   127    1
   142     5     6    1
   143     8     6    1
   144   115   116    2
   145   133   134    1
   146   133   128   am
   147   134   135    1
   148   130   127    1
   149   135   136    2
   150   127   128    1
   151   128   129    2
