@<TRIPOS>MOLECULE
tmp/4p0bA00.pdb
 140 139 0 0 0
SMALL
GASTEIGER

@<TRIPOS>ATOM
      1  N         11.8530   -0.7680    2.6570 N.3    74  ILE74      -0.1245
      2  CA        11.3390   -1.7170    1.6790 C.3    74  ILE74       0.1561
      3  C         10.5130   -1.0010    0.6110 C.2    74  ILE74       0.2260
      4  O         10.6090   -1.3150   -0.5770 O.2    74  ILE74      -0.2867
      5  CB        10.4900   -2.8060    2.3610 C.3    74  ILE74       0.0252
      6  CG1       11.3600   -3.6400    3.3030 C.3    74  ILE74       0.0019
      7  CG2        9.8310   -3.7020    1.3270 C.3    74  ILE74       0.0019
      8  CD1       12.4650   -4.4000    2.6040 C.3    74  ILE74       0.0001
      9  N         12.5650    0.4930   -1.9640 N.3    77  LYS77      -0.1231
     10  CA        13.0850   -0.5170   -2.8780 C.3    77  LYS77       0.1693
     11  C         12.0090   -0.9890   -3.8500 C.2    77  LYS77       0.2592
     12  O         12.3090   -1.3960   -4.9730 O.2    77  LYS77      -0.2718
     13  CB        13.6910   -1.6860   -2.1000 C.3    77  LYS77       0.0285
     14  CG        14.9350   -1.2930   -1.3150 C.3    77  LYS77       0.0035
     15  CD        15.5240   -2.4600   -0.5420 C.3    77  LYS77       0.0206
     16  CE        16.8160   -2.0500    0.1490 C.3    77  LYS77       0.1093
     17  NZ        17.5300   -3.2080    0.7540 N.3    77  LYS77      -0.1314
     18  N         10.7560   -0.9410   -3.4110 N.am   78  TYR78      -0.1976
     19  CA         9.6320   -1.2120   -4.2980 C.3    78  TYR78       0.1639
     20  C          9.6080   -0.1790   -5.4210 C.2    78  TYR78       0.2290
     21  O          9.2460   -0.4860   -6.5550 O.2    78  TYR78      -0.2864
     22  CB         8.3090   -1.1740   -3.5310 C.3    78  TYR78       0.0560
     23  CG         7.8370   -2.5220   -3.0330 C.ar   78  TYR78      -0.0198
     24  CD1        7.3870   -3.4900   -3.9200 C.ar   78  TYR78      -0.0009
     25  CD2        7.8210   -2.8170   -1.6760 C.ar   78  TYR78      -0.0009
     26  CE1        6.9480   -4.7210   -3.4720 C.ar   78  TYR78       0.0417
     27  CE2        7.3810   -4.0450   -1.2180 C.ar   78  TYR78       0.0417
     28  CZ         6.9470   -4.9930   -2.1200 C.ar   78  TYR78       0.1957
     29  OH         6.5090   -6.2160   -1.6670 O.3    78  TYR78      -0.2866
     30  N         12.8140   -0.4970   -7.8790 N.3    81  ASN81      -0.1225
     31  CA        12.6320   -1.6300   -8.7800 C.3    81  ASN81       0.1785
     32  C         11.9160   -1.2320  -10.0670 C.2    81  ASN81       0.2597
     33  O         12.3120   -1.6350  -11.1620 O.2    81  ASN81      -0.2718
     34  CB        11.8620   -2.7510   -8.0790 C.3    81  ASN81       0.1169
     35  CG        12.7500   -3.6050   -7.1970 C.2    81  ASN81       0.2627
     36  OD1       13.9120   -3.2760   -6.9630 O.2    81  ASN81      -0.2716
     37  ND2       12.2050   -4.7120   -6.7030 N.am   81  ASN81      -0.0877
     38  N         10.8590   -0.4410   -9.9240 N.am   82  LEU82      -0.1980
     39  CA        10.0690    0.0120  -11.0640 C.3    82  LEU82       0.1596
     40  C         10.8430    1.0140  -11.9180 C.2    82  LEU82       0.2287
     41  O         10.4980    1.2570  -13.0740 O.2    82  LEU82      -0.2864
     42  CB         8.7580    0.6400  -10.5820 C.3    82  LEU82       0.0297
     43  CG         7.8440   -0.2340   -9.7200 C.3    82  LEU82       0.0022
     44  CD1        6.5660    0.5120   -9.3730 C.3    82  LEU82       0.0001
     45  CD2        7.5300   -1.5470  -10.4200 C.3    82  LEU82       0.0001
     46  N         12.0720   -5.9900  -12.5590 N.3    88  PRO88      -0.2116
     47  CA        11.8340   -7.3700  -12.1190 C.3    88  PRO88       0.1372
     48  C         10.6020   -7.9720  -12.7910 C.2    88  PRO88       0.2244
     49  O          9.7220   -7.2330  -13.2370 O.2    88  PRO88      -0.2868
     50  CB        11.6170   -7.2330  -10.6060 C.3    88  PRO88       0.0268
     51  CG        11.3620   -5.7760  -10.3680 C.3    88  PRO88       0.0207
     52  CD        12.1180   -5.0500  -11.4270 C.3    88  PRO88       0.0892
     53  N          7.8250   -9.9930  -11.8470 N.3    90  TYR90      -0.1227
     54  CA         6.4820   -9.8500  -11.3000 C.3    90  TYR90       0.1736
     55  C          6.2410   -8.4740  -10.6840 C.2    90  TYR90       0.2595
     56  O          5.6250   -8.3660   -9.6250 O.2    90  TYR90      -0.2718
     57  CB         6.2150  -10.9440  -10.2640 C.3    90  TYR90       0.0548
     58  CG         6.2870  -12.3430  -10.8320 C.ar   90  TYR90      -0.0200
     59  CD1        5.1440  -13.0030  -11.2660 C.ar   90  TYR90      -0.0009
     60  CD2        7.5050  -12.9970  -10.9480 C.ar   90  TYR90      -0.0009
     61  CE1        5.2150  -14.2820  -11.7900 C.ar   90  TYR90       0.0417
     62  CE2        7.5860  -14.2700  -11.4680 C.ar   90  TYR90       0.0417
     63  CZ         6.4400  -14.9090  -11.8890 C.ar   90  TYR90       0.1957
     64  OH         6.5230  -16.1800  -12.4090 O.3    90  TYR90      -0.2866
     65  N          6.7190   -7.4300  -11.3570 N.am   91  TRP91      -0.1976
     66  CA         6.6240   -6.0650  -10.8390 C.3    91  TRP91       0.1640
     67  C          5.1930   -5.5590  -10.6340 C.2    91  TRP91       0.2290
     68  O          4.9300   -4.8390   -9.6720 O.2    91  TRP91      -0.2864
     69  CB         7.4130   -5.0790  -11.7100 C.3    91  TRP91       0.0576
     70  CG         6.8600   -4.8910  -13.0930 C.ar   91  TRP91       0.0006
     71  CD1        7.1450   -5.6410  -14.1970 C.ar   91  TRP91       0.0946
     72  CD2        5.9100   -3.9020  -13.5150 C.ar   91  TRP91       0.0152
     73  NE1        6.4450   -5.1720  -15.2820 N.ar   91  TRP91      -0.2442
     74  CE2        5.6790   -4.1080  -14.8910 C.ar   91  TRP91       0.0810
     75  CE3        5.2370   -2.8630  -12.8660 C.ar   91  TRP91       0.0012
     76  CZ2        4.8010   -3.3140  -15.6260 C.ar   91  TRP91       0.0191
     77  CZ3        4.3690   -2.0760  -13.5990 C.ar   91  TRP91       0.0001
     78  CH2        4.1580   -2.3070  -14.9640 C.ar   91  TRP91       0.0015
     79  N          2.6170   -7.1230   -9.7210 N.3    93  GLY93      -0.1210
     80  CA         1.8770   -7.8590   -8.7100 C.3    93  GLY93       0.1956
     81  C          2.5090   -7.8580   -7.3290 C.2    93  GLY93       0.2612
     82  O          3.6770   -8.2120   -7.1770 O.2    93  GLY93      -0.2717
     83  N          1.7360   -7.4570   -6.3210 N.am   94  VAL94      -0.1965
     84  CA         2.1930   -7.5020   -4.9320 C.3    94  VAL94       0.1727
     85  C          1.2170   -8.3010   -4.0850 C.2    94  VAL94       0.2616
     86  O          0.0540   -7.9280   -3.9250 O.2    94  VAL94      -0.2715
     87  CB         2.3470   -6.0990   -4.3290 C.3    94  VAL94       0.0290
     88  CG1        2.6250   -6.1920   -2.8290 C.3    94  VAL94       0.0023
     89  CG2        3.4500   -5.3440   -5.0430 C.3    94  VAL94       0.0023
     90  N          1.6950   -9.4140   -3.5500 N.am   95  LYS95      -0.1977
     91  CA         0.8380  -10.2830   -2.7670 C.3    95  LYS95       0.1596
     92  C          0.9830   -9.9820   -1.2790 C.2    95  LYS95       0.2287
     93  O          2.0930   -9.7690   -0.7970 O.2    95  LYS95      -0.2864
     94  CB         1.2010  -11.7350   -3.0540 C.3    95  LYS95       0.0298
     95  CG         1.4690  -11.9920   -4.5420 C.3    95  LYS95       0.0038
     96  CD         0.2800  -12.5420   -5.3210 C.3    95  LYS95       0.0206
     97  CE        -0.1460  -13.9100   -4.8400 C.3    95  LYS95       0.1093
     98  NZ        -1.5420  -14.1820   -5.2740 N.3    95  LYS95      -0.1314
     99  N          0.4010  -12.0510    1.2010 N.3    97  ASN97      -0.1225
    100  CA         0.9770  -13.2190    1.8650 C.3    97  ASN97       0.1785
    101  C          2.4790  -13.3540    1.6450 C.2    97  ASN97       0.2597
    102  O          3.1230  -14.2240    2.2340 O.2    97  ASN97      -0.2718
    103  CB         0.2680  -14.4950    1.4110 C.3    97  ASN97       0.1169
    104  CG        -1.1890  -14.5260    1.8180 C.2    97  ASN97       0.2627
    105  OD1       -1.5360  -14.1970    2.9530 O.2    97  ASN97      -0.2716
    106  ND2       -2.0520  -14.9280    0.8930 N.am   97  ASN97      -0.0877
    107  N          3.0230  -12.4970    0.7840 N.am   98  ASN98      -0.1961
    108  CA         4.4580  -12.4700    0.5170 C.3    98  ASN98       0.1804
    109  C          5.2420  -12.1860    1.7950 C.2    98  ASN98       0.2463
    110  O          4.8960  -11.2710    2.5460 O.2    98  ASN98      -0.2730
    111  CB         4.7870  -11.4210   -0.5480 C.3    98  ASN98       0.1195
    112  CG         6.2810  -11.2190   -0.7290 C.2    98  ASN98       0.2630
    113  OD1        6.8630  -10.2950   -0.1630 O.2    98  ASN98      -0.2716
    114  ND2        6.9050  -12.0720   -1.5360 N.am   98  ASN98      -0.0877
    115  N          6.2930  -12.9800    2.0460 N.am   99  PRO99      -0.2716
    116  CA         7.1040  -12.9150    3.2680 C.3    99  PRO99       0.1536
    117  C          7.6170  -11.5130    3.6030 C.2    99  PRO99       0.2598
    118  O          7.2910  -10.9750    4.6620 O.2    99  PRO99      -0.2715
    119  CB         8.2760  -13.8570    2.9620 C.3    99  PRO99       0.0310
    120  CG         8.2150  -14.1260    1.4830 C.3    99  PRO99       0.0237
    121  CD         6.7660  -14.0390    1.1410 C.3    99  PRO99       0.0939
    122  N          8.4200  -10.9440    2.7110 N.am  100  VAL100     -0.1978
    123  CA         9.0240   -9.6330    2.9270 C.3   100  VAL100      0.1596
    124  C          7.9950   -8.5300    3.1910 C.2   100  VAL100      0.2287
    125  O          8.2200   -7.6500    4.0210 O.2   100  VAL100     -0.2864
    126  CB         9.9070   -9.2300    1.7280 C.3   100  VAL100      0.0276
    127  CG1       10.6090   -7.9100    1.9990 C.3   100  VAL100      0.0022
    128  CG2       10.9230  -10.3230    1.4290 C.3   100  VAL100      0.0022
    129  N         -0.0430    0.5790   -8.0570 N.3   120  TYR120     -0.1241
    130  CA        -0.8090   -0.6310   -7.7650 C.3   120  TYR120      0.1605
    131  C         -2.2410   -0.2910   -7.3650 C.2   120  TYR120      0.2264
    132  O         -2.6170   -0.4460   -6.2030 O.2   120  TYR120     -0.2867
    133  CB        -0.1370   -1.4300   -6.6460 C.3   120  TYR120      0.0534
    134  CG         1.2570   -1.9070   -6.9800 C.ar  120  TYR120     -0.0201
    135  CD1        1.4590   -3.0950   -7.6670 C.ar  120  TYR120     -0.0009
    136  CD2        2.3730   -1.1690   -6.6050 C.ar  120  TYR120     -0.0009
    137  CE1        2.7310   -3.5340   -7.9740 C.ar  120  TYR120      0.0417
    138  CE2        3.6500   -1.6000   -6.9070 C.ar  120  TYR120      0.0417
    139  CZ         3.8240   -2.7830   -7.5910 C.ar  120  TYR120      0.1957
    140  OH         5.0950   -3.2160   -7.8930 O.3   120  TYR120     -0.2866
@<TRIPOS>BOND
     1    76    78   ar
     2    76    74   ar
     3    73    74   ar
     4    73    71   ar
     5    78    77   ar
     6    74    72   ar
     7    71    70   ar
     8    77    75   ar
     9    72    70   ar
    10    72    75   ar
    11    49    48    2
    12    70    69    1
    13    41    40    2
    14    48    47    1
    15    46    47    1
    16    46    52    1
    17    64    63    1
    18    47    50    1
    19    40    39    1
    20    63    61   ar
    21    63    62   ar
    22    53    54    1
    23    61    59   ar
    24    69    66    1
    25    62    60   ar
    26    52    51    1
    27    65    66    1
    28    65    55   am
    29    54    55    1
    30    54    57    1
    31    59    58   ar
    32    33    32    2
    33    39    42    1
    34    39    38    1
    35    60    58   ar
    36    66    67    1
    37    58    57    1
    38    55    56    2
    39    67    68    2
    40    50    51    1
    41    42    43    1
    42    45    43    1
    43    32    38   am
    44    32    31    1
    45    79    80    1
    46    43    44    1
    47    31    34    1
    48    31    30    1
    49    80    81    1
    50    34    35    1
    51   129   130    1
    52   137   135   ar
    53   137   139   ar
    54   140   139    1
    55   130   131    1
    56   130   133    1
    57   135   134   ar
    58   139   138   ar
    59   131   132    2
    60    81    82    2
    61    81    83   am
    62    35    36    2
    63    35    37   am
    64   134   133    1
    65   134   136   ar
    66   138   136   ar
    67    21    20    2
    68    83    84    1
    69    20    19    1
    70    96    97    1
    71    96    95    1
    72    98    97    1
    73    89    87    1
    74    12    11    2
    75    84    87    1
    76    84    85    1
    77    95    94    1
    78    87    88    1
    79    19    22    1
    80    19    18    1
    81    85    86    2
    82    85    90   am
    83    24    26   ar
    84    24    23   ar
    85    11    18   am
    86    11    10    1
    87    90    91    1
    88    22    23    1
    89    26    28   ar
    90    94    91    1
    91    23    25   ar
    92    10    13    1
    93    10     9    1
    94    91    92    1
    95    28    29    1
    96    28    27   ar
    97    13    14    1
    98    25    27   ar
    99   114   112   am
   100    14    15    1
   101    92    93    2
   102   112   111    1
   103   112   113    2
   104     4     3    2
   105   111   108    1
   106    15    16    1
   107    16    17    1
   108   108   107    1
   109   108   109    1
   110     3     2    1
   111   107   101   am
   112   106   104   am
   113   121   120    1
   114   121   115    1
   115    99   100    1
   116     7     5    1
   117   103   104    1
   118   103   100    1
   119   128   126    1
   120   120   119    1
   121   101   100    1
   122   101   102    2
   123     2     5    1
   124     2     1    1
   125   126   127    1
   126   126   123    1
   127   109   115   am
   128   109   110    2
   129   104   105    2
   130   115   116    1
   131     5     6    1
   132     8     6    1
   133   122   123    1
   134   122   117   am
   135   123   124    1
   136   119   116    1
   137   124   125    2
   138   116   117    1
   139   117   118    2
