@<TRIPOS>MOLECULE
tmp/4p0gA01.pdb
 104 99 0 0 0
SMALL
GASTEIGER

@<TRIPOS>ATOM
      1  N          6.3270  -19.6220  -17.9970 N.3   284  GLN284     -0.1231
      2  CA         6.8270  -20.4720  -16.9280 C.3   284  GLN284      0.1698
      3  C          6.2370  -21.8830  -17.0330 C.2   284  GLN284      0.2592
      4  O          6.9150  -22.8610  -16.7430 O.2   284  GLN284     -0.2718
      5  CB         6.5160  -19.8560  -15.5590 C.3   284  GLN284      0.0381
      6  CG         6.9270  -20.7020  -14.3740 C.3   284  GLN284      0.0905
      7  CD         8.4000  -21.0480  -14.3560 C.2   284  GLN284      0.2608
      8  OE1        9.2240  -20.3710  -14.9650 O.2   284  GLN284     -0.2717
      9  NE2        8.7400  -22.1200  -13.6470 N.am  284  GLN284     -0.0878
     10  N          4.9900  -21.9970  -17.4730 N.am  285  GLU285     -0.1966
     11  CA         4.3550  -23.3120  -17.5440 C.3   285  GLU285      0.1733
     12  C          4.8270  -24.1670  -18.7430 C.2   285  GLU285      0.2617
     13  O          5.0480  -25.3700  -18.5970 O.2   285  GLU285     -0.2715
     14  CB         2.8290  -23.1630  -17.5870 C.3   285  GLU285      0.0429
     15  CG         2.1920  -22.5460  -16.3300 C.3   285  GLU285      0.1163
     16  CD         2.2160  -23.4520  -15.1010 C.2   285  GLU285      0.3649
     17  OE1        2.8980  -24.4900  -15.1210 O.co2 285  GLU285     -0.2457
     18  OE2        1.5460  -23.1160  -14.1000 O.co2 285  GLU285     -0.2457
     19  N          4.9910  -23.5610  -19.9160 N.am  286  SER286     -0.1950
     20  CA         5.2030  -24.3380  -21.1340 C.3   286  SER286      0.1924
     21  C          6.2160  -23.7460  -22.1110 C.2   286  SER286      0.2314
     22  O          6.4320  -24.3060  -23.1860 O.2   286  SER286     -0.2863
     23  CB         3.8810  -24.4940  -21.8660 C.3   286  SER286      0.2116
     24  OG         3.4640  -23.2520  -22.4020 O.3   286  SER286     -0.2180
     25  N          2.7420  -28.9180  -24.7810 N.3   292  ALA292     -0.1231
     26  CA         3.6100  -29.2880  -23.6630 C.3   292  ALA292      0.1694
     27  C          2.9530  -30.2850  -22.7140 C.2   292  ALA292      0.2593
     28  O          1.7250  -30.3660  -22.6250 O.2   292  ALA292     -0.2718
     29  CB         4.0310  -28.0460  -22.8910 C.3   292  ALA292      0.0304
     30  N          3.7960  -31.0230  -21.9960 N.am  293  THR293     -0.1939
     31  CA         3.3520  -32.0520  -21.0650 C.3   293  THR293      0.2028
     32  C          4.3050  -32.1260  -19.8720 C.2   293  THR293      0.2643
     33  O          5.5230  -32.1760  -20.0480 O.2   293  THR293     -0.2714
     34  CB         3.2740  -33.4320  -21.7590 C.3   293  THR293      0.1808
     35  OG1        2.3310  -33.3760  -22.8370 O.3   293  THR293     -0.2208
     36  CG2        2.8450  -34.5140  -20.7870 C.3   293  THR293      0.0379
     37  N          3.7490  -32.1160  -18.6620 N.am  294  SER294     -0.1935
     38  CA         4.5430  -32.3030  -17.4490 C.3   294  SER294      0.2055
     39  C          4.6880  -33.7880  -17.1580 C.2   294  SER294      0.2642
     40  O          4.1190  -34.6260  -17.8540 O.2   294  SER294     -0.2714
     41  CB         3.8990  -31.6040  -16.2500 C.3   294  SER294      0.2130
     42  OG         2.8750  -32.4060  -15.6860 O.3   294  SER294     -0.2179
     43  N          5.4360  -34.1150  -16.1140 N.am  295  LYS295     -0.1977
     44  CA         5.6340  -35.5070  -15.7480 C.3   295  LYS295      0.1596
     45  C          4.3380  -36.1330  -15.2280 C.2   295  LYS295      0.2287
     46  O          4.1560  -37.3490  -15.2960 O.2   295  LYS295     -0.2864
     47  CB         6.7310  -35.6160  -14.6900 C.3   295  LYS295      0.0298
     48  CG         7.5750  -36.8680  -14.7920 C.3   295  LYS295      0.0038
     49  CD         8.8220  -36.7410  -13.9410 C.3   295  LYS295      0.0206
     50  CE         8.5020  -36.7270  -12.4520 C.3   295  LYS295      0.1093
     51  NZ         7.9730  -38.0380  -11.9880 N.3   295  LYS295     -0.1314
     52  N         -0.3000  -33.1490  -16.4670 N.3   298  VAL298     -0.1245
     53  CA        -0.7440  -31.7870  -16.7300 C.3   298  VAL298      0.1561
     54  C         -0.3000  -31.4270  -18.1430 C.2   298  VAL298      0.2260
     55  O          0.8050  -31.7810  -18.5500 O.2   298  VAL298     -0.2867
     56  CB        -0.1710  -30.7930  -15.6980 C.3   298  VAL298      0.0252
     57  CG1       -0.8760  -29.4750  -15.7860 C.3   298  VAL298      0.0019
     58  CG2       -0.3060  -31.3500  -14.2850 C.3   298  VAL298      0.0019
     59  N         -0.7610  -25.3270  -18.7050 N.3   303  MET303     -0.1245
     60  CA        -0.5790  -26.4670  -17.8010 C.3   303  MET303      0.1570
     61  C         -1.7550  -26.6480  -16.8560 C.2   303  MET303      0.2261
     62  O         -1.6200  -26.5650  -15.6300 O.2   303  MET303     -0.2867
     63  CB         0.7150  -26.3000  -17.0040 C.3   303  MET303      0.0387
     64  CG         1.9260  -26.6410  -17.8140 C.3   303  MET303      0.0595
     65  SD         2.0070  -28.4140  -18.0610 S.3   303  MET303     -0.1393
     66  CE         2.6350  -28.4850  -19.6990 C.3   303  MET303      0.0692
     67  N         -0.4030  -22.6180   -8.6460 N.3   356  ASN356     -0.1240
     68  CA         0.5440  -23.7150   -8.6760 C.3   356  ASN356      0.1653
     69  C          0.3180  -24.7700   -7.5900 C.2   356  ASN356      0.2266
     70  O          0.4780  -25.9590   -7.8490 O.2   356  ASN356     -0.2867
     71  CB         1.9630  -23.1540   -8.5620 C.3   356  ASN356      0.1155
     72  CG         3.0170  -24.2300   -8.6060 C.2   356  ASN356      0.2627
     73  OD1        3.5950  -24.5800   -7.5830 O.2   356  ASN356     -0.2716
     74  ND2        3.2650  -24.7770   -9.7950 N.am  356  ASN356     -0.0877
     75  N          8.9430  -25.5870   -5.1870 N.3   407  GLU407     -0.1245
     76  CA         8.5710  -25.4050   -6.5990 C.3   407  GLU407      0.1567
     77  C          7.7330  -24.1550   -6.7550 C.2   407  GLU407      0.2260
     78  O          7.8930  -23.3870   -7.7010 O.2   407  GLU407     -0.2867
     79  CB         7.7750  -26.6150   -7.1430 C.3   407  GLU407      0.0388
     80  CG         7.2150  -26.4210   -8.5890 C.3   407  GLU407      0.1160
     81  CD         6.1550  -27.4450   -9.0160 C.2   407  GLU407      0.3649
     82  OE1        5.2430  -27.0700   -9.7920 O.co2 407  GLU407     -0.2457
     83  OE2        6.2350  -28.6240   -8.6100 O.co2 407  GLU407     -0.2457
     84  N          9.7150  -20.9490   -6.6490 N.3   410  HIS410     -0.1226
     85  CA        10.4020  -20.7930   -7.9310 C.3   410  HIS410      0.1752
     86  C          9.4110  -20.3310   -8.9970 C.2   410  HIS410      0.2596
     87  O          9.6980  -19.4100   -9.7710 O.2   410  HIS410     -0.2718
     88  CB        11.0690  -22.1200   -8.3240 C.3   410  HIS410      0.0759
     89  CG        11.7900  -22.0900   -9.6380 C.ar  410  HIS410      0.0818
     90  ND1       13.0470  -21.5410   -9.7880 N.ar  410  HIS410     -0.2268
     91  CD2       11.4440  -22.5730  -10.8560 C.ar  410  HIS410      0.1154
     92  CE1       13.4370  -21.6740  -11.0440 C.ar  410  HIS410      0.1986
     93  NE2       12.4840  -22.2990  -11.7130 N.ar  410  HIS410     -0.2212
     94  N          8.2390  -20.9660   -9.0300 N.am  411  PHE411     -0.1976
     95  CA         7.1900  -20.5950   -9.9710 C.3   411  PHE411      0.1639
     96  C          6.8250  -19.1110   -9.8730 C.2   411  PHE411      0.2290
     97  O          6.8110  -18.3980  -10.8730 O.2   411  PHE411     -0.2864
     98  CB         5.9440  -21.4540   -9.7320 C.3   411  PHE411      0.0560
     99  CG         4.7580  -21.0460  -10.5610 C.ar  411  PHE411     -0.0200
    100  CD1        4.6340  -21.4780  -11.8700 C.ar  411  PHE411     -0.0042
    101  CD2        3.7690  -20.2420  -10.0340 C.ar  411  PHE411     -0.0042
    102  CE1        3.5360  -21.1020  -12.6390 C.ar  411  PHE411     -0.0003
    103  CE2        2.6750  -19.8690  -10.7870 C.ar  411  PHE411     -0.0003
    104  CZ         2.5610  -20.2980  -12.0970 C.ar  411  PHE411     -0.0000
@<TRIPOS>BOND
     1    25    26    1
     2    26    29    1
     3    26    27    1
     4    22    21    2
     5    35    34    1
     6    27    28    2
     7    27    30   am
     8    24    23    1
     9    21    20    1
    10    30    31    1
    11    23    20    1
    12    34    31    1
    13    34    36    1
    14    20    19    1
    15    31    32    1
    16    33    32    2
    17    19    12   am
    18    32    37   am
    19    66    65    1
    20    12    13    2
    21    12    11    1
    22    59    60    1
    23    37    38    1
    24    55    54    2
    25    54    53    1
    26    65    64    1
    27     1     2    1
    28    40    39    2
    29    64    63    1
    30    60    63    1
    31    60    61    1
    32    14    11    1
    33    14    15    1
    34    11    10    1
    35    10     3   am
    36    38    39    1
    37    38    41    1
    38    39    43   am
    39     3     2    1
    40     3     4    2
    41     2     5    1
    42    61    62    2
    43    53    52    1
    44    53    56    1
    45    15    16    1
    46    41    42    1
    47    43    44    1
    48    57    56    1
    49    44    45    1
    50    44    47    1
    51    56    58    1
    52     5     6    1
    53    46    45    2
    54    17    16   ar
    55    16    18   ar
    56     8     7    2
    57    48    47    1
    58    48    49    1
    59     6     7    1
    60     7     9   am
    61    49    50    1
    62   102   104   ar
    63   102   100   ar
    64    50    51    1
    65   104   103   ar
    66   100    99   ar
    67    93    92   ar
    68    93    91   ar
    69    92    90   ar
    70    97    96    2
    71    91    89   ar
    72   103   101   ar
    73    99   101   ar
    74    99    98    1
    75    95    96    1
    76    95    98    1
    77    95    94    1
    78    74    72   am
    79    82    81   ar
    80    90    89   ar
    81    87    86    2
    82    89    88    1
    83    94    86   am
    84    81    83   ar
    85    81    80    1
    86    86    85    1
    87    68    67    1
    88    68    71    1
    89    68    69    1
    90    72    71    1
    91    72    73    2
    92    80    79    1
    93    88    85    1
    94    85    84    1
    95    70    69    2
    96    78    77    2
    97    79    76    1
    98    77    76    1
    99    76    75    1
