@<TRIPOS>MOLECULE
tmp/4p0gA00.pdb
 167 161 0 0 0
SMALL
GASTEIGER

@<TRIPOS>ATOM
      1  N          4.9900  -21.9970  -17.4730 N.3   285  GLU285     -0.1245
      2  CA         4.3550  -23.3120  -17.5440 C.3   285  GLU285      0.1567
      3  C          4.8270  -24.1670  -18.7430 C.2   285  GLU285      0.2260
      4  O          5.0480  -25.3700  -18.5970 O.2   285  GLU285     -0.2867
      5  CB         2.8290  -23.1630  -17.5870 C.3   285  GLU285      0.0388
      6  CG         2.1920  -22.5460  -16.3300 C.3   285  GLU285      0.1160
      7  CD         2.2160  -23.4520  -15.1010 C.2   285  GLU285      0.3649
      8  OE1        2.8980  -24.4900  -15.1210 O.co2 285  GLU285     -0.2457
      9  OE2        1.5460  -23.1160  -14.1000 O.co2 285  GLU285     -0.2457
     10  N          3.7490  -32.1160  -18.6620 N.3   294  SER294     -0.1202
     11  CA         4.5430  -32.3030  -17.4490 C.3   294  SER294      0.2020
     12  C          4.6880  -33.7880  -17.1580 C.2   294  SER294      0.2619
     13  O          4.1190  -34.6260  -17.8540 O.2   294  SER294     -0.2717
     14  CB         3.8990  -31.6040  -16.2500 C.3   294  SER294      0.2103
     15  OG         2.8750  -32.4060  -15.6860 O.3   294  SER294     -0.2182
     16  N          5.4360  -34.1150  -16.1140 N.am  295  LYS295     -0.1965
     17  CA         5.6340  -35.5070  -15.7480 C.3   295  LYS295      0.1728
     18  C          4.3380  -36.1330  -15.2280 C.2   295  LYS295      0.2616
     19  O          4.1560  -37.3490  -15.2960 O.2   295  LYS295     -0.2715
     20  CB         6.7310  -35.6160  -14.6900 C.3   295  LYS295      0.0311
     21  CG         7.5750  -36.8680  -14.7920 C.3   295  LYS295      0.0038
     22  CD         8.8220  -36.7410  -13.9410 C.3   295  LYS295      0.0206
     23  CE         8.5020  -36.7270  -12.4520 C.3   295  LYS295      0.1093
     24  NZ         7.9730  -38.0380  -11.9880 N.3   295  LYS295     -0.1314
     25  N          3.4310  -35.2860  -14.7440 N.am  296  THR296     -0.1951
     26  CA         2.3140  -35.7310  -13.9160 C.3   296  THR296      0.1897
     27  C          0.9380  -35.6810  -14.5940 C.2   296  THR296      0.2313
     28  O         -0.0880  -35.7940  -13.9200 O.2   296  THR296     -0.2863
     29  CB         2.2490  -34.8830  -12.6310 C.3   296  THR296      0.1794
     30  OG1        2.2420  -33.4920  -12.9760 O.3   296  THR296     -0.2208
     31  CG2        3.4500  -35.1720  -11.7400 C.3   296  THR296      0.0378
     32  N         -0.3000  -33.1490  -16.4670 N.3   298  VAL298     -0.1245
     33  CA        -0.7440  -31.7870  -16.7300 C.3   298  VAL298      0.1561
     34  C         -0.3000  -31.4270  -18.1430 C.2   298  VAL298      0.2260
     35  O          0.8050  -31.7810  -18.5500 O.2   298  VAL298     -0.2867
     36  CB        -0.1710  -30.7930  -15.6980 C.3   298  VAL298      0.0252
     37  CG1       -0.8760  -29.4750  -15.7860 C.3   298  VAL298      0.0019
     38  CG2       -0.3060  -31.3500  -14.2850 C.3   298  VAL298      0.0019
     39  N         -0.7610  -25.3270  -18.7050 N.3   303  MET303     -0.1230
     40  CA        -0.5790  -26.4670  -17.8010 C.3   303  MET303      0.1702
     41  C         -1.7550  -26.6480  -16.8560 C.2   303  MET303      0.2592
     42  O         -1.6200  -26.5650  -15.6300 O.2   303  MET303     -0.2718
     43  CB         0.7150  -26.3000  -17.0040 C.3   303  MET303      0.0401
     44  CG         1.9260  -26.6410  -17.8140 C.3   303  MET303      0.0596
     45  SD         2.0070  -28.4140  -18.0610 S.3   303  MET303     -0.1393
     46  CE         2.6350  -28.4850  -19.6990 C.3   303  MET303      0.0692
     47  N         -2.9180  -26.8930  -17.4430 N.am  304  LEU304     -0.1966
     48  CA        -4.1240  -27.1590  -16.6770 C.3   304  LEU304      0.1728
     49  C         -4.2020  -28.6460  -16.3630 C.2   304  LEU304      0.2616
     50  O         -3.9290  -29.4840  -17.2200 O.2   304  LEU304     -0.2715
     51  CB        -5.3660  -26.7220  -17.4560 C.3   304  LEU304      0.0311
     52  CG        -5.3220  -25.3240  -18.0800 C.3   304  LEU304      0.0022
     53  CD1       -6.6300  -25.0160  -18.7870 C.3   304  LEU304      0.0001
     54  CD2       -5.0220  -24.2720  -17.0250 C.3   304  LEU304      0.0001
     55  N         -4.5520  -28.9650  -15.1270 N.am  305  THR305     -0.1951
     56  CA        -4.9360  -30.3240  -14.7890 C.3   305  THR305      0.1897
     57  C         -6.2520  -30.6120  -15.4820 C.2   305  THR305      0.2313
     58  O         -6.9470  -29.6890  -15.9110 O.2   305  THR305     -0.2863
     59  CB        -5.1040  -30.5170  -13.2880 C.3   305  THR305      0.1794
     60  OG1       -6.1740  -29.6890  -12.8250 O.3   305  THR305     -0.2208
     61  CG2       -3.8260  -30.1720  -12.5480 C.3   305  THR305      0.0378
     62  N         -8.8650  -31.6860  -14.0380 N.3   307  ARG307     -0.1231
     63  CA        -9.8820  -31.1640  -13.1290 C.3   307  ARG307      0.1694
     64  C        -10.1110  -29.6740  -13.3580 C.2   307  ARG307      0.2592
     65  O        -11.2510  -29.2050  -13.3990 O.2   307  ARG307     -0.2718
     66  CB        -9.4760  -31.4070  -11.6730 C.3   307  ARG307      0.0321
     67  CG       -10.5170  -30.9430  -10.6460 C.3   307  ARG307      0.0489
     68  CD        -9.8830  -30.1790   -9.4860 C.3   307  ARG307      0.2205
     69  NE        -9.3820  -28.8600   -9.8850 N.pl3 307  ARG307     -0.0865
     70  CZ       -10.1180  -27.7510   -9.9310 C.cat 307  ARG307      0.5346
     71  NH1      -11.4070  -27.7760   -9.6100 N.pl3 307  ARG307      0.1354
     72  NH2       -9.5610  -26.6060  -10.3060 N.pl3 307  ARG307      0.1354
     73  N         -9.0230  -28.9260  -13.4990 N.am  308  THR308     -0.1953
     74  CA        -9.1320  -27.4910  -13.7090 C.3   308  THR308      0.1897
     75  C         -9.7200  -27.1970  -15.0770 C.2   308  THR308      0.2313
     76  O        -10.5730  -26.3300  -15.1980 O.2   308  THR308     -0.2863
     77  CB        -7.7730  -26.8060  -13.5470 C.3   308  THR308      0.1794
     78  OG1       -7.3720  -26.9300  -12.1790 O.3   308  THR308     -0.2208
     79  CG2       -7.8400  -25.3190  -13.9250 C.3   308  THR308      0.0378
     80  N         -9.0240  -19.1690  -14.5150 N.3   330  TYR330     -0.1241
     81  CA        -8.7240  -19.8350  -13.2560 C.3   330  TYR330      0.1605
     82  C         -7.8960  -18.9400  -12.3380 C.2   330  TYR330      0.2264
     83  O         -8.2130  -18.7860  -11.1530 O.2   330  TYR330     -0.2867
     84  CB        -7.9920  -21.1500  -13.5140 C.3   330  TYR330      0.0534
     85  CG        -7.7810  -21.9850  -12.2700 C.ar  330  TYR330     -0.0201
     86  CD1       -8.8600  -22.4490  -11.5300 C.ar  330  TYR330     -0.0009
     87  CD2       -6.5100  -22.3330  -11.8560 C.ar  330  TYR330     -0.0009
     88  CE1       -8.6680  -23.2240  -10.3940 C.ar  330  TYR330      0.0417
     89  CE2       -6.3080  -23.1050  -10.7350 C.ar  330  TYR330      0.0417
     90  CZ        -7.3870  -23.5470  -10.0050 C.ar  330  TYR330      0.1957
     91  OH        -7.1620  -24.3130   -8.8870 O.3   330  TYR330     -0.2866
     92  N         -1.2710  -19.9120   -5.5020 N.3   354  ALA354     -0.1231
     93  CA        -2.4400  -20.7880   -5.5150 C.3   354  ALA354      0.1694
     94  C         -2.6210  -21.4730   -6.8670 C.2   354  ALA354      0.2592
     95  O         -3.0670  -22.6210   -6.9310 O.2   354  ALA354     -0.2718
     96  CB        -3.6780  -20.0050   -5.1540 C.3   354  ALA354      0.0304
     97  N         -2.2760  -20.7750   -7.9450 N.am  355  TYR355     -0.1962
     98  CA        -2.3510  -21.3570   -9.2820 C.3   355  TYR355      0.1771
     99  C         -1.5460  -22.6480   -9.3140 C.2   355  TYR355      0.2620
    100  O         -1.9520  -23.6480   -9.9140 O.2   355  TYR355     -0.2715
    101  CB        -1.8230  -20.3600  -10.3300 C.3   355  TYR355      0.0574
    102  CG        -2.0430  -20.7650  -11.7760 C.ar  355  TYR355     -0.0198
    103  CD1       -1.1150  -21.5520  -12.4490 C.ar  355  TYR355     -0.0009
    104  CD2       -3.1720  -20.3590  -12.4650 C.ar  355  TYR355     -0.0009
    105  CE1       -1.3060  -21.9190  -13.7710 C.ar  355  TYR355      0.0417
    106  CE2       -3.3750  -20.7290  -13.7910 C.ar  355  TYR355      0.0417
    107  CZ        -2.4390  -21.5110  -14.4290 C.ar  355  TYR355      0.1957
    108  OH        -2.6290  -21.8790  -15.7480 O.3   355  TYR355     -0.2866
    109  N         -0.4030  -22.6180   -8.6460 N.am  356  ASN356     -0.1958
    110  CA         0.5440  -23.7150   -8.6760 C.3   356  ASN356      0.1819
    111  C          0.3180  -24.7700   -7.5900 C.2   356  ASN356      0.2621
    112  O          0.4780  -25.9590   -7.8490 O.2   356  ASN356     -0.2715
    113  CB         1.9630  -23.1540   -8.5620 C.3   356  ASN356      0.1195
    114  CG         3.0170  -24.2300   -8.6060 C.2   356  ASN356      0.2630
    115  OD1        3.5950  -24.5800   -7.5830 O.2   356  ASN356     -0.2716
    116  ND2        3.2650  -24.7770   -9.7950 N.am  356  ASN356     -0.0877
    117  N         -0.0500  -24.3380   -6.3840 N.am  357  ILE357     -0.1963
    118  CA        -0.0870  -25.2450   -5.2350 C.3   357  ILE357      0.1727
    119  C         -1.4940  -25.4630   -4.6680 C.2   357  ILE357      0.2617
    120  O         -1.6980  -26.3530   -3.8350 O.2   357  ILE357     -0.2715
    121  CB         0.8480  -24.7260   -4.1060 C.3   357  ILE357      0.0290
    122  CG1        1.3850  -25.9000   -3.2770 C.3   357  ILE357      0.0022
    123  CG2        0.1550  -23.6760   -3.2360 C.3   357  ILE357      0.0023
    124  CD1        2.4150  -25.5070   -2.2410 C.3   357  ILE357      0.0001
    125  N         -2.4550  -24.6620   -5.1190 N.am  358  GLY358     -0.1940
    126  CA        -3.8210  -24.7310   -4.6230 C.3   358  GLY358      0.2014
    127  C         -4.0480  -23.8900   -3.3790 C.2   358  GLY358      0.2639
    128  O         -3.1280  -23.6430   -2.6010 O.2   358  GLY358     -0.2714
    129  N         -5.2890  -23.4510   -3.1900 N.am  359  GLY359     -0.1939
    130  CA        -5.6310  -22.5870   -2.0770 C.3   359  GLY359      0.2014
    131  C         -5.4710  -23.2370   -0.7120 C.2   359  GLY359      0.2639
    132  O         -5.1740  -22.5580    0.2670 O.2   359  GLY359     -0.2714
    133  N         -5.6700  -24.5490   -0.6430 N.am  360  ALA360     -0.1963
    134  CA        -5.5980  -25.2680    0.6310 C.3   360  ALA360      0.1728
    135  C         -4.1750  -25.2700    1.1930 C.2   360  ALA360      0.2616
    136  O         -3.9470  -24.8830    2.3400 O.2   360  ALA360     -0.2715
    137  CB        -6.1000  -26.6890    0.4580 C.3   360  ALA360      0.0334
    138  N         -3.2140  -25.7160    0.3950 N.am  361  HIS361     -0.1973
    139  CA        -1.8250  -25.7210    0.8330 C.3   361  HIS361      0.1656
    140  C         -1.3620  -24.2850    1.1010 C.2   361  HIS361      0.2291
    141  O         -0.5910  -24.0360    2.0200 O.2   361  HIS361     -0.2864
    142  CB        -0.9150  -26.3860   -0.2140 C.3   361  HIS361      0.0771
    143  CG        -1.1750  -27.8540   -0.4200 C.ar  361  HIS361      0.0820
    144  ND1       -1.0520  -28.7820    0.5900 N.ar  361  HIS361     -0.2267
    145  CD2       -1.5180  -28.5540   -1.5320 C.ar  361  HIS361      0.1154
    146  CE1       -1.3290  -29.9880    0.1180 C.ar  361  HIS361      0.1986
    147  NE2       -1.6120  -29.8790   -1.1700 N.ar  361  HIS361     -0.2212
    148  N          4.7140  -29.3970   -2.6750 N.3   404  ARG404     -0.1245
    149  CA         5.9940  -28.9990   -3.2450 C.3   404  ARG404      0.1563
    150  C          6.1460  -27.4800   -3.1940 C.2   404  ARG404      0.2260
    151  O          6.1610  -26.8000   -4.2210 O.2   404  ARG404     -0.2867
    152  CB         6.1040  -29.5220   -4.6760 C.3   404  ARG404      0.0307
    153  CG         5.8330  -31.0200   -4.7790 C.3   404  ARG404      0.0489
    154  CD         5.8240  -31.4990   -6.2120 C.3   404  ARG404      0.2205
    155  NE         7.0050  -32.3050   -6.5090 N.pl3 404  ARG404     -0.0865
    156  CZ         7.6800  -32.2710   -7.6550 C.cat 404  ARG404      0.5346
    157  NH1        7.3100  -31.4600   -8.6400 N.pl3 404  ARG404      0.1354
    158  NH2        8.7430  -33.0480   -7.8150 N.pl3 404  ARG404      0.1354
    159  N          8.9430  -25.5870   -5.1870 N.3   407  GLU407     -0.1245
    160  CA         8.5710  -25.4050   -6.5990 C.3   407  GLU407      0.1567
    161  C          7.7330  -24.1550   -6.7550 C.2   407  GLU407      0.2260
    162  O          7.8930  -23.3870   -7.7010 O.2   407  GLU407     -0.2867
    163  CB         7.7750  -26.6150   -7.1430 C.3   407  GLU407      0.0388
    164  CG         7.2150  -26.4210   -8.5890 C.3   407  GLU407      0.1160
    165  CD         6.1550  -27.4450   -9.0160 C.2   407  GLU407      0.3649
    166  OE1        5.2430  -27.0700   -9.7920 O.co2 407  GLU407     -0.2457
    167  OE2        6.2350  -28.6240   -8.6100 O.co2 407  GLU407     -0.2457
@<TRIPOS>BOND
     1    46    45    1
     2    53    52    1
     3     3     4    2
     4     3     2    1
     5    39    40    1
     6    10    11    1
     7    35    34    2
     8    34    33    1
     9    52    51    1
    10    52    54    1
    11    45    44    1
    12    13    12    2
    13    44    43    1
    14    40    43    1
    15    40    41    1
    16     5     2    1
    17     5     6    1
    18     2     1    1
    19    51    48    1
    20    11    12    1
    21    11    14    1
    22    47    41   am
    23    47    48    1
    24    50    49    2
    25    12    16   am
    26    41    42    2
    27    33    32    1
    28    33    36    1
    29    48    49    1
    30    49    55   am
    31     6     7    1
    32    14    15    1
    33    16    17    1
    34    58    57    2
    35    37    36    1
    36    17    18    1
    37    17    20    1
    38   108   107    1
    39    36    38    1
    40    57    56    1
    41    19    18    2
    42    18    25   am
    43    76    75    2
    44    55    56    1
    45     8     7   ar
    46     7     9   ar
    47    75    74    1
    48    21    20    1
    49    21    22    1
    50    56    59    1
    51    25    26    1
    52    27    28    2
    53    27    26    1
    54    80    81    1
    55   107   106   ar
    56   107   105   ar
    57    62    63    1
    58    22    23    1
    59    79    77    1
    60    26    29    1
    61   106   104   ar
    62   105   103   ar
    63    74    77    1
    64    74    73    1
    65    77    78    1
    66    84    81    1
    67    84    85    1
    68    73    64   am
    69    65    64    2
    70    64    63    1
    71    59    60    1
    72    59    61    1
    73    81    82    1
    74    63    66    1
    75    30    29    1
    76    29    31    1
    77   104   102   ar
    78    23    24    1
    79   103   102   ar
    80    82    83    2
    81    85    87   ar
    82    85    86   ar
    83    87    89   ar
    84   102   101    1
    85    66    67    1
    86    86    88   ar
    87    89    90   ar
    88    67    68    1
    89    88    90   ar
    90   101    98    1
    91    72    70    1
    92    90    91    1
    93    70    69    2
    94    70    71    1
    95   100    99    2
    96    69    68    1
    97   116   114   am
    98   166   165   ar
    99    99    98    1
   100    99   109   am
   101    98    97    1
   102   165   167   ar
   103   165   164    1
   104   110   109    1
   105   110   113    1
   106   110   111    1
   107   157   156    1
   108   114   113    1
   109   114   115    2
   110   164   163    1
   111    97    94   am
   112   112   111    2
   113   158   156    1
   114   162   161    2
   115   156   155    2
   116   111   117   am
   117   163   160    1
   118    95    94    2
   119    94    93    1
   120   161   160    1
   121   160   159    1
   122   155   154    1
   123   117   118    1
   124   154   153    1
   125    93    92    1
   126    93    96    1
   127   118   119    1
   128   118   121    1
   129   125   119   am
   130   125   126    1
   131   153   152    1
   132   152   149    1
   133   119   120    2
   134   126   127    1
   135   151   150    2
   136   121   122    1
   137   121   123    1
   138   127   129   am
   139   127   128    2
   140   122   124    1
   141   149   150    1
   142   149   148    1
   143   129   130    1
   144   130   131    1
   145   145   147   ar
   146   145   143   ar
   147   147   146   ar
   148   131   133   am
   149   131   132    2
   150   133   134    1
   151   143   142    1
   152   143   144   ar
   153   142   139    1
   154   146   144   ar
   155   138   139    1
   156   138   135   am
   157   137   134    1
   158   134   135    1
   159   139   140    1
   160   140   141    2
   161   135   136    2
