@<TRIPOS>MOLECULE
tmp/4p0nA00.pdb
 166 161 0 0 0
SMALL
GASTEIGER

@<TRIPOS>ATOM
      1  N         32.9760   32.5230   78.8280 N.3    62  TYR62      -0.1241
      2  CA        32.8910   31.4520   77.8250 C.3    62  TYR62       0.1605
      3  C         33.2220   31.8740   76.3900 C.2    62  TYR62       0.2264
      4  O         34.0440   31.2320   75.7480 O.2    62  TYR62      -0.2867
      5  CB        31.5180   30.7730   77.8660 C.3    62  TYR62       0.0534
      6  CG        31.3670   29.6770   76.8300 C.ar   62  TYR62      -0.0201
      7  CD1       31.9080   28.4100   77.0410 C.ar   62  TYR62      -0.0009
      8  CD2       30.7000   29.9130   75.6310 C.ar   62  TYR62      -0.0009
      9  CE1       31.7770   27.4080   76.0900 C.ar   62  TYR62       0.0417
     10  CE2       30.5660   28.9200   74.6750 C.ar   62  TYR62       0.0417
     11  CZ        31.1030   27.6700   74.9070 C.ar   62  TYR62       0.1957
     12  OH        30.9640   26.6820   73.9530 O.3    62  TYR62      -0.2866
     13  N         22.7480   29.8510   66.2250 N.3   173  LEU173     -0.1245
     14  CA        22.0350   28.6000   66.4870 C.3   173  LEU173      0.1561
     15  C         20.5760   28.6420   66.0220 C.2   173  LEU173      0.2260
     16  O         20.0150   27.6110   65.6540 O.2   173  LEU173     -0.2867
     17  CB        22.1040   28.2350   67.9760 C.3   173  LEU173      0.0270
     18  CG        21.6490   26.8160   68.3360 C.3   173  LEU173      0.0019
     19  CD1       22.5910   25.7760   67.7420 C.3   173  LEU173      0.0001
     20  CD2       21.5400   26.6490   69.8450 C.3   173  LEU173      0.0001
     21  N         31.0950   24.5930   66.9500 N.3   212  ASP212     -0.1225
     22  CA        30.6920   25.5840   67.9390 C.3   212  ASP212      0.1805
     23  C         30.2190   24.9440   69.2480 C.2   212  ASP212      0.2597
     24  O         30.5510   25.4180   70.3290 O.2   212  ASP212     -0.2718
     25  CB        29.5930   26.4900   67.3700 C.3   212  ASP212      0.1424
     26  CG        29.4420   27.7800   68.1460 C.2   212  ASP212      0.3668
     27  OD1       30.3900   28.1660   68.8530 O.co2 212  ASP212     -0.2456
     28  OD2       28.3730   28.4090   68.0520 O.co2 212  ASP212     -0.2456
     29  N         29.4890   23.8510   69.1530 N.am  213  LEU213     -0.1979
     30  CA        28.9540   23.1630   70.3050 C.3   213  LEU213      0.1596
     31  C         29.8710   22.1020   70.8830 C.2   213  LEU213      0.2287
     32  O         29.4940   21.4050   71.7500 O.2   213  LEU213     -0.2864
     33  CB        27.6040   22.5290   69.9770 C.3   213  LEU213      0.0297
     34  CG        26.4970   23.4260   69.4720 C.3   213  LEU213      0.0022
     35  CD1       25.2450   22.7000   69.1100 C.3   213  LEU213      0.0001
     36  CD2       26.2290   24.5600   70.4080 C.3   213  LEU213      0.0001
     37  N         31.9590   21.6030   73.0140 N.3   215  SER215     -0.1202
     38  CA        32.0430   21.4050   74.4600 C.3   215  SER215      0.2020
     39  C         31.3550   20.1000   74.8830 C.2   215  SER215      0.2618
     40  O         31.8890   19.3470   75.6970 O.2   215  SER215     -0.2717
     41  CB        31.4160   22.5850   75.2050 C.3   215  SER215      0.2103
     42  OG        31.2070   22.2600   76.5690 O.3   215  SER215     -0.2182
     43  N         30.1920   19.8230   74.2950 N.am  216  VAL216     -0.1979
     44  CA        29.4220   18.6110   74.6220 C.3   216  VAL216      0.1595
     45  C         30.0160   17.3160   74.0480 C.2   216  VAL216      0.2287
     46  O         29.4600   16.2360   74.2580 O.2   216  VAL216     -0.2864
     47  CB        27.9480   18.7280   74.1670 C.3   216  VAL216      0.0276
     48  CG1       27.3190   20.0060   74.7090 C.3   216  VAL216      0.0022
     49  CG2       27.8240   18.6510   72.6480 C.3   216  VAL216      0.0022
     50  N         29.7750   28.4720   80.8800 N.3   230  ILE230     -0.1231
     51  CA        28.6070   28.8030   80.0630 C.3   230  ILE230      0.1692
     52  C         27.5070   29.4360   80.9160 C.2   230  ILE230      0.2592
     53  O         26.8930   30.4260   80.5100 O.2   230  ILE230     -0.2718
     54  CB        28.0560   27.5550   79.3350 C.3   230  ILE230      0.0266
     55  CG1       29.0890   27.0230   78.3380 C.3   230  ILE230      0.0019
     56  CG2       26.7640   27.8770   78.5990 C.3   230  ILE230      0.0020
     57  CD1       28.9180   25.5610   78.0060 C.3   230  ILE230      0.0001
     58  N         27.2720   28.8640   82.0950 N.am  231  TYR231     -0.1976
     59  CA        26.2570   29.3820   83.0120 C.3   231  TYR231      0.1639
     60  C         26.6690   30.7070   83.6520 C.2   231  TYR231      0.2290
     61  O         25.8130   31.5440   83.9420 O.2   231  TYR231     -0.2864
     62  CB        25.9120   28.3540   84.0920 C.3   231  TYR231      0.0560
     63  CG        25.0480   27.2180   83.5880 C.ar  231  TYR231     -0.0198
     64  CD1       23.7610   27.4540   83.1030 C.ar  231  TYR231     -0.0009
     65  CD2       25.5120   25.9080   83.6000 C.ar  231  TYR231     -0.0009
     66  CE1       22.9690   26.4160   82.6400 C.ar  231  TYR231      0.0417
     67  CE2       24.7280   24.8660   83.1400 C.ar  231  TYR231      0.0417
     68  CZ        23.4610   25.1240   82.6620 C.ar  231  TYR231      0.1957
     69  OH        22.6970   24.0790   82.2100 O.3   231  TYR231     -0.2866
     70  N         25.4210   32.9710   80.9890 N.3   234  PHE234     -0.1227
     71  CA        23.9570   32.9440   80.9360 C.3   234  PHE234      0.1736
     72  C         23.3120   33.6130   82.1480 C.2   234  PHE234      0.2595
     73  O         22.3660   34.3850   81.9980 O.2   234  PHE234     -0.2718
     74  CB        23.4250   31.5060   80.8370 C.3   234  PHE234      0.0547
     75  CG        23.6470   30.8390   79.5010 C.ar  234  PHE234     -0.0202
     76  CD1       23.9400   31.5670   78.3480 C.ar  234  PHE234     -0.0042
     77  CD2       23.5160   29.4590   79.3950 C.ar  234  PHE234     -0.0042
     78  CE1       24.1270   30.9250   77.1340 C.ar  234  PHE234     -0.0003
     79  CE2       23.6940   28.8170   78.1830 C.ar  234  PHE234     -0.0003
     80  CZ        24.0020   29.5510   77.0500 C.ar  234  PHE234     -0.0000
     81  N         23.8060   33.3030   83.3430 N.am  235  TRP235     -0.1976
     82  CA        23.2220   33.8540   84.5690 C.3   235  TRP235      0.1640
     83  C         23.4430   35.3640   84.6510 C.2   235  TRP235      0.2290
     84  O         22.5610   36.0940   85.1060 O.2   235  TRP235     -0.2864
     85  CB        23.7480   33.1330   85.8170 C.3   235  TRP235      0.0576
     86  CG        23.3250   31.6790   85.8920 C.ar  235  TRP235      0.0006
     87  CD1       22.2200   31.1150   85.3160 C.ar  235  TRP235      0.0946
     88  CD2       23.9870   30.6200   86.6020 C.ar  235  TRP235      0.0152
     89  NE1       22.1640   29.7770   85.6050 N.ar  235  TRP235     -0.2442
     90  CE2       23.2310   29.4460   86.3980 C.ar  235  TRP235      0.0810
     91  CE3       25.1460   30.5500   87.3870 C.ar  235  TRP235      0.0012
     92  CZ2       23.5990   28.2120   86.9430 C.ar  235  TRP235      0.0191
     93  CZ3       25.5120   29.3240   87.9290 C.ar  235  TRP235      0.0001
     94  CH2       24.7390   28.1710   87.7050 C.ar  235  TRP235      0.0015
     95  N         14.3750   30.2520   82.3580 N.3   250  PRO250     -0.2102
     96  CA        15.0280   29.5090   83.4430 C.3   250  PRO250      0.1504
     97  C         16.5240   29.2370   83.2470 C.2   250  PRO250      0.2575
     98  O         17.2820   29.3010   84.2120 O.2   250  PRO250     -0.2718
     99  CB        14.2440   28.1950   83.4800 C.3   250  PRO250      0.0282
    100  CG        12.8830   28.5760   83.0160 C.3   250  PRO250      0.0208
    101  CD        13.1070   29.6140   81.9540 C.3   250  PRO250      0.0893
    102  N         16.9400   28.9470   82.0160 N.am  251  MET251     -0.1980
    103  CA        18.3550   28.6930   81.7070 C.3   251  MET251      0.1605
    104  C         19.2680   29.8430   82.1390 C.2   251  MET251      0.2287
    105  O         20.4030   29.6220   82.5680 O.2   251  MET251     -0.2864
    106  CB        18.5320   28.4470   80.2060 C.3   251  MET251      0.0413
    107  CG        19.9530   28.0930   79.7920 C.3   251  MET251      0.0598
    108  SD        20.1160   27.8280   78.0200 S.3   251  MET251     -0.1393
    109  CE        20.0710   29.5110   77.4160 C.3   251  MET251      0.0692
    110  N         18.3530   32.0400   84.4920 N.3   253  ASP253     -0.1239
    111  CA        17.9610   32.4410   85.8380 C.3   253  ASP253      0.1674
    112  C         18.8000   31.7360   86.9040 C.2   253  ASP253      0.2266
    113  O         18.6200   30.5520   87.1850 O.2   253  ASP253     -0.2867
    114  CB        16.4680   32.1840   86.0760 C.3   253  ASP253      0.1410
    115  CG        15.9280   32.9460   87.2790 C.2   253  ASP253      0.3668
    116  OD1       16.7160   33.2980   88.1850 O.co2 253  ASP253     -0.2456
    117  OD2       14.7100   33.2010   87.3180 O.co2 253  ASP253     -0.2456
    118  N         17.3090   29.3830   89.5140 N.3   256  LYS256     -0.1245
    119  CA        16.8370   28.0580   89.1160 C.3   256  LYS256      0.1561
    120  C         17.9860   27.0920   88.8020 C.2   256  LYS256      0.2260
    121  O         17.8940   26.2960   87.8670 O.2   256  LYS256     -0.2867
    122  CB        15.8960   28.1870   87.9160 C.3   256  LYS256      0.0271
    123  CG        14.6840   29.0620   88.1950 C.3   256  LYS256      0.0035
    124  CD        13.5650   28.8070   87.1990 C.3   256  LYS256      0.0206
    125  CE        12.2550   29.4290   87.6520 C.3   256  LYS256      0.1093
    126  NZ        12.2580   30.9060   87.4880 N.3   256  LYS256     -0.1314
    127  N         17.6080   23.1380   88.2750 N.3   259  GLU259     -0.1231
    128  CA        17.0650   22.6420   87.0070 C.3   259  GLU259      0.1699
    129  C         18.1300   22.3990   85.9240 C.2   259  GLU259      0.2592
    130  O         17.7900   22.0300   84.7980 O.2   259  GLU259     -0.2718
    131  CB        15.9960   23.6090   86.4870 C.3   259  GLU259      0.0402
    132  CG        14.7730   23.7010   87.3890 C.3   259  GLU259      0.1161
    133  CD        13.8030   24.7910   86.9750 C.2   259  GLU259      0.3649
    134  OE1       13.1560   25.3760   87.8710 O.co2 259  GLU259     -0.2457
    135  OE2       13.6810   25.0650   85.7630 O.co2 259  GLU259     -0.2457
    136  N         19.4050   22.5950   86.2670 N.am  260  VAL260     -0.1980
    137  CA        20.5140   22.4210   85.3180 C.3   260  VAL260      0.1595
    138  C         20.5730   21.0140   84.7020 C.2   260  VAL260      0.2287
    139  O         20.6020   20.8900   83.4770 O.2   260  VAL260     -0.2864
    140  CB        21.8740   22.8170   85.9600 C.3   260  VAL260      0.0276
    141  CG1       23.0560   22.2130   85.2080 C.3   260  VAL260      0.0022
    142  CG2       22.0030   24.3340   86.0240 C.3   260  VAL260      0.0022
    143  N         17.6980   20.5860   82.3220 N.3   263  GLY263     -0.1210
    144  CA        17.9040   21.5250   81.2260 C.3   263  GLY263      0.1956
    145  C         18.9250   21.0190   80.2210 C.2   263  GLY263      0.2611
    146  O         18.7280   21.1390   79.0160 O.2   263  GLY263     -0.2717
    147  N         20.0140   20.4480   80.7300 N.am  264  GLN264     -0.1979
    148  CA        21.0580   19.8580   79.8920 C.3   264  GLN264      0.1601
    149  C         20.5170   18.6770   79.0840 C.2   264  GLN264      0.2287
    150  O         20.7280   18.6090   77.8710 O.2   264  GLN264     -0.2864
    151  CB        22.2480   19.4140   80.7520 C.3   264  GLN264      0.0394
    152  CG        23.0590   20.5650   81.3400 C.3   264  GLN264      0.0908
    153  CD        24.1310   21.1050   80.4010 C.2   264  GLN264      0.2608
    154  OE1       24.5470   20.4400   79.4540 O.2   264  GLN264     -0.2717
    155  NE2       24.5950   22.3160   80.6760 N.am  264  GLN264     -0.0878
    156  N         18.6020   19.7990   76.0950 N.3   267  PHE267     -0.1241
    157  CA        19.4650   20.3510   75.0480 C.3   267  PHE267      0.1605
    158  C         20.1430   19.2600   74.2320 C.2   267  PHE267      0.2264
    159  O         20.1970   19.3440   73.0060 O.2   267  PHE267     -0.2867
    160  CB        20.5310   21.2470   75.6750 C.3   267  PHE267      0.0534
    161  CG        21.4830   21.8630   74.6860 C.ar  267  PHE267     -0.0203
    162  CD1       21.1350   23.0140   73.9920 C.ar  267  PHE267     -0.0042
    163  CD2       22.7460   21.3170   74.4820 C.ar  267  PHE267     -0.0042
    164  CE1       22.0160   23.5950   73.0940 C.ar  267  PHE267     -0.0003
    165  CE2       23.6280   21.8920   73.5830 C.ar  267  PHE267     -0.0003
    166  CZ        23.2640   23.0360   72.8890 C.ar  267  PHE267     -0.0000
@<TRIPOS>BOND
     1    16    15    2
     2    15    14    1
     3    13    14    1
     4    14    17    1
     5    21    22    1
     6    25    22    1
     7    25    26    1
     8    19    18    1
     9    22    23    1
    10    17    18    1
    11    28    26   ar
    12    26    27   ar
    13    18    20    1
    14    35    34    1
    15    29    23   am
    16    29    30    1
    17    23    24    2
    18    34    33    1
    19    34    36    1
    20    33    30    1
    21    30    31    1
    22    31    32    2
    23    49    47    1
    24   166   164   ar
    25   166   165   ar
    26   159   158    2
    27    37    38    1
    28   164   162   ar
    29   165   163   ar
    30    12    11    1
    31   162   161   ar
    32    45    46    2
    33    45    44    1
    34    47    44    1
    35    47    48    1
    36   158   157    1
    37    43    44    1
    38    43    39   am
    39    38    39    1
    40    38    41    1
    41   163   161   ar
    42    10    11   ar
    43    10     8   ar
    44   161   160    1
    45    39    40    2
    46    11     9   ar
    47   157   160    1
    48   157   156    1
    49    41    42    1
    50     8     6   ar
    51     4     3    2
    52     9     7   ar
    53     3     2    1
    54     6     7   ar
    55     6     5    1
    56    80    78   ar
    57    80    79   ar
    58    78    76   ar
    59   109   108    1
    60     2     5    1
    61     2     1    1
    62   150   149    2
    63    57    55    1
    64   108   107    1
    65    79    77   ar
    66    55    54    1
    67    76    75   ar
    68    56    54    1
    69   146   145    2
    70   149   148    1
    71    54    51    1
    72    77    75   ar
    73   154   153    2
    74    75    74    1
    75   107   106    1
    76   148   147    1
    77   148   151    1
    78    51    50    1
    79    51    52    1
    80   106   103    1
    81   145   147   am
    82   145   144    1
    83   153   155   am
    84   153   152    1
    85    53    52    2
    86   151   152    1
    87    74    71    1
    88    52    58   am
    89    71    70    1
    90    71    72    1
    91   144   143    1
    92   103   102    1
    93   103   104    1
    94   101    95    1
    95   101   100    1
    96    73    72    2
    97   102    97   am
    98    58    59    1
    99   104   105    2
   100    72    81   am
   101    69    68    1
   102    95    96    1
   103    66    68   ar
   104    66    64   ar
   105    68    67   ar
   106    59    60    1
   107    59    62    1
   108   100    99    1
   109    64    63   ar
   110    67    65   ar
   111    97    96    1
   112    97    98    2
   113    81    82    1
   114    96    99    1
   115   139   138    2
   116    63    65   ar
   117    63    62    1
   118    60    61    2
   119   110   111    1
   120    82    83    1
   121    82    85    1
   122    83    84    2
   123   138   137    1
   124   130   129    2
   125   141   140    1
   126    87    89   ar
   127    87    86   ar
   128   137   140    1
   129   137   136    1
   130    89    90   ar
   131   135   133   ar
   132    85    86    1
   133   111   114    1
   134   111   112    1
   135    86    88   ar
   136   129   136   am
   137   129   128    1
   138   140   142    1
   139   114   115    1
   140    90    88   ar
   141    90    92   ar
   142   131   128    1
   143   131   132    1
   144    88    91   ar
   145   112   113    2
   146    92    94   ar
   147   133   132    1
   148   133   134   ar
   149   128   127    1
   150   124   125    1
   151   124   123    1
   152   115   117   ar
   153   115   116   ar
   154    91    93   ar
   155   126   125    1
   156    94    93   ar
   157   121   120    2
   158   122   123    1
   159   122   119    1
   160   120   119    1
   161   119   118    1
