@<TRIPOS>MOLECULE
tmp/4p0wA00.pdb
 215 205 0 0 0
SMALL
GASTEIGER

@<TRIPOS>ATOM
      1  N         31.1950   -3.8010   -7.2520 N.3    10  PHE10      -0.1241
      2  CA        30.3850   -2.6740   -6.8050 C.3    10  PHE10       0.1605
      3  C         30.7740   -1.4060   -7.5770 C.2    10  PHE10       0.2264
      4  O         29.9020   -0.6640   -8.0740 O.2    10  PHE10      -0.2867
      5  CB        30.5070   -2.5040   -5.2790 C.3    10  PHE10       0.0534
      6  CG        29.9150   -1.2350   -4.7580 C.ar   10  PHE10      -0.0203
      7  CD1       28.5560   -1.1310   -4.5310 C.ar   10  PHE10      -0.0042
      8  CD2       30.7160   -0.1530   -4.4590 C.ar   10  PHE10      -0.0042
      9  CE1       27.9940    0.0480   -4.0460 C.ar   10  PHE10      -0.0003
     10  CE2       30.1600    1.0310   -3.9550 C.ar   10  PHE10      -0.0003
     11  CZ        28.7980    1.1210   -3.7490 C.ar   10  PHE10      -0.0000
     12  N         31.5170   11.2890   -6.2290 N.3    46  ALA46      -0.1245
     13  CA        31.2460    9.8970   -5.8190 C.3    46  ALA46       0.1562
     14  C         32.3970    8.8470   -5.8990 C.2    46  ALA46       0.2260
     15  O         32.3470    7.8140   -5.2220 O.2    46  ALA46      -0.2867
     16  CB        30.0550    9.3880   -6.5910 C.3    46  ALA46       0.0290
     17  N         36.8520    7.2790   -3.0520 N.3    49  GLY49      -0.1210
     18  CA        36.8900    6.9180   -1.6600 C.3    49  GLY49       0.1956
     19  C         36.9900    5.4180   -1.5040 C.2    49  GLY49       0.2612
     20  O         37.1750    4.7310   -2.4740 O.2    49  GLY49      -0.2717
     21  N         36.8280    4.9270   -0.2770 N.am   50  LYS50      -0.1965
     22  CA        36.9210    3.5120    0.0330 C.3    50  LYS50       0.1728
     23  C         35.6010    2.7400   -0.1380 C.2    50  LYS50       0.2616
     24  O         35.5880    1.5320    0.0150 O.2    50  LYS50      -0.2715
     25  CB        37.3840    3.3350    1.4940 C.3    50  LYS50       0.0311
     26  CG        38.6020    4.1610    1.9040 C.3    50  LYS50       0.0038
     27  CD        38.8970    4.1720    3.4150 C.3    50  LYS50       0.0206
     28  CE        37.7040    4.4150    4.3650 C.3    50  LYS50       0.1093
     29  NZ        37.5660    5.7680    5.0370 N.3    50  LYS50      -0.1314
     30  N         34.4920    3.4240   -0.3840 N.am   51  TYR51      -0.1960
     31  CA        33.1840    2.7790   -0.5900 C.3    51  TYR51       0.1771
     32  C         32.6450    1.9060    0.5060 C.2    51  TYR51       0.2620
     33  O         31.6830    1.1320    0.2720 O.2    51  TYR51      -0.2715
     34  CB        33.1400    2.0020   -1.8950 C.3    51  TYR51       0.0574
     35  CG        33.8280    2.7450   -2.9870 C.ar   51  TYR51      -0.0198
     36  CD1       33.2500    3.8940   -3.5130 C.ar   51  TYR51      -0.0009
     37  CD2       35.0620    2.3260   -3.4870 C.ar   51  TYR51      -0.0009
     38  CE1       33.8570    4.5930   -4.5410 C.ar   51  TYR51       0.0417
     39  CE2       35.6980    3.0340   -4.5100 C.ar   51  TYR51       0.0417
     40  CZ        35.0890    4.1700   -5.0300 C.ar   51  TYR51       0.1957
     41  OH        35.6740    4.9230   -6.0230 O.3    51  TYR51      -0.2866
     42  N         33.1650    2.0520    1.7190 N.am   52  ASN52      -0.1958
     43  CA        32.7740    1.1310    2.7430 C.3    52  ASN52       0.1819
     44  C         31.3030    1.1660    3.1010 C.2    52  ASN52       0.2621
     45  O         30.7280    0.1520    3.4970 O.2    52  ASN52      -0.2715
     46  CB        33.6230    1.3160    3.9850 C.3    52  ASN52       0.1195
     47  CG        35.0730    0.9240    3.7530 C.2    52  ASN52       0.2630
     48  OD1       35.3920    0.2930    2.7550 O.2    52  ASN52      -0.2716
     49  ND2       35.9560    1.3380    4.6560 N.am   52  ASN52      -0.0877
     50  N         30.6840    2.3310    3.0120 N.am   53  ARG53      -0.1963
     51  CA        29.2730    2.4690    3.4560 C.3    53  ARG53       0.1729
     52  C         28.3660    1.8530    2.4290 C.2    53  ARG53       0.2616
     53  O         27.3680    1.1860    2.7660 O.2    53  ARG53      -0.2715
     54  CB        28.8850    3.9300    3.7980 C.3    53  ARG53       0.0348
     55  CG        29.8700    4.7520    4.6520 C.3    53  ARG53       0.0492
     56  CD        30.7020    3.9390    5.6910 C.3    53  ARG53       0.2205
     57  NE        32.1720    4.0870    5.5280 N.pl3  53  ARG53      -0.0865
     58  CZ        33.1400    3.4740    6.2420 C.cat  53  ARG53       0.5346
     59  NH1       34.4240    3.7290    5.9260 N.pl3  53  ARG53       0.1354
     60  NH2       32.8580    2.6310    7.2500 N.pl3  53  ARG53       0.1354
     61  N         28.7540    1.9890    1.1660 N.am   54  GLY54      -0.1955
     62  CA        27.9520    1.4730    0.0720 C.3    54  GLY54       0.1869
     63  C         28.1890   -0.0170   -0.0280 C.2    54  GLY54       0.2309
     64  O         27.2620   -0.8080   -0.2020 O.2    54  GLY54      -0.2863
     65  N         25.0660    2.3360   -3.7870 N.3    83  TRP83      -0.1241
     66  CA        25.3770    3.6120   -4.4010 C.3    83  TRP83       0.1605
     67  C         24.5120    4.8180   -3.9340 C.2    83  TRP83       0.2264
     68  O         25.0340    5.9050   -3.7750 O.2    83  TRP83      -0.2867
     69  CB        25.4080    3.4830   -5.9550 C.3    83  TRP83       0.0550
     70  CG        26.7050    2.9120   -6.4010 C.ar   83  TRP83       0.0003
     71  CD1       26.9150    1.6610   -6.8100 C.ar   83  TRP83       0.0946
     72  CD2       27.9910    3.5480   -6.3690 C.ar   83  TRP83       0.0152
     73  NE1       28.2440    1.4650   -7.0750 N.ar   83  TRP83      -0.2442
     74  CE2       28.9240    2.6180   -6.8230 C.ar   83  TRP83       0.0810
     75  CE3       28.4310    4.8170   -6.0240 C.ar   83  TRP83       0.0012
     76  CZ2       30.2790    2.9050   -6.9220 C.ar   83  TRP83       0.0191
     77  CZ3       29.7540    5.1070   -6.1170 C.ar   83  TRP83       0.0001
     78  CH2       30.6730    4.1600   -6.5640 C.ar   83  TRP83       0.0015
     79  N         26.1740    6.0040   -1.0410 N.3    86  GLU86      -0.1245
     80  CA        27.4130    6.6700   -1.4220 C.3    86  GLU86       0.1567
     81  C         27.1400    8.1150   -1.8220 C.2    86  GLU86       0.2260
     82  O         27.9380    9.0340   -1.5660 O.2    86  GLU86      -0.2867
     83  CB        28.0440    5.9280   -2.5940 C.3    86  GLU86       0.0388
     84  CG        29.1540    6.7110   -3.2670 C.3    86  GLU86       0.1160
     85  CD        28.6450    7.8330   -4.1480 C.2    86  GLU86       0.3649
     86  OE1       27.8760    7.5500   -5.0920 O.co2  86  GLU86      -0.2457
     87  OE2       29.0110    9.0070   -3.8860 O.co2  86  GLU86      -0.2457
     88  N         26.5600   10.3960    1.0790 N.3    89  GLN89      -0.1245
     89  CA        27.8940   10.7600    1.5590 C.3    89  GLN89       0.1566
     90  C         28.4350   11.9320    0.7710 C.2    89  GLN89       0.2260
     91  O         28.8390   12.9420    1.3130 O.2    89  GLN89      -0.2867
     92  CB        28.8460    9.5430    1.4080 C.3    89  GLN89       0.0367
     93  CG        30.3290    9.8060    1.6720 C.3    89  GLN89       0.0905
     94  CD        30.5730   10.2890    3.0990 C.2    89  GLN89       0.2608
     95  OE1       29.7530   10.9340    3.7100 O.2    89  GLN89      -0.2717
     96  NE2       31.7120   10.0120    3.5990 N.am   89  GLN89      -0.0878
     97  N         29.4680   15.7040    2.0330 N.3    93  LEU93      -0.1245
     98  CA        30.9050   15.9980    2.0180 C.3    93  LEU93       0.1561
     99  C         31.1190   17.2150    1.1940 C.2    93  LEU93       0.2260
    100  O         31.8350   18.0900    1.6160 O.2    93  LEU93      -0.2867
    101  CB        31.7330   14.8480    1.4500 C.3    93  LEU93       0.0270
    102  CG        31.8890   13.6060    2.3260 C.3    93  LEU93       0.0019
    103  CD1       32.9460   12.6650    1.7030 C.3    93  LEU93       0.0001
    104  CD2       32.1720   13.9450    3.7940 C.3    93  LEU93       0.0001
    105  N         40.1090   16.5760   -0.5040 N.3   105  ARG105     -0.1231
    106  CA        39.2210   15.4790   -0.1500 C.3   105  ARG105      0.1694
    107  C         39.6060   14.3150   -1.0410 C.2   105  ARG105      0.2591
    108  O         39.5930   14.4630   -2.2700 O.2   105  ARG105     -0.2718
    109  CB        37.7850   15.8330   -0.5440 C.3   105  ARG105      0.0321
    110  CG        36.7600   14.7430   -0.3260 C.3   105  ARG105      0.0489
    111  CD        36.7010   14.2900    1.1500 C.3   105  ARG105      0.2205
    112  NE        36.0740   15.3070    1.9900 N.pl3 105  ARG105     -0.0865
    113  CZ        35.7070   15.1370    3.2610 C.cat 105  ARG105      0.5346
    114  NH1       35.8820   13.9690    3.8310 N.pl3 105  ARG105      0.1354
    115  NH2       35.1610   16.1440    3.9700 N.pl3 105  ARG105      0.1354
    116  N         39.9060   13.1620   -0.4660 N.am  106  ARG106     -0.1980
    117  CA        40.1730   11.9570   -1.2670 C.3   106  ARG106      0.1597
    118  C         41.3580   12.0970   -2.2140 C.2   106  ARG106      0.2287
    119  O         41.4320   11.3760   -3.1680 O.2   106  ARG106     -0.2864
    120  CB        38.9570   11.5320   -2.1140 C.3   106  ARG106      0.0334
    121  CG        37.7830   11.0590   -1.2900 C.3   106  ARG106      0.0492
    122  CD        36.5550   10.8880   -2.1470 C.3   106  ARG106      0.2205
    123  NE        35.5050   10.3800   -1.2810 N.pl3 106  ARG106     -0.0865
    124  CZ        34.2270   10.3510   -1.5990 C.cat 106  ARG106      0.5346
    125  NH1       33.7840   10.8260   -2.7570 N.pl3 106  ARG106      0.1354
    126  NH2       33.3890    9.8550   -0.7400 N.pl3 106  ARG106      0.1354
    127  N         27.5680   11.9070   12.2670 N.3   194  THR194     -0.1218
    128  CA        28.2330   10.7810   11.6030 C.3   194  THR194      0.1862
    129  C         27.5760    9.4090   11.7970 C.2   194  THR194      0.2287
    130  O         27.5730    8.5400   10.8860 O.2   194  THR194     -0.2866
    131  CB        29.6860   10.7380   12.0100 C.3   194  THR194      0.1770
    132  OG1       30.3130   11.8700   11.4480 O.3   194  THR194     -0.2211
    133  CG2       30.4090    9.4710   11.5530 C.3   194  THR194      0.0375
    134  N         24.1620    8.1250    9.6120 N.3   197  TYR197     -0.1227
    135  CA        24.3030    7.9130    8.1570 C.3   197  TYR197      0.1736
    136  C         25.4400    7.0070    7.7900 C.2   197  TYR197      0.2596
    137  O         25.4320    6.3990    6.6820 O.2   197  TYR197     -0.2718
    138  CB        24.4350    9.2330    7.3550 C.3   197  TYR197      0.0548
    139  CG        25.8440    9.7440    7.0400 C.ar  197  TYR197     -0.0200
    140  CD1       26.5130   10.5880    7.9100 C.ar  197  TYR197     -0.0009
    141  CD2       26.5040    9.4200    5.8470 C.ar  197  TYR197     -0.0009
    142  CE1       27.7710   11.0650    7.6340 C.ar  197  TYR197      0.0417
    143  CE2       27.7930    9.9000    5.5630 C.ar  197  TYR197      0.0417
    144  CZ        28.4330   10.7180    6.4670 C.ar  197  TYR197      0.1957
    145  OH        29.7250   11.2550    6.2240 O.3   197  TYR197     -0.2866
    146  N         26.4480    6.9190    8.6540 N.am  198  SER198     -0.1952
    147  CA        27.6340    6.1360    8.2770 C.3   198  SER198      0.1924
    148  C         27.5620    4.6650    8.7050 C.2   198  SER198      0.2314
    149  O         28.2970    3.8140    8.1760 O.2   198  SER198     -0.2863
    150  CB        28.8930    6.7940    8.7690 C.3   198  SER198      0.2116
    151  OG        29.2180    7.8670    7.9260 O.3   198  SER198     -0.2180
    152  N         34.1900    5.8050   15.2130 N.3   232  PHE232     -0.1227
    153  CA        34.6660    6.1210   13.8770 C.3   232  PHE232      0.1736
    154  C         34.9270    7.5940   13.8400 C.2   232  PHE232      0.2595
    155  O         35.9450    8.0160   13.3310 O.2   232  PHE232     -0.2718
    156  CB        33.6500    5.7440   12.8250 C.3   232  PHE232      0.0547
    157  CG        34.1250    5.9280   11.3950 C.ar  232  PHE232     -0.0202
    158  CD1       34.8100    4.9140   10.7370 C.ar  232  PHE232     -0.0042
    159  CD2       33.8140    7.0710   10.6940 C.ar  232  PHE232     -0.0042
    160  CE1       35.2090    5.0440    9.4130 C.ar  232  PHE232     -0.0003
    161  CE2       34.1940    7.2170    9.3810 C.ar  232  PHE232     -0.0003
    162  CZ        34.9130    6.2040    8.7300 C.ar  232  PHE232     -0.0000
    163  N         34.0510    8.3980   14.4200 N.am  233  GLN233     -0.1979
    164  CA        34.2800    9.8510   14.3390 C.3   233  GLN233      0.1601
    165  C         35.4740   10.3180   15.1730 C.2   233  GLN233      0.2287
    166  O         36.1610   11.2800   14.7790 O.2   233  GLN233     -0.2864
    167  CB        33.0380   10.6260   14.6930 C.3   233  GLN233      0.0394
    168  CG        33.1030   12.1150   14.3950 C.3   233  GLN233      0.0908
    169  CD        33.3970   12.4600   12.9440 C.2   233  GLN233      0.2608
    170  OE1       32.8470   11.8790   12.0240 O.2   233  GLN233     -0.2717
    171  NE2       34.2260   13.4420   12.7460 N.am  233  GLN233     -0.0878
    172  N         38.2740    9.8380   13.1240 N.3   236  ASP236     -0.1239
    173  CA        38.3080   10.9170   12.1250 C.3   236  ASP236      0.1674
    174  C         38.9700   12.1770   12.6740 C.2   236  ASP236      0.2266
    175  O         39.8210   12.7800   12.0070 O.2   236  ASP236     -0.2867
    176  CB        36.8840   11.2330   11.5910 C.3   236  ASP236      0.1410
    177  CG        36.8960   12.3110   10.5160 C.2   236  ASP236      0.3668
    178  OD1       37.3060   11.9810    9.3590 O.co2 236  ASP236     -0.2456
    179  OD2       36.5160   13.4750   10.8230 O.co2 236  ASP236     -0.2456
    180  N         45.1260    9.5640    4.2080 N.3   248  THR248     -0.1218
    181  CA        43.7660   10.0500    4.4170 C.3   248  THR248      0.1862
    182  C         43.1680   10.7410    3.1680 C.2   248  THR248      0.2287
    183  O         41.9430   10.8200    3.0200 O.2   248  THR248     -0.2866
    184  CB        43.6500   11.0310    5.6130 C.3   248  THR248      0.1770
    185  OG1       44.2830   12.2530    5.2880 O.3   248  THR248     -0.2211
    186  CG2       44.2670   10.4560    6.9120 C.3   248  THR248      0.0375
    187  N         43.3040   13.8880    2.7670 N.3   250  LYS250     -0.1245
    188  CA        42.7940   15.2160    3.1620 C.3   250  LYS250      0.1561
    189  C         43.5670   15.9430    4.2830 C.2   250  LYS250      0.2260
    190  O         44.1560   15.3450    5.1900 O.2   250  LYS250     -0.2867
    191  CB        41.2940   15.1170    3.5010 C.3   250  LYS250      0.0271
    192  CG        41.0280   14.5300    4.9110 C.3   250  LYS250      0.0035
    193  CD        39.6680   13.8260    5.0910 C.3   250  LYS250      0.0206
    194  CE        39.6100   13.2480    6.4930 C.3   250  LYS250      0.1093
    195  NZ        38.2850   12.7020    6.9180 N.3   250  LYS250     -0.1314
    196  N         42.3160    1.5670   11.4480 N.3   344  ARG344     -0.1245
    197  CA        42.2580    2.2380   10.1260 C.3   344  ARG344      0.1563
    198  C         43.0380    3.5660   10.1510 C.2   344  ARG344      0.2260
    199  O         43.2010    4.1790   11.2140 O.2   344  ARG344     -0.2867
    200  CB        40.7930    2.4150    9.6360 C.3   344  ARG344      0.0307
    201  CG        40.2530    3.8500    9.5270 C.3   344  ARG344      0.0489
    202  CD        38.7340    3.9230    9.7120 C.3   344  ARG344      0.2205
    203  NE        38.2590    5.1380   10.4140 N.pl3 344  ARG344     -0.0865
    204  CZ        38.2260    6.3820    9.9000 C.cat 344  ARG344      0.5346
    205  NH1       38.6420    6.6280    8.6530 N.pl3 344  ARG344      0.1354
    206  NH2       37.7580    7.3990   10.6310 N.pl3 344  ARG344      0.1354
    207  N         43.1520    5.5730    6.7300 N.3   346  LYS346     -0.1245
    208  CA        42.4180    6.4460    5.7810 C.3   346  LYS346      0.1561
    209  C         40.9230    6.4350    6.0890 C.2   346  LYS346      0.2260
    210  O         40.3040    7.4910    6.0570 O.2   346  LYS346     -0.2867
    211  CB        42.6460    6.0640    4.2870 C.3   346  LYS346      0.0271
    212  CG        42.6580    4.5680    3.9490 C.3   346  LYS346      0.0035
    213  CD        43.1040    4.3070    2.5070 C.3   346  LYS346      0.0206
    214  CE        42.9500    2.8430    2.0820 C.3   346  LYS346      0.1093
    215  NZ        42.5800    2.7340    0.6390 N.3   346  LYS346     -0.1314
@<TRIPOS>BOND
     1     4     3    2
     2     3     2    1
     3     1     2    1
     4    73    74   ar
     5    73    71   ar
     6    76    74   ar
     7    76    78   ar
     8    74    72   ar
     9    71    70   ar
    10     2     5    1
    11    16    13    1
    12    78    77   ar
    13    70    72   ar
    14    70    69    1
    15    72    75   ar
    16    12    13    1
    17    77    75   ar
    18    41    40    1
    19    69    66    1
    20    14    13    1
    21    14    15    2
    22     5     6    1
    23    86    85   ar
    24    40    38   ar
    25    40    39   ar
    26     6     7   ar
    27     6     8   ar
    28    38    36   ar
    29     7     9   ar
    30    39    37   ar
    31     8    10   ar
    32    66    67    1
    33    66    65    1
    34    85    87   ar
    35    85    84    1
    36     9    11   ar
    37    10    11   ar
    38    67    68    2
    39    36    35   ar
    40    37    35   ar
    41    84    83    1
    42   119   118    2
    43    17    18    1
    44    35    34    1
    45   125   124    1
    46    83    80    1
    47    20    19    2
    48   108   107    2
    49   118   117    1
    50   122   121    1
    51   122   123    1
    52   120   121    1
    53   120   117    1
    54    34    31    1
    55    81    82    2
    56    81    80    1
    57    18    19    1
    58   124   123    2
    59   124   126    1
    60    19    21   am
    61    80    79    1
    62   117   116    1
    63   107   116   am
    64   107   106    1
    65    31    30    1
    66    31    32    1
    67   109   110    1
    68   109   106    1
    69   105   106    1
    70    30    23   am
    71   110   111    1
    72    21    22    1
    73    64    63    2
    74    23    24    2
    75    23    22    1
    76    63    62    1
    77    22    25    1
    78    62    61    1
    79    33    32    2
    80    32    42   am
    81   215   214    1
    82    90    91    2
    83    90    89    1
    84    88    89    1
    85   111   112    1
    86    61    52   am
    87    99   100    2
    88    99    98    1
    89    92    89    1
    90    92    93    1
    91   101    98    1
    92   101   102    1
    93    25    26    1
    94    93    94    1
    95   103   102    1
    96    42    43    1
    97    26    27    1
    98   112   113    2
    99    98    97    1
   100   214   213    1
   101   102   104    1
   102    52    53    2
   103    52    51    1
   104   213   212    1
   105    43    44    1
   106    43    46    1
   107    48    47    2
   108   187   188    1
   109    50    44   am
   110    50    51    1
   111   183   182    2
   112    94    96   am
   113    94    95    2
   114    44    45    2
   115   188   191    1
   116   188   189    1
   117   182   181    1
   118   113   114    1
   119   113   115    1
   120    27    28    1
   121    51    54    1
   122   191   192    1
   123    47    46    1
   124    47    49   am
   125    54    55    1
   126   212   211    1
   127   180   181    1
   128   189   190    2
   129   211   208    1
   130    28    29    1
   131   181   184    1
   132    55    56    1
   133   192   193    1
   134   193   194    1
   135   185   184    1
   136    57    56    1
   137    57    58    2
   138   143   141   ar
   139   143   144   ar
   140   184   186    1
   141   208   209    1
   142   208   207    1
   143   141   139   ar
   144    59    58    1
   145   210   209    2
   146   145   144    1
   147    58    60    1
   148   144   142   ar
   149   194   195    1
   150   137   136    2
   151   139   138    1
   152   139   140   ar
   153   138   135    1
   154   142   140   ar
   155   136   135    1
   156   136   146   am
   157   151   150    1
   158   135   134    1
   159   149   148    2
   160   147   146    1
   161   147   148    1
   162   147   150    1
   163   205   204    1
   164   162   161   ar
   165   162   160   ar
   166   178   177   ar
   167   161   159   ar
   168   160   158   ar
   169   201   200    1
   170   201   202    1
   171   200   197    1
   172   202   203    1
   173   204   203    2
   174   204   206    1
   175   197   198    1
   176   197   196    1
   177   198   199    2
   178   177   179   ar
   179   177   176    1
   180   159   157   ar
   181   158   157   ar
   182   130   129    2
   183   157   156    1
   184   132   131    1
   185   133   131    1
   186   176   173    1
   187   128   129    1
   188   128   131    1
   189   128   127    1
   190   175   174    2
   191   170   169    2
   192   173   174    1
   193   173   172    1
   194   171   169   am
   195   156   153    1
   196   169   168    1
   197   155   154    2
   198   154   153    1
   199   154   163   am
   200   153   152    1
   201   164   163    1
   202   164   167    1
   203   164   165    1
   204   168   167    1
   205   166   165    2
