@<TRIPOS>MOLECULE
tmp/4p0xA00.pdb
 138 131 0 0 0
SMALL
GASTEIGER

@<TRIPOS>ATOM
      1  N        -14.5750   34.6230  -26.0060 N.3    39  ASN39      -0.1225
      2  CA       -14.6120   34.2120  -24.6380 C.3    39  ASN39       0.1785
      3  C        -13.3480   33.7280  -24.0240 C.2    39  ASN39       0.2597
      4  O        -13.3250   33.5930  -22.8250 O.2    39  ASN39      -0.2718
      5  CB       -15.6860   33.1610  -24.4870 C.3    39  ASN39       0.1169
      6  CG       -17.0470   33.7440  -24.6500 C.2    39  ASN39       0.2627
      7  OD1      -17.4450   34.5730  -23.8500 O.2    39  ASN39      -0.2716
      8  ND2      -17.7310   33.3830  -25.6980 N.am   39  ASN39      -0.0877
      9  N        -12.2840   33.4820  -24.7730 N.am   40  ALA40      -0.1979
     10  CA       -11.0480   33.0580  -24.1250 C.3    40  ALA40       0.1597
     11  C         -9.9220   34.0730  -24.1230 C.2    40  ALA40       0.2287
     12  O         -8.8700   33.8810  -23.5110 O.2    40  ALA40      -0.2864
     13  CB       -10.5980   31.7650  -24.7430 C.3    40  ALA40       0.0319
     14  N         -8.9560   38.3440  -20.5340 N.3    43  GLY43      -0.1210
     15  CA        -8.5840   38.3340  -19.1620 C.3    43  GLY43       0.1956
     16  C         -7.1030   38.5860  -19.0200 C.2    43  GLY43       0.2612
     17  O         -6.4630   39.1000  -19.9280 O.2    43  GLY43      -0.2717
     18  N         -6.5890   38.1630  -17.8670 N.am   44  LYS44      -0.1965
     19  CA        -5.1940   38.3210  -17.4860 C.3    44  LYS44       0.1728
     20  C         -4.3060   37.0890  -17.6180 C.2    44  LYS44       0.2616
     21  O         -3.1140   37.1750  -17.3580 O.2    44  LYS44      -0.2715
     22  CB        -5.1320   38.8060  -16.0380 C.3    44  LYS44       0.0311
     23  CG        -5.8300   40.1270  -15.7900 C.3    44  LYS44       0.0038
     24  CD        -6.0790   40.3670  -14.3050 C.3    44  LYS44       0.0206
     25  CE        -7.5450   40.0810  -13.9150 C.3    44  LYS44       0.1093
     26  NZ        -8.1010   41.0870  -12.9290 N.3    44  LYS44      -0.1314
     27  N         -4.8850   35.9540  -17.9840 N.am   45  TYR45      -0.1960
     28  CA        -4.1680   34.7180  -18.3000 C.3    45  TYR45       0.1771
     29  C         -3.3700   34.0840  -17.1740 C.2    45  TYR45       0.2620
     30  O         -2.5680   33.1910  -17.4220 O.2    45  TYR45      -0.2715
     31  CB        -3.3010   34.9250  -19.5180 C.3    45  TYR45       0.0574
     32  CG        -4.0940   35.6400  -20.5890 C.ar   45  TYR45      -0.0198
     33  CD1       -5.1480   34.9970  -21.2370 C.ar   45  TYR45      -0.0009
     34  CD2       -3.8320   36.9680  -20.9240 C.ar   45  TYR45      -0.0009
     35  CE1       -5.8870   35.6210  -22.2120 C.ar   45  TYR45       0.0417
     36  CE2       -4.5870   37.6030  -21.9160 C.ar   45  TYR45       0.0417
     37  CZ        -5.6260   36.8970  -22.5450 C.ar   45  TYR45       0.1957
     38  OH        -6.4210   37.4950  -23.4880 O.3    45  TYR45      -0.2866
     39  N         -3.6210   34.4780  -15.9360 N.am   46  ASN46      -0.1958
     40  CA        -2.7860   34.0240  -14.8580 C.3    46  ASN46       0.1819
     41  C         -2.7980   32.5520  -14.6100 C.2    46  ASN46       0.2621
     42  O         -1.7690   31.9760  -14.2830 O.2    46  ASN46      -0.2715
     43  CB        -3.1300   34.7550  -13.5810 C.3    46  ASN46       0.1195
     44  CG        -2.8460   36.2350  -13.7060 C.2    46  ASN46       0.2630
     45  OD1       -1.8920   36.6520  -14.3480 O.2    46  ASN46      -0.2716
     46  ND2       -3.6890   37.0260  -13.1320 N.am   46  ASN46      -0.0877
     47  N         -3.9360   31.9210  -14.7890 N.am   47  ARG47      -0.1977
     48  CA        -4.0210   30.5250  -14.5290 C.3    47  ARG47       0.1597
     49  C         -3.3400   29.7120  -15.6030 C.2    47  ARG47       0.2287
     50  O         -2.6990   28.7370  -15.3120 O.2    47  ARG47      -0.2864
     51  CB        -5.4830   30.1250  -14.4530 C.3    47  ARG47       0.0334
     52  CG        -6.3000   30.8730  -13.3980 C.3    47  ARG47       0.0492
     53  CD        -7.6940   30.2360  -13.3150 C.3    47  ARG47       0.2205
     54  NE        -8.4590   30.7520  -12.2290 N.pl3  47  ARG47      -0.0865
     55  CZ        -8.8890   31.9910  -12.2120 C.cat  47  ARG47       0.5346
     56  NH1       -9.5490   32.4630  -11.1700 N.pl3  47  ARG47       0.1354
     57  NH2       -8.6070   32.7540  -13.2490 N.pl3  47  ARG47       0.1354
     58  N         -7.4930   27.8480  -19.3510 N.3    78  GLU78      -0.1245
     59  CA        -8.1750   29.0710  -19.7620 C.3    78  GLU78       0.1567
     60  C         -9.4680   28.7080  -20.3640 C.2    78  GLU78       0.2260
     61  O        -10.4520   29.3990  -20.1520 O.2    78  GLU78      -0.2867
     62  CB        -7.3420   29.9070  -20.7020 C.3    78  GLU78       0.0388
     63  CG        -6.1820   30.5020  -19.9060 C.3    78  GLU78       0.1160
     64  CD        -6.5450   31.6200  -18.8950 C.2    78  GLU78       0.3649
     65  OE1       -5.8160   31.7580  -17.8890 O.co2  78  GLU78      -0.2457
     66  OE2       -7.5010   32.4030  -19.1180 O.co2  78  GLU78      -0.2457
     67  N        -11.8730   27.9280  -17.6290 N.3    81  GLN81      -0.1231
     68  CA       -12.3470   29.1380  -17.0570 C.3    81  GLN81       0.1698
     69  C        -13.4300   29.8630  -17.9030 C.2    81  GLN81       0.2592
     70  O        -14.4070   30.3930  -17.3290 O.2    81  GLN81      -0.2718
     71  CB       -11.2460   30.1100  -16.7500 C.3    81  GLN81       0.0381
     72  CG       -11.8490   31.2560  -15.9870 C.3    81  GLN81       0.0905
     73  CD       -10.8630   32.1430  -15.3450 C.2    81  GLN81       0.2608
     74  OE1      -11.0750   32.5900  -14.2110 O.2    81  GLN81      -0.2717
     75  NE2       -9.7730   32.4480  -16.0560 N.am   81  GLN81      -0.0878
     76  N        -13.2750   29.8580  -19.2270 N.am   82  ALA82      -0.1980
     77  CA       -14.2220   30.5440  -20.0870 C.3    82  ALA82       0.1597
     78  C        -15.5930   29.8780  -20.0290 C.2    82  ALA82       0.2287
     79  O        -16.6290   30.5160  -20.0680 O.2    82  ALA82      -0.2864
     80  CB       -13.6980   30.6000  -21.5160 C.3    82  ALA82       0.0319
     81  N        -17.4080   31.0520  -16.9320 N.3    85  LEU85      -0.1245
     82  CA       -17.7960   32.4330  -16.8430 C.3    85  LEU85       0.1561
     83  C        -18.9910   32.7250  -17.7320 C.2    85  LEU85       0.2260
     84  O        -19.8890   33.4850  -17.3550 O.2    85  LEU85      -0.2867
     85  CB       -16.6580   33.3020  -17.2890 C.3    85  LEU85       0.0270
     86  CG       -15.4540   33.0550  -16.3980 C.3    85  LEU85       0.0019
     87  CD1      -14.2650   33.6740  -17.1440 C.3    85  LEU85       0.0001
     88  CD2      -15.5350   33.5270  -14.9250 C.3    85  LEU85       0.0001
     89  N        -18.2560   41.6940  -18.5340 N.3    97  ARG97      -0.1231
     90  CA       -17.1790   40.7880  -18.1580 C.3    97  ARG97       0.1694
     91  C        -15.9460   41.3300  -18.8950 C.2    97  ARG97       0.2591
     92  O        -16.0120   41.5670  -20.0800 O.2    97  ARG97      -0.2718
     93  CB       -17.5610   39.3820  -18.6680 C.3    97  ARG97       0.0321
     94  CG       -16.4230   38.3480  -18.7160 C.3    97  ARG97       0.0489
     95  CD       -15.9560   37.9320  -17.3310 C.3    97  ARG97       0.2205
     96  NE       -17.0010   37.2180  -16.6110 N.pl3  97  ARG97      -0.0865
     97  CZ       -16.8640   36.7310  -15.3890 C.cat  97  ARG97       0.5346
     98  NH1      -15.7230   36.8190  -14.7520 N.pl3  97  ARG97       0.1354
     99  NH2      -17.8600   36.0990  -14.8180 N.pl3  97  ARG97       0.1354
    100  N        -14.8250   41.5430  -18.2430 N.am   98  ARG98      -0.1980
    101  CA       -13.6300   41.8780  -19.0170 C.3    98  ARG98       0.1597
    102  C        -13.7940   43.2480  -19.7070 C.2    98  ARG98       0.2287
    103  O        -13.2940   43.4410  -20.8200 O.2    98  ARG98      -0.2864
    104  CB       -13.2900   40.7740  -20.0730 C.3    98  ARG98       0.0334
    105  CG       -12.5930   39.5540  -19.4870 C.3    98  ARG98       0.0492
    106  CD       -12.3870   38.3840  -20.4540 C.3    98  ARG98       0.2205
    107  NE       -13.0060   37.1350  -19.9800 N.pl3  98  ARG98      -0.0865
    108  CZ       -13.7030   36.2690  -20.7360 C.cat  98  ARG98       0.5346
    109  NH1      -13.9090   36.4910  -22.0330 N.pl3  98  ARG98       0.1354
    110  NH2      -14.2390   35.1700  -20.1860 N.pl3  98  ARG98       0.1354
    111  N         -6.6750   34.5950   -1.4810 N.3   221  PHE221     -0.1241
    112  CA        -6.8470   35.3500   -2.6740 C.3   221  PHE221      0.1605
    113  C         -8.3020   35.7840   -2.9230 C.2   221  PHE221      0.2264
    114  O         -8.5430   36.9100   -3.3310 O.2   221  PHE221     -0.2867
    115  CB        -6.3570   34.4830   -3.7980 C.3   221  PHE221      0.0534
    116  CG        -6.7600   34.9360   -5.0980 C.ar  221  PHE221     -0.0203
    117  CD1       -6.0120   35.8660   -5.7610 C.ar  221  PHE221     -0.0042
    118  CD2       -7.8700   34.4130   -5.6810 C.ar  221  PHE221     -0.0042
    119  CE1       -6.3720   36.2890   -7.0240 C.ar  221  PHE221     -0.0003
    120  CE2       -8.2460   34.8060   -6.9450 C.ar  221  PHE221     -0.0003
    121  CZ        -7.4950   35.7510   -7.5950 C.ar  221  PHE221     -0.0000
    122  N         -9.7990   39.5250   -2.8400 N.3   225  ASP225     -0.1239
    123  CA       -10.7590   39.9490   -3.8550 C.3   225  ASP225      0.1674
    124  C        -12.0350   40.5650   -3.2580 C.2   225  ASP225      0.2266
    125  O        -12.5250   41.6180   -3.7030 O.2   225  ASP225     -0.2867
    126  CB       -11.1570   38.7230   -4.6610 C.3   225  ASP225      0.1410
    127  CG       -11.6910   39.0610   -5.9630 C.2   225  ASP225      0.3668
    128  OD1      -12.9000   39.3690   -6.0610 O.co2 225  ASP225     -0.2456
    129  OD2      -10.8920   38.9930   -6.9050 O.co2 225  ASP225     -0.2456
    130  N        -11.8450   48.2120  -11.7890 N.3   239  LYS239     -0.1245
    131  CA       -13.3040   48.0430  -11.5670 C.3   239  LYS239      0.1561
    132  C        -13.8390   48.9480  -10.4650 C.2   239  LYS239      0.2260
    133  O        -13.0720   49.5990   -9.7760 O.2   239  LYS239     -0.2867
    134  CB       -13.6710   46.5770  -11.2680 C.3   239  LYS239      0.0271
    135  CG       -12.6670   45.8170  -10.4110 C.3   239  LYS239      0.0035
    136  CD       -11.9620   44.6810  -11.1680 C.3   239  LYS239      0.0206
    137  CE       -10.9230   43.9560  -10.2920 C.3   239  LYS239      0.1093
    138  NZ       -10.6810   42.5110  -10.6330 N.3   239  LYS239     -0.1314
@<TRIPOS>BOND
     1     1     2    1
     2     8     6   am
     3     9    10    1
     4     9     3   am
     5    13    10    1
     6     6     5    1
     7     6     7    2
     8     2     5    1
     9     2     3    1
    10    10    11    1
    11    11    12    2
    12     3     4    2
    13    38    37    1
    14    37    35   ar
    15    37    36   ar
    16    35    33   ar
    17   109   108    1
    18    36    34   ar
    19    80    77    1
    20    33    32   ar
    21    34    32   ar
    22   103   102    2
    23   108   110    1
    24   108   107    2
    25    62    63    1
    26    62    59    1
    27    32    31    1
    28    14    15    1
    29   106   107    1
    30   106   105    1
    31    60    61    2
    32    60    59    1
    33    77    78    1
    34    77    76    1
    35    92    91    2
    36   104   105    1
    37   104   101    1
    38    79    78    2
    39    17    16    2
    40    63    64    1
    41    59    58    1
    42   102   101    1
    43    31    28    1
    44    76    69   am
    45    15    16    1
    46    66    64   ar
    47    16    18   am
    48   101   100    1
    49    91   100   am
    50    91    90    1
    51    64    65   ar
    52    94    93    1
    53    94    95    1
    54    93    90    1
    55    89    90    1
    56    28    27    1
    57    28    29    1
    58    27    20   am
    59    69    70    2
    60    69    68    1
    61    18    19    1
    62    83    84    2
    63    83    82    1
    64    67    68    1
    65    20    19    1
    66    20    21    2
    67    19    22    1
    68    30    29    2
    69    95    96    1
    70    85    82    1
    71    85    86    1
    72    29    39   am
    73    87    86    1
    74    68    71    1
    75    81    82    1
    76    71    72    1
    77    96    97    2
    78    86    88    1
    79    75    73   am
    80    22    23    1
    81    72    73    1
    82    39    40    1
    83    23    24    1
    84    49    50    2
    85    49    48    1
    86    97    99    1
    87    97    98    1
    88    73    74    2
    89    40    41    1
    90    40    43    1
    91    47    41   am
    92    47    48    1
    93    41    42    2
    94    48    51    1
    95    51    52    1
    96    45    44    2
    97    24    25    1
    98    25    26    1
    99    44    43    1
   100    44    46   am
   101    52    53    1
   102    53    54    1
   103    57    55    1
   104    54    55    2
   105    55    56    1
   106   130   131    1
   107   131   134    1
   108   131   132    1
   109   134   135    1
   110   136   135    1
   111   136   137    1
   112   138   137    1
   113   132   133    2
   114   121   119   ar
   115   121   120   ar
   116   119   117   ar
   117   120   118   ar
   118   129   127   ar
   119   128   127   ar
   120   127   126    1
   121   117   116   ar
   122   118   116   ar
   123   116   115    1
   124   126   123    1
   125   123   124    1
   126   123   122    1
   127   115   112    1
   128   125   124    2
   129   114   113    2
   130   113   112    1
   131   112   111    1
