@<TRIPOS>MOLECULE
tmp/4p0xA01.pdb
 84 76 0 0 0
SMALL
GASTEIGER

@<TRIPOS>ATOM
      1  N          6.3610   38.0380  -16.2960 N.3     1  ALA1       -0.1245
      2  CA         6.4210   39.3960  -16.8230 C.3     1  ALA1        0.1562
      3  C          5.9140   39.4530  -18.2600 C.2     1  ALA1        0.2260
      4  O          4.7130   39.5710  -18.5010 O.2     1  ALA1       -0.2867
      5  CB         7.8400   39.9360  -16.7370 C.3     1  ALA1        0.0290
      6  N          3.8440   36.3070  -20.5660 N.3     4  LYS4       -0.1245
      7  CA         2.4150   36.2760  -20.8530 C.3     4  LYS4        0.1561
      8  C          2.1470   36.4890  -22.3400 C.2     4  LYS4        0.2260
      9  O          1.2000   35.9320  -22.8950 O.2     4  LYS4       -0.2867
     10  CB         1.6800   37.3350  -20.0300 C.3     4  LYS4        0.0271
     11  CG         0.1650   37.2560  -20.1290 C.3     4  LYS4        0.0035
     12  CD        -0.4770   37.2070  -18.7520 C.3     4  LYS4        0.0206
     13  CE        -0.2080   38.4830  -17.9710 C.3     4  LYS4        0.1093
     14  NZ        -0.7370   38.4070  -16.5820 N.3     4  LYS4       -0.1314
     15  N         -6.5890   38.1630  -17.8670 N.3    44  LYS44      -0.1245
     16  CA        -5.1940   38.3210  -17.4860 C.3    44  LYS44       0.1561
     17  C         -4.3060   37.0890  -17.6180 C.2    44  LYS44       0.2260
     18  O         -3.1140   37.1750  -17.3580 O.2    44  LYS44      -0.2867
     19  CB        -5.1320   38.8060  -16.0380 C.3    44  LYS44       0.0271
     20  CG        -5.8300   40.1270  -15.7900 C.3    44  LYS44       0.0035
     21  CD        -6.0790   40.3670  -14.3050 C.3    44  LYS44       0.0206
     22  CE        -7.5450   40.0810  -13.9150 C.3    44  LYS44       0.1093
     23  NZ        -8.1010   41.0870  -12.9290 N.3    44  LYS44      -0.1314
     24  N         -3.6210   34.4780  -15.9360 N.3    46  ASN46      -0.1240
     25  CA        -2.7860   34.0240  -14.8580 C.3    46  ASN46       0.1653
     26  C         -2.7980   32.5520  -14.6100 C.2    46  ASN46       0.2266
     27  O         -1.7690   31.9760  -14.2830 O.2    46  ASN46      -0.2867
     28  CB        -3.1300   34.7550  -13.5810 C.3    46  ASN46       0.1155
     29  CG        -2.8460   36.2350  -13.7060 C.2    46  ASN46       0.2627
     30  OD1       -1.8920   36.6520  -14.3480 O.2    46  ASN46      -0.2716
     31  ND2       -3.6890   37.0260  -13.1320 N.am   46  ASN46      -0.0877
     32  N         -0.8780   30.7370  -17.7390 N.3    49  LEU49      -0.1245
     33  CA         0.5310   31.0400  -17.4780 C.3    49  LEU49       0.1561
     34  C          1.0870   30.2210  -16.3170 C.2    49  LEU49       0.2260
     35  O          2.2210   29.8130  -16.3760 O.2    49  LEU49      -0.2867
     36  CB         0.7150   32.4930  -17.1130 C.3    49  LEU49       0.0270
     37  CG         1.6760   33.3210  -17.9290 C.3    49  LEU49       0.0019
     38  CD1        2.3060   34.4170  -17.0330 C.3    49  LEU49       0.0001
     39  CD2        2.7360   32.4730  -18.6450 C.3    49  LEU49       0.0001
     40  N         -6.6750   34.5950   -1.4810 N.3   221  PHE221     -0.1241
     41  CA        -6.8470   35.3500   -2.6740 C.3   221  PHE221      0.1605
     42  C         -8.3020   35.7840   -2.9230 C.2   221  PHE221      0.2264
     43  O         -8.5430   36.9100   -3.3310 O.2   221  PHE221     -0.2867
     44  CB        -6.3570   34.4830   -3.7980 C.3   221  PHE221      0.0534
     45  CG        -6.7600   34.9360   -5.0980 C.ar  221  PHE221     -0.0203
     46  CD1       -6.0120   35.8660   -5.7610 C.ar  221  PHE221     -0.0042
     47  CD2       -7.8700   34.4130   -5.6810 C.ar  221  PHE221     -0.0042
     48  CE1       -6.3720   36.2890   -7.0240 C.ar  221  PHE221     -0.0003
     49  CE2       -8.2460   34.8060   -6.9450 C.ar  221  PHE221     -0.0003
     50  CZ        -7.4950   35.7510   -7.5950 C.ar  221  PHE221     -0.0000
     51  N         -9.0280   38.4380   -0.2590 N.3   224  GLN224     -0.1245
     52  CA        -8.5070   39.7080   -0.7610 C.3   224  GLN224      0.1566
     53  C         -9.3590   40.3360   -1.9090 C.2   224  GLN224      0.2260
     54  O         -9.6180   41.5370   -1.9230 O.2   224  GLN224     -0.2867
     55  CB        -7.0400   39.5680   -1.1570 C.3   224  GLN224      0.0367
     56  CG        -6.4660   40.7980   -1.8310 C.3   224  GLN224      0.0905
     57  CD        -4.9830   40.6410   -2.1370 C.2   224  GLN224      0.2608
     58  OE1       -4.1390   41.4100   -1.6640 O.2   224  GLN224     -0.2717
     59  NE2       -4.6640   39.6260   -2.8960 N.am  224  GLN224     -0.0878
     60  N          3.7880   32.3200   -6.7750 N.3   325  LEU325     -0.1245
     61  CA         2.4050   32.6560   -6.6530 C.3   325  LEU325      0.1561
     62  C          2.1180   33.5440   -5.4290 C.2   325  LEU325      0.2260
     63  O          1.4690   34.5780   -5.5380 O.2   325  LEU325     -0.2867
     64  CB         1.5810   31.3720   -6.5660 C.3   325  LEU325      0.0270
     65  CG         1.3350   30.5610   -7.8230 C.3   325  LEU325      0.0019
     66  CD1        0.6030   29.3110   -7.3960 C.3   325  LEU325      0.0001
     67  CD2        0.4710   31.2890   -8.8230 C.3   325  LEU325      0.0001
     68  N          2.9680   37.1690   -5.7980 N.3   328  LYS328     -0.1231
     69  CA         2.0710   37.7960   -6.7410 C.3   328  LYS328      0.1693
     70  C          0.7160   38.1020   -6.0780 C.2   328  LYS328      0.2591
     71  O          0.1480   39.1520   -6.2950 O.2   328  LYS328     -0.2718
     72  CB         1.9120   36.8640   -7.9510 C.3   328  LYS328      0.0285
     73  CG         2.3410   37.4540   -9.2790 C.3   328  LYS328      0.0035
     74  CD         3.7840   37.9360   -9.3140 C.3   328  LYS328      0.0206
     75  CE         4.2740   38.2300  -10.7360 C.3   328  LYS328      0.1093
     76  NZ         3.6870   39.4860  -11.2970 N.3   328  LYS328     -0.1314
     77  N          0.2000   37.2130   -5.2380 N.am  329  ILE329     -0.1980
     78  CA        -1.0820   37.5340   -4.6160 C.3   329  ILE329      0.1595
     79  C         -0.9680   38.4930   -3.4220 C.2   329  ILE329      0.2287
     80  O         -1.9020   39.2310   -3.1660 O.2   329  ILE329     -0.2864
     81  CB        -1.9680   36.2860   -4.2990 C.3   329  ILE329      0.0276
     82  CG1       -1.5660   35.6030   -3.0210 C.3   329  ILE329      0.0022
     83  CG2       -1.9860   35.3030   -5.4830 C.3   329  ILE329      0.0022
     84  CD1       -1.6800   34.0950   -3.1180 C.3   329  ILE329      0.0001
@<TRIPOS>BOND
     1     9     8    2
     2     8     7    1
     3     7     6    1
     4     7    10    1
     5    11    10    1
     6    11    12    1
     7    12    13    1
     8    39    37    1
     9     4     3    2
    10     3     2    1
    11    13    14    1
    12    37    36    1
    13    37    38    1
    14    15    16    1
    15    32    33    1
    16    17    16    1
    17    17    18    2
    18    16    19    1
    19    33    36    1
    20    33    34    1
    21     2     5    1
    22     2     1    1
    23    35    34    2
    24    19    20    1
    25    24    25    1
    26    20    21    1
    27    25    26    1
    28    25    28    1
    29    26    27    2
    30    30    29    2
    31    21    22    1
    32    22    23    1
    33    29    28    1
    34    29    31   am
    35    76    75    1
    36    75    74    1
    37    74    73    1
    38    73    72    1
    39    67    65    1
    40    72    69    1
    41    65    66    1
    42    65    64    1
    43    50    48   ar
    44    50    49   ar
    45    48    46   ar
    46    49    47   ar
    47    60    61    1
    48    69    70    1
    49    69    68    1
    50    61    64    1
    51    61    62    1
    52    71    70    2
    53    70    77   am
    54    46    45   ar
    55    47    45   ar
    56    63    62    2
    57    83    81    1
    58    77    78    1
    59    45    44    1
    60    78    81    1
    61    78    79    1
    62    81    82    1
    63    44    41    1
    64    79    80    2
    65    43    42    2
    66    84    82    1
    67    42    41    1
    68    59    57   am
    69    41    40    1
    70    57    56    1
    71    57    58    2
    72    54    53    2
    73    53    52    1
    74    56    55    1
    75    55    52    1
    76    52    51    1
