@<TRIPOS>MOLECULE
tmp/4p1gA00.pdb
 130 125 0 0 0
SMALL
GASTEIGER

@<TRIPOS>ATOM
      1  N        -25.6000   -7.1610   -7.0340 N.3    23  THR23      -0.1218
      2  CA       -26.3360   -7.9690   -7.9960 C.3    23  THR23       0.1862
      3  C        -27.7460   -7.3740   -8.0870 C.2    23  THR23       0.2287
      4  O        -28.5240   -7.4370   -7.1250 O.2    23  THR23      -0.2866
      5  CB       -26.3810   -9.4530   -7.5930 C.3    23  THR23       0.1770
      6  OG1      -25.0430   -9.9680   -7.5040 O.3    23  THR23      -0.2211
      7  CG2      -27.1800  -10.2680   -8.6260 C.3    23  THR23       0.0375
      8  N        -31.2990   -9.8320  -11.6320 N.3    27  ASP27      -0.1225
      9  CA       -30.3330  -10.9200  -11.7850 C.3    27  ASP27       0.1805
     10  C        -30.3360  -11.8260  -10.5520 C.2    27  ASP27       0.2598
     11  O        -29.6010  -12.8090  -10.4910 O.2    27  ASP27      -0.2718
     12  CB       -28.9190  -10.3780  -12.0290 C.3    27  ASP27       0.1424
     13  CG       -28.7400   -9.7960  -13.4230 C.2    27  ASP27       0.3668
     14  OD1      -29.6670   -9.9260  -14.2610 O.co2  27  ASP27      -0.2456
     15  OD2      -27.6540   -9.2220  -13.6790 O.co2  27  ASP27      -0.2456
     16  N        -31.1680  -11.4860   -9.5730 N.am   28  CYS28      -0.1956
     17  CA       -31.1610  -12.1820   -8.2930 C.3    28  CYS28       0.1843
     18  C        -31.9650  -13.4710   -8.3210 C.2    28  CYS28       0.2625
     19  O        -33.0800  -13.5100   -8.8440 O.2    28  CYS28      -0.2714
     20  CB       -31.7190  -11.2750   -7.1870 C.3    28  CYS28       0.0997
     21  SG       -30.5650   -9.9930   -6.6500 S.3    28  CYS28      -0.0797
     22  N        -31.4170  -14.5230   -7.7240 N.am   29  PHE29      -0.1974
     23  CA       -32.1720  -15.7510   -7.5900 C.3    29  PHE29       0.1639
     24  C        -32.9680  -15.6480   -6.2880 C.2    29  PHE29       0.2290
     25  O        -32.3810  -15.6340   -5.1960 O.2    29  PHE29      -0.2864
     26  CB       -31.2360  -16.9610   -7.5410 C.3    29  PHE29       0.0560
     27  CG       -31.9620  -18.2670   -7.4080 C.ar   29  PHE29      -0.0200
     28  CD1      -32.3790  -18.9570   -8.5390 C.ar   29  PHE29      -0.0042
     29  CD2      -32.2520  -18.7980   -6.1510 C.ar   29  PHE29      -0.0042
     30  CE1      -33.0740  -20.1550   -8.4270 C.ar   29  PHE29      -0.0003
     31  CE2      -32.9510  -19.9990   -6.0240 C.ar   29  PHE29      -0.0003
     32  CZ       -33.3620  -20.6800   -7.1690 C.ar   29  PHE29      -0.0000
     33  N        -27.1180  -23.2030   -6.4790 N.3    49  GLY49      -0.1210
     34  CA       -25.7730  -23.0720   -5.9410 C.3    49  GLY49       0.1956
     35  C        -25.5690  -21.9190   -4.9650 C.2    49  GLY49       0.2612
     36  O        -24.4730  -21.7520   -4.4300 O.2    49  GLY49      -0.2717
     37  N        -26.6070  -21.1190   -4.7320 N.am   50  TYR50      -0.1962
     38  CA       -26.4730  -19.9840   -3.8240 C.3    50  TYR50       0.1771
     39  C        -26.6750  -20.3960   -2.3700 C.2    50  TYR50       0.2620
     40  O        -27.5510  -21.2150   -2.0550 O.2    50  TYR50      -0.2715
     41  CB       -27.4320  -18.8490   -4.2130 C.3    50  TYR50       0.0574
     42  CG       -27.1550  -18.2960   -5.5950 C.ar   50  TYR50      -0.0198
     43  CD1      -25.9840  -17.5930   -5.8590 C.ar   50  TYR50      -0.0009
     44  CD2      -28.0520  -18.4910   -6.6400 C.ar   50  TYR50      -0.0009
     45  CE1      -25.7180  -17.1000   -7.1170 C.ar   50  TYR50       0.0417
     46  CE2      -27.7880  -18.0010   -7.9090 C.ar   50  TYR50       0.0417
     47  CZ       -26.6220  -17.3020   -8.1390 C.ar   50  TYR50       0.1957
     48  OH       -26.3520  -16.8060   -9.3950 O.3    50  TYR50      -0.2866
     49  N        -25.8540  -19.8310   -1.4870 N.am   51  THR51      -0.1937
     50  CA       -25.9680  -20.0970   -0.0540 C.3    51  THR51       0.2028
     51  C        -27.1850  -19.3730    0.5330 C.2    51  THR51       0.2642
     52  O        -27.8400  -19.8840    1.4490 O.2    51  THR51      -0.2714
     53  CB       -24.6640  -19.7030    0.6970 C.3    51  THR51       0.1808
     54  OG1      -23.6020  -20.5810    0.2950 O.3    51  THR51      -0.2208
     55  CG2      -24.8440  -19.8100    2.2090 C.3    51  THR51       0.0379
     56  N        -27.4990  -18.1940   -0.0080 N.am   52  ARG52      -0.1963
     57  CA       -28.5930  -17.3780    0.5230 C.3    52  ARG52       0.1729
     58  C        -29.6120  -16.9190   -0.5400 C.2    52  ARG52       0.2616
     59  O        -29.2500  -16.3040   -1.5440 O.2    52  ARG52      -0.2715
     60  CB       -28.0180  -16.1820    1.2790 C.3    52  ARG52       0.0348
     61  CG       -27.0810  -16.5620    2.4150 C.3    52  ARG52       0.0492
     62  CD       -26.1910  -15.3950    2.8300 C.3    52  ARG52       0.2205
     63  NE       -25.3450  -14.9520    1.7230 N.pl3  52  ARG52      -0.0865
     64  CZ       -24.1130  -15.3980    1.4990 C.cat  52  ARG52       0.5346
     65  NH1      -23.5750  -16.3000    2.3150 N.pl3  52  ARG52       0.1354
     66  NH2      -23.4190  -14.9410    0.4600 N.pl3  52  ARG52       0.1354
     67  N        -30.8840  -17.2290   -0.3060 N.am   53  ILE53      -0.1964
     68  CA       -31.9660  -16.9330   -1.2430 C.3    53  ILE53       0.1712
     69  C        -32.9720  -15.9480   -0.6220 C.2    53  ILE53       0.2458
     70  O        -33.6990  -16.2990    0.3270 O.2    53  ILE53      -0.2730
     71  CB       -32.7110  -18.2260   -1.6770 C.3    53  ILE53       0.0289
     72  CG1      -31.7680  -19.1910   -2.4030 C.3    53  ILE53       0.0022
     73  CG2      -33.8860  -17.9000   -2.5940 C.3    53  ILE53       0.0023
     74  CD1      -31.0680  -20.1540   -1.4840 C.3    53  ILE53       0.0001
     75  N        -33.0040  -14.7020   -1.1350 N.am   54  PRO54      -0.2727
     76  CA       -34.0100  -13.7220   -0.7020 C.3    54  PRO54       0.1402
     77  C        -35.4370  -14.2560   -0.8920 C.2    54  PRO54       0.2269
     78  O        -35.7380  -14.9120   -1.9120 O.2    54  PRO54      -0.2865
     79  CB       -33.7600  -12.5350   -1.6400 C.3    54  PRO54       0.0296
     80  CG       -32.2970  -12.6130   -1.9450 C.3    54  PRO54       0.0237
     81  CD       -31.9860  -14.0960   -2.0160 C.3    54  PRO54       0.0939
     82  N        -24.7720  -10.8830    3.7000 N.3   117  LEU117     -0.1245
     83  CA       -25.6580  -10.3910    2.6420 C.3   117  LEU117      0.1561
     84  C        -26.5000   -9.2040    3.1100 C.2   117  LEU117      0.2260
     85  O        -27.1220   -9.2430    4.1790 O.2   117  LEU117     -0.2867
     86  CB       -26.5720  -11.5140    2.1250 C.3   117  LEU117      0.0270
     87  CG       -27.5040  -11.2480    0.9320 C.3   117  LEU117      0.0019
     88  CD1      -27.8720  -12.5610    0.2390 C.3   117  LEU117      0.0001
     89  CD2      -28.7840  -10.5220    1.3460 C.3   117  LEU117      0.0001
     90  N        -29.1170   -6.8600   -4.2300 N.3   138  ILE138     -0.1245
     91  CA       -28.3730   -7.3990   -3.0900 C.3   138  ILE138      0.1561
     92  C        -26.8530   -7.1940   -3.2340 C.2   138  ILE138      0.2260
     93  O        -26.3170   -7.1860   -4.3470 O.2   138  ILE138     -0.2867
     94  CB       -28.6690   -8.9130   -2.8870 C.3   138  ILE138      0.0252
     95  CG1      -28.0120   -9.7500   -3.9830 C.3   138  ILE138      0.0019
     96  CG2      -30.1830   -9.1860   -2.8690 C.3   138  ILE138      0.0019
     97  CD1      -28.3480  -11.2410   -3.8910 C.3   138  ILE138      0.0001
     98  N        -23.0770   -8.6600   -1.3860 N.3   140  THR140     -0.1218
     99  CA       -22.4640   -9.6040   -0.4390 C.3   140  THR140      0.1862
    100  C        -20.9930   -9.3060   -0.1460 C.2   140  THR140      0.2287
    101  O        -20.3310   -8.5790   -0.8950 O.2   140  THR140     -0.2866
    102  CB       -22.5470  -11.0590   -0.9320 C.3   140  THR140      0.1770
    103  OG1      -21.9420  -11.1490   -2.2250 O.3   140  THR140     -0.2211
    104  CG2      -23.9810  -11.5320   -1.0080 C.3   140  THR140      0.0375
    105  N        -18.5940  -11.3430   -0.5730 N.3   142  GLU142     -0.1231
    106  CA       -17.9260  -11.8130   -1.7870 C.3   142  GLU142      0.1699
    107  C        -17.8720  -10.7550   -2.9040 C.2   142  GLU142      0.2592
    108  O        -16.8670  -10.6690   -3.6020 O.2   142  GLU142     -0.2718
    109  CB       -18.5340  -13.1400   -2.2970 C.3   142  GLU142      0.0402
    110  CG       -19.8900  -13.5370   -1.6780 C.3   142  GLU142      0.1161
    111  CD       -19.7860  -14.0410   -0.2350 C.2   142  GLU142      0.3649
    112  OE1      -19.0790  -15.0470   -0.0120 O.co2 142  GLU142     -0.2457
    113  OE2      -20.4120  -13.4330    0.6740 O.co2 142  GLU142     -0.2457
    114  N        -18.9220   -9.9440   -3.0680 N.am  143  ASP143     -0.1974
    115  CA       -18.9050   -8.8550   -4.0700 C.3   143  ASP143      0.1709
    116  C        -17.7710   -7.8420   -3.8250 C.2   143  ASP143      0.2293
    117  O        -17.0200   -7.4640   -4.7500 O.2   143  ASP143     -0.2864
    118  CB       -20.2610   -8.1220   -4.1220 C.3   143  ASP143      0.1436
    119  CG       -21.3820   -8.9850   -4.6940 C.2   143  ASP143      0.3671
    120  OD1      -22.5690   -8.7900   -4.3090 O.co2 143  ASP143     -0.2456
    121  OD2      -21.0720   -9.8560   -5.5390 O.co2 143  ASP143     -0.2456
    122  N        -14.2290   -9.6220   -4.1690 N.3   146  GLU146     -0.1245
    123  CA       -14.0170   -9.6910   -5.6110 C.3   146  GLU146      0.1567
    124  C        -13.5780   -8.3380   -6.1570 C.2   146  GLU146      0.2260
    125  O        -12.6970   -8.2670   -7.0130 O.2   146  GLU146     -0.2867
    126  CB       -15.3020  -10.1580   -6.3040 C.3   146  GLU146      0.0388
    127  CG       -15.2330  -10.2720   -7.8210 C.3   146  GLU146      0.1160
    128  CD       -16.5180  -10.8530   -8.4140 C.2   146  GLU146      0.3649
    129  OE1      -17.1920  -11.6520   -7.7200 O.co2 146  GLU146     -0.2457
    130  OE2      -16.8560  -10.5100   -9.5700 O.co2 146  GLU146     -0.2457
@<TRIPOS>BOND
     1    14    13   ar
     2    15    13   ar
     3    13    12    1
     4    12     9    1
     5     9     8    1
     6     9    10    1
     7    10    11    2
     8    10    16   am
     9    16    17    1
    10   130   128   ar
    11    48    47    1
    12    19    18    2
    13     7     5    1
    14    28    30   ar
    15    28    27   ar
    16    30    32   ar
    17   128   127    1
    18   128   129   ar
    19    18    17    1
    20    18    22   am
    21    17    20    1
    22    47    46   ar
    23    47    45   ar
    24     3     2    1
    25     3     4    2
    26     2     5    1
    27     2     1    1
    28    46    44   ar
    29   127   126    1
    30    22    23    1
    31     5     6    1
    32    23    26    1
    33    23    24    1
    34    26    27    1
    35    27    29   ar
    36    20    21    1
    37    32    31   ar
    38    45    43   ar
    39   125   124    2
    40    44    42   ar
    41    33    34    1
    42   126   123    1
    43    24    25    2
    44   124   123    1
    45    29    31   ar
    46    34    35    1
    47    43    42   ar
    48   123   122    1
    49    42    41    1
    50   121   119   ar
    51    35    37   am
    52    35    36    2
    53   117   116    2
    54    37    38    1
    55   119   120   ar
    56   119   118    1
    57    93    92    2
    58    90    91    1
    59    41    38    1
    60   118   115    1
    61   115   116    1
    62   115   114    1
    63    95    97    1
    64    95    94    1
    65    38    39    1
    66   108   107    2
    67    92    91    1
    68    91    94    1
    69   114   107   am
    70   107   106    1
    71    94    96    1
    72    73    71    1
    73    72    71    1
    74    72    74    1
    75    39    40    2
    76    39    49   am
    77   109   106    1
    78   109   110    1
    79   103   102    1
    80    81    80    1
    81    81    75    1
    82    80    79    1
    83    78    77    2
    84   106   105    1
    85   110   111    1
    86    71    68    1
    87    79    76    1
    88    59    58    2
    89    49    50    1
    90    98    99    1
    91    68    69    1
    92    68    67    1
    93    75    76    1
    94    75    69   am
    95   104   102    1
    96   102    99    1
    97   101   100    2
    98    77    76    1
    99    69    70    2
   100    58    67   am
   101    58    57    1
   102    99   100    1
   103   111   112   ar
   104   111   113   ar
   105    50    51    1
   106    50    53    1
   107    56    57    1
   108    56    51   am
   109    88    87    1
   110    54    53    1
   111    66    64    1
   112    57    60    1
   113    51    52    2
   114    53    55    1
   115    87    89    1
   116    87    86    1
   117    60    61    1
   118    64    63    2
   119    64    65    1
   120    63    62    1
   121    86    83    1
   122    61    62    1
   123    83    84    1
   124    83    82    1
   125    84    85    2
