@<TRIPOS>MOLECULE
tmp/4p1hA01.pdb
 125 120 0 0 0
SMALL
GASTEIGER

@<TRIPOS>ATOM
      1  N          6.3500  -50.5800   71.4630 N.3   174  GLN174     -0.1245
      2  CA         7.6300  -49.9320   71.6750 C.3   174  GLN174      0.1566
      3  C          8.2530  -49.4050   70.3950 C.2   174  GLN174      0.2260
      4  O          9.3610  -48.8910   70.4720 O.2   174  GLN174     -0.2867
      5  CB         8.5590  -50.9560   72.3360 C.3   174  GLN174      0.0367
      6  CG         8.0740  -51.4770   73.6270 C.3   174  GLN174      0.0905
      7  CD         7.7740  -50.3750   74.6250 C.2   174  GLN174      0.2608
      8  OE1        8.4610  -49.3030   74.6440 O.2   174  GLN174     -0.2717
      9  NE2        6.7450  -50.5720   75.3590 N.am  174  GLN174     -0.0878
     10  N          3.2520  -60.3200   81.3590 N.3   216  GLU216     -0.1245
     11  CA         4.7310  -60.0020   81.4710 C.3   216  GLU216      0.1567
     12  C          5.1130  -60.3330   82.9070 C.2   216  GLU216      0.2260
     13  O          4.5080  -59.8000   83.8540 O.2   216  GLU216     -0.2867
     14  CB         4.9720  -58.6090   81.1720 C.3   216  GLU216      0.0388
     15  CG         4.7610  -58.3940   79.6630 C.3   216  GLU216      0.1160
     16  CD         5.1270  -57.0020   79.2110 C.2   216  GLU216      0.3649
     17  OE1        4.2970  -56.0460   79.5620 O.co2 216  GLU216     -0.2457
     18  OE2        6.2650  -56.8240   78.5840 O.co2 216  GLU216     -0.2457
     19  N         -1.7610  -51.4720   75.4210 N.3   227  HIS227     -0.1241
     20  CA        -1.0080  -50.3230   74.8230 C.3   227  HIS227      0.1621
     21  C         -1.6760  -49.9300   73.5530 C.2   227  HIS227      0.2264
     22  O         -1.4660  -50.5280   72.5030 O.2   227  HIS227     -0.2867
     23  CB         0.4500  -50.7640   74.5060 C.3   227  HIS227      0.0745
     24  CG         1.3200  -51.1190   75.6370 C.ar  227  HIS227      0.0817
     25  ND1        2.2960  -50.2880   76.1450 N.ar  227  HIS227     -0.2268
     26  CD2        1.4480  -52.3080   76.3090 C.ar  227  HIS227      0.1154
     27  CE1        2.9350  -50.9120   77.1400 C.ar  227  HIS227      0.1986
     28  NE2        2.4370  -52.1390   77.2380 N.ar  227  HIS227     -0.2212
     29  N         11.1710  -47.6470   73.3170 N.3   245  THR245     -0.1218
     30  CA        12.3680  -48.0420   74.0680 C.3   245  THR245      0.1862
     31  C         13.6800  -47.7150   73.3490 C.2   245  THR245      0.2287
     32  O         14.6870  -47.3920   73.9970 O.2   245  THR245     -0.2866
     33  CB        12.3230  -49.6080   74.2130 C.3   245  THR245      0.1770
     34  OG1       11.2350  -50.0420   75.0590 O.3   245  THR245     -0.2211
     35  CG2       13.6290  -50.1330   74.8200 C.3   245  THR245      0.0375
     36  N         11.1700  -41.6740   74.7780 N.3   250  ARG250     -0.1245
     37  CA        10.2530  -42.8060   74.6930 C.3   250  ARG250      0.1563
     38  C          8.8510  -42.3540   74.3240 C.2   250  ARG250      0.2260
     39  O          8.0870  -43.1250   73.7710 O.2   250  ARG250     -0.2867
     40  CB        10.1850  -43.5890   76.0360 C.3   250  ARG250      0.0307
     41  CG        11.5020  -44.2280   76.4990 C.3   250  ARG250      0.0489
     42  CD        11.3140  -44.9720   77.8580 C.3   250  ARG250      0.2205
     43  NE        10.3020  -46.0720   77.8130 N.pl3 250  ARG250     -0.0865
     44  CZ         9.0870  -46.0300   78.3710 C.cat 250  ARG250      0.5346
     45  NH1        8.6760  -44.9530   79.0210 N.pl3 250  ARG250      0.1354
     46  NH2        8.2680  -47.0860   78.2590 N.pl3 250  ARG250      0.1354
     47  N          4.0300  -46.2850   75.1650 N.3   257  PRO257     -0.2102
     48  CA         5.0290  -47.2670   75.5000 C.3   257  PRO257      0.1504
     49  C          4.8490  -47.7580   76.9440 C.2   257  PRO257      0.2575
     50  O          5.4670  -48.7630   77.2860 O.2   257  PRO257     -0.2718
     51  CB         6.3240  -46.4980   75.3630 C.3   257  PRO257      0.0282
     52  CG         5.9780  -45.1630   75.6930 C.3   257  PRO257      0.0208
     53  CD         4.6090  -44.9270   75.1340 C.3   257  PRO257      0.0893
     54  N          4.0580  -47.0900   77.7580 N.am  258  ASP258     -0.1974
     55  CA         3.8740  -47.4990   79.1700 C.3   258  ASP258      0.1708
     56  C          2.5630  -48.3010   79.3680 C.2   258  ASP258      0.2293
     57  O          2.5390  -49.2290   80.1020 O.2   258  ASP258     -0.2864
     58  CB         3.7680  -46.2520   80.0360 C.3   258  ASP258      0.1436
     59  CG         5.1030  -45.5550   80.2790 C.2   258  ASP258      0.3671
     60  OD1        6.1610  -45.9750   79.8060 O.co2 258  ASP258     -0.2456
     61  OD2        5.0310  -44.4920   80.8740 O.co2 258  ASP258     -0.2456
     62  N         12.8500  -62.7510   77.4300 N.3   366  TRP366     -0.1241
     63  CA        13.8130  -61.7270   77.2560 C.3   366  TRP366      0.1605
     64  C         14.3900  -61.1010   78.5390 C.2   366  TRP366      0.2264
     65  O         13.7640  -61.1390   79.5760 O.2   366  TRP366     -0.2867
     66  CB        13.2820  -60.5850   76.3200 C.3   366  TRP366      0.0550
     67  CG        12.0580  -59.8720   76.7650 C.ar  366  TRP366      0.0003
     68  CD1       10.7650  -60.3560   76.7920 C.ar  366  TRP366      0.0946
     69  CD2       11.9520  -58.4950   77.1670 C.ar  366  TRP366      0.0152
     70  NE1        9.8920  -59.3670   77.1550 N.ar  366  TRP366     -0.2442
     71  CE2       10.5820  -58.2350   77.4310 C.ar  366  TRP366      0.0810
     72  CE3       12.8610  -57.4430   77.2470 C.ar  366  TRP366      0.0012
     73  CZ2       10.1130  -56.9410   77.8030 C.ar  366  TRP366      0.0191
     74  CZ3       12.3600  -56.1480   77.6150 C.ar  366  TRP366      0.0001
     75  CH2       11.0130  -55.9560   77.9090 C.ar  366  TRP366      0.0015
     76  N         16.4150  -57.2610   79.5550 N.3   368  ASP368     -0.1239
     77  CA        16.1470  -55.8490   79.2190 C.3   368  ASP368      0.1674
     78  C         17.4090  -55.0050   79.2280 C.2   368  ASP368      0.2266
     79  O         17.8340  -54.5960   80.3030 O.2   368  ASP368     -0.2867
     80  CB        15.0540  -55.3500   80.1100 C.3   368  ASP368      0.1410
     81  CG        14.6360  -53.8450   79.8850 C.2   368  ASP368      0.3668
     82  OD1       15.1380  -53.3030   78.8430 O.co2 368  ASP368     -0.2456
     83  OD2       13.7500  -53.3620   80.6320 O.co2 368  ASP368     -0.2456
     84  N         16.0820  -50.9150   80.3030 N.3   371  ALA371     -0.1245
     85  CA        15.6350  -50.5630   81.6400 C.3   371  ALA371      0.1562
     86  C         15.7490  -51.7130   82.7050 C.2   371  ALA371      0.2260
     87  O         15.2140  -51.5980   83.8160 O.2   371  ALA371     -0.2867
     88  CB        14.1780  -50.1120   81.5770 C.3   371  ALA371      0.0290
     89  N         10.9500  -51.8260   85.7900 N.3   375  TRP375     -0.1241
     90  CA         9.5470  -51.3960   85.6290 C.3   375  TRP375      0.1605
     91  C          8.5370  -52.5020   86.0340 C.2   375  TRP375      0.2264
     92  O          7.3860  -52.2480   86.4180 O.2   375  TRP375     -0.2867
     93  CB         9.3260  -50.9260   84.2000 C.3   375  TRP375      0.0550
     94  CG         9.6610  -51.8820   83.1820 C.ar  375  TRP375      0.0003
     95  CD1       10.8750  -52.0150   82.5490 C.ar  375  TRP375      0.0946
     96  CD2        8.8360  -52.9190   82.6790 C.ar  375  TRP375      0.0152
     97  NE1       10.8150  -53.0710   81.6780 N.ar  375  TRP375     -0.2442
     98  CE2        9.5640  -53.5940   81.6880 C.ar  375  TRP375      0.0810
     99  CE3        7.4890  -53.2420   82.8460 C.ar  375  TRP375      0.0012
    100  CZ2        9.0190  -54.7060   80.9680 C.ar  375  TRP375      0.0191
    101  CZ3        6.9440  -54.3450   82.1130 C.ar  375  TRP375      0.0001
    102  CH2        7.7200  -55.0340   81.2380 C.ar  375  TRP375      0.0015
    103  N         10.8510  -48.1240   90.3140 N.3   380  TYR380     -0.1241
    104  CA        11.0000  -47.5080   88.9980 C.3   380  TYR380      0.1605
    105  C         10.0000  -46.3500   88.9390 C.2   380  TYR380      0.2264
    106  O          8.8980  -46.4890   89.4070 O.2   380  TYR380     -0.2867
    107  CB        10.6860  -48.5340   87.9220 C.3   380  TYR380      0.0534
    108  CG        10.8460  -48.0500   86.4800 C.ar  380  TYR380     -0.0201
    109  CD1       11.9870  -48.1340   85.8400 C.ar  380  TYR380     -0.0009
    110  CD2        9.8090  -47.4490   85.8540 C.ar  380  TYR380     -0.0009
    111  CE1       12.1100  -47.6190   84.5310 C.ar  380  TYR380      0.0417
    112  CE2        9.9210  -46.9380   84.5830 C.ar  380  TYR380      0.0417
    113  CZ        11.0840  -47.0590   83.9300 C.ar  380  TYR380      0.1957
    114  OH        11.2270  -46.5190   82.6580 O.3   380  TYR380     -0.2866
    115  N          7.2520  -51.9260   92.2660 N.3   393  ARG393     -0.1245
    116  CA         6.5380  -52.9160   91.4860 C.3   393  ARG393      0.1563
    117  C          6.9100  -54.3150   91.8380 C.2   393  ARG393      0.2260
    118  O          6.2310  -55.2520   91.3910 O.2   393  ARG393     -0.2867
    119  CB         6.8130  -52.6720   89.9940 C.3   393  ARG393      0.0307
    120  CG         6.3980  -51.2420   89.5060 C.3   393  ARG393      0.0489
    121  CD         7.5440  -50.4070   89.1940 C.3   393  ARG393      0.2205
    122  NE         7.1450  -49.0490   88.8480 N.pl3 393  ARG393     -0.0865
    123  CZ         6.6760  -48.7270   87.6820 C.cat 393  ARG393      0.5346
    124  NH1        6.4740  -49.5840   86.7240 N.pl3 393  ARG393      0.1354
    125  NH2        6.3500  -47.4420   87.4830 N.pl3 393  ARG393      0.1354
@<TRIPOS>BOND
     1     3     4    2
     2     3     2    1
     3     1     2    1
     4     2     5    1
     5     5     6    1
     6    22    21    2
     7    29    30    1
     8    31    32    2
     9    31    30    1
    10    21    20    1
    11     6     7    1
    12    39    38    2
    13    30    33    1
    14    33    35    1
    15    33    34    1
    16    38    37    1
    17    23    20    1
    18    23    24    1
    19     7     8    2
    20     7     9   am
    21    37    36    1
    22    37    40    1
    23    20    19    1
    24    53    47    1
    25    53    52    1
    26    47    48    1
    27    51    48    1
    28    51    52    1
    29    48    49    1
    30    24    25   ar
    31    24    26   ar
    32    40    41    1
    33    25    27   ar
    34    26    28   ar
    35    66    67    1
    36    66    63    1
    37    41    42    1
    38    67    68   ar
    39    67    69   ar
    40    68    70   ar
    41    49    50    2
    42    49    54   am
    43    27    28   ar
    44    70    71   ar
    45    69    72   ar
    46    69    71   ar
    47    72    74   ar
    48    63    62    1
    49    63    64    1
    50    71    73   ar
    51    74    75   ar
    52    54    55    1
    53    73    75   ar
    54    43    42    1
    55    43    44    2
    56    46    44    1
    57    44    45    1
    58    64    65    2
    59    18    16   ar
    60    82    81   ar
    61    55    56    1
    62    55    58    1
    63    16    17   ar
    64    16    15    1
    65    77    78    1
    66    77    76    1
    67    77    80    1
    68    78    79    2
    69    56    57    2
    70    15    14    1
    71    60    59   ar
    72    81    80    1
    73    81    83   ar
    74    58    59    1
    75    59    61   ar
    76    84    85    1
    77   100   102   ar
    78   100    98   ar
    79    14    11    1
    80   102   101   ar
    81    10    11    1
    82    11    12    1
    83    88    85    1
    84    85    86    1
    85    97    98   ar
    86    97    95   ar
    87    98    96   ar
    88   101    99   ar
    89    95    94   ar
    90   114   113    1
    91    96    99   ar
    92    96    94   ar
    93    86    87    2
    94    12    13    2
    95    94    93    1
    96   113   111   ar
    97   113   112   ar
    98    93    90    1
    99   111   109   ar
   100   112   110   ar
   101    90    89    1
   102    90    91    1
   103   109   108   ar
   104   110   108   ar
   105    91    92    2
   106   108   107    1
   107   124   123    1
   108   125   123    1
   109   123   122    2
   110   107   104    1
   111   122   121    1
   112   105   104    1
   113   105   106    2
   114   104   103    1
   115   121   120    1
   116   120   119    1
   117   119   116    1
   118   118   117    2
   119   116   117    1
   120   116   115    1
