@<TRIPOS>MOLECULE
tmp/4p1oA00.pdb
 139 137 0 0 0
SMALL
GASTEIGER

@<TRIPOS>ATOM
      1  N        104.2670   32.8930    6.5940 N.3    23  THR23      -0.1218
      2  CA       103.6030   33.7320    7.5760 C.3    23  THR23       0.1862
      3  C        102.1540   33.2870    7.6440 C.2    23  THR23       0.2287
      4  O        101.3790   33.5570    6.7250 O.2    23  THR23      -0.2866
      5  CB       103.6550   35.2130    7.1880 C.3    23  THR23       0.1770
      6  OG1      105.0190   35.6110    7.0010 O.3    23  THR23      -0.2211
      7  CG2      103.0280   36.0660    8.2770 C.3    23  THR23       0.0375
      8  N         98.8880   35.9230   11.2510 N.3    27  ASP27      -0.1225
      9  CA        99.9660   36.9000   11.3470 C.3    27  ASP27       0.1805
     10  C        100.0510   37.7690   10.0960 C.2    27  ASP27       0.2598
     11  O        100.9860   38.5500    9.9400 O.2    27  ASP27      -0.2718
     12  CB       101.3120   36.2090   11.5880 C.3    27  ASP27       0.1424
     13  CG       101.4450   35.6580   12.9950 C.2    27  ASP27       0.3668
     14  OD1      100.7120   36.1210   13.8930 O.co2  27  ASP27      -0.2456
     15  OD2      102.2950   34.7670   13.2000 O.co2  27  ASP27      -0.2456
     16  N         99.0700   37.6300    9.2100 N.am   28  CYS28      -0.1956
     17  CA        99.0560   38.3890    7.9630 C.3    28  CYS28       0.1843
     18  C         98.2550   39.6840    8.0690 C.2    28  CYS28       0.2625
     19  O         97.1050   39.6760    8.5020 O.2    28  CYS28      -0.2714
     20  CB        98.5000   37.5380    6.8180 C.3    28  CYS28       0.0997
     21  SG        99.5970   36.2250    6.2540 S.3    28  CYS28      -0.0797
     22  N         98.8680   40.7940    7.6710 N.am   29  PHE29      -0.1974
     23  CA        98.1510   42.0560    7.5560 C.3    29  PHE29       0.1639
     24  C         97.3620   42.0690    6.2520 C.2    29  PHE29       0.2290
     25  O         97.9380   42.1860    5.1700 O.2    29  PHE29      -0.2864
     26  CB        99.1160   43.2400    7.5920 C.3    29  PHE29       0.0560
     27  CG        98.4570   44.5650    7.3240 C.ar   29  PHE29      -0.0200
     28  CD1       97.7730   45.2290    8.3310 C.ar   29  PHE29      -0.0042
     29  CD2       98.5210   45.1480    6.0650 C.ar   29  PHE29      -0.0042
     30  CE1       97.1630   46.4480    8.0890 C.ar   29  PHE29      -0.0003
     31  CE2       97.9110   46.3680    5.8140 C.ar   29  PHE29      -0.0003
     32  CZ        97.2320   47.0190    6.8280 C.ar   29  PHE29      -0.0000
     33  N        103.6440   49.1050    6.5630 N.3    49  GLY49      -0.1210
     34  CA       105.0070   48.8100    6.1560 C.3    49  GLY49       0.1956
     35  C        105.0950   47.7260    5.0990 C.2    49  GLY49       0.2612
     36  O        106.1540   47.5070    4.5090 O.2    49  GLY49      -0.2717
     37  N        103.9780   47.0490    4.8530 N.am   50  TYR50      -0.1962
     38  CA       103.9460   45.9560    3.8890 C.3    50  TYR50       0.1771
     39  C        103.6660   46.4480    2.4740 C.2    50  TYR50       0.2620
     40  O        102.7120   47.1870    2.2410 O.2    50  TYR50      -0.2715
     41  CB       102.9110   44.9060    4.2990 C.3    50  TYR50       0.0574
     42  CG       103.2070   44.2590    5.6320 C.ar   50  TYR50      -0.0198
     43  CD1      104.2110   43.3120    5.7540 C.ar   50  TYR50      -0.0009
     44  CD2      102.4830   44.5970    6.7660 C.ar   50  TYR50      -0.0009
     45  CE1      104.4890   42.7190    6.9690 C.ar   50  TYR50       0.0417
     46  CE2      102.7520   44.0080    7.9860 C.ar   50  TYR50       0.0417
     47  CZ       103.7560   43.0700    8.0800 C.ar   50  TYR50       0.1957
     48  OH       104.0320   42.4790    9.2890 O.3    50  TYR50      -0.2866
     49  N        104.5100   46.0250    1.5380 N.am   51  THR51      -0.1937
     50  CA       104.3580   46.3720    0.1290 C.3    51  THR51       0.2028
     51  C        103.1490   45.6640   -0.4830 C.2    51  THR51       0.2642
     52  O        102.3970   46.2530   -1.2610 O.2    51  THR51      -0.2714
     53  CB       105.6260   46.0060   -0.6720 C.3    51  THR51       0.1808
     54  OG1      106.7380   46.7690   -0.1890 O.3    51  THR51      -0.2208
     55  CG2      105.4310   46.2860   -2.1520 C.3    51  THR51       0.0379
     56  N        102.9620   44.3980   -0.1220 N.am   52  ARG52      -0.1963
     57  CA       101.8530   43.6130   -0.6520 C.3    52  ARG52       0.1729
     58  C        100.8650   43.1830    0.4300 C.2    52  ARG52       0.2616
     59  O        101.2320   42.5180    1.3950 O.2    52  ARG52      -0.2715
     60  CB       102.3750   42.4000   -1.4240 C.3    52  ARG52       0.0348
     61  CG       102.9310   42.7440   -2.7980 C.3    52  ARG52       0.0492
     62  CD       103.6730   41.5690   -3.4160 C.3    52  ARG52       0.2205
     63  NE       104.9480   41.3200   -2.7500 N.pl3  52  ARG52      -0.0865
     64  CZ       106.1020   41.8690   -3.1160 C.cat  52  ARG52       0.5346
     65  NH1      106.1460   42.6980   -4.1490 N.pl3  52  ARG52       0.1354
     66  NH2      107.2130   41.5880   -2.4490 N.pl3  52  ARG52       0.1354
     67  N         99.6060   43.5720    0.2480 N.am   53  ILE53      -0.1964
     68  CA        98.5400   43.2700    1.1970 C.3    53  ILE53       0.1712
     69  C         97.4940   42.3740    0.5520 C.2    53  ILE53       0.2458
     70  O         96.8150   42.7920   -0.3820 O.2    53  ILE53      -0.2730
     71  CB        97.8200   44.5500    1.6690 C.3    53  ILE53       0.0289
     72  CG1       98.7720   45.4660    2.4370 C.3    53  ILE53       0.0022
     73  CG2       96.6150   44.2010    2.5280 C.3    53  ILE53       0.0023
     74  CD1       99.4820   46.4770    1.5670 C.3    53  ILE53       0.0001
     75  N         97.3510   41.1360    1.0500 N.am   54  PRO54      -0.2727
     76  CA        96.3200   40.2530    0.4970 C.3    54  PRO54       0.1402
     77  C         94.9240   40.8020    0.7760 C.2    54  PRO54       0.2269
     78  O         94.6590   41.2690    1.8850 O.2    54  PRO54      -0.2865
     79  CB        96.5350   38.9420    1.2600 C.3    54  PRO54       0.0296
     80  CG        97.9430   39.0120    1.7620 C.3    54  PRO54       0.0237
     81  CD        98.1680   40.4600    2.0700 C.3    54  PRO54       0.0939
     82  N        106.3750   37.5130   -6.1860 N.3   116  HIS116     -0.1226
     83  CA       107.1730   37.6120   -4.9720 C.3   116  HIS116      0.1752
     84  C        106.3780   37.0780   -3.7930 C.2   116  HIS116      0.2595
     85  O        106.9270   36.8330   -2.7210 O.2   116  HIS116     -0.2718
     86  CB       107.5740   39.0620   -4.7060 C.3   116  HIS116      0.0759
     87  CG       108.6250   39.5850   -5.6280 C.ar  116  HIS116      0.0818
     88  ND1      109.3660   38.7600   -6.4600 N.ar  116  HIS116     -0.2268
     89  CD2      109.0730   40.8370   -5.8600 C.ar  116  HIS116      0.1154
     90  CE1      110.2140   39.4890   -7.1560 C.ar  116  HIS116      0.1986
     91  NE2      110.0570   40.7600   -6.8110 N.ar  116  HIS116     -0.2212
     92  N        105.0770   36.9040   -3.9990 N.am  117  LEU117     -0.1980
     93  CA       104.1860   36.4470   -2.9410 C.3   117  LEU117      0.1596
     94  C        103.2590   35.3390   -3.4320 C.2   117  LEU117      0.2287
     95  O        102.4870   35.5310   -4.3710 O.2   117  LEU117     -0.2864
     96  CB       103.3660   37.6180   -2.3920 C.3   117  LEU117      0.0297
     97  CG       102.4830   37.3560   -1.1680 C.3   117  LEU117      0.0022
     98  CD1      102.5660   38.5220   -0.2020 C.3   117  LEU117      0.0001
     99  CD2      101.0390   37.1200   -1.5790 C.3   117  LEU117      0.0001
    100  N        100.6080   32.9950    3.8580 N.3   138  ILE138     -0.1245
    101  CA       101.3590   33.4890    2.7120 C.3   138  ILE138      0.1561
    102  C        102.8430   33.1600    2.8400 C.2   138  ILE138      0.2260
    103  O        103.3610   32.9910    3.9420 O.2   138  ILE138     -0.2867
    104  CB       101.1870   35.0110    2.5160 C.3   138  ILE138      0.0252
    105  CG1      101.9070   35.7850    3.6210 C.3   138  ILE138      0.0019
    106  CG2       99.7130   35.3870    2.4620 C.3   138  ILE138      0.0019
    107  CD1      101.8150   37.2940    3.4670 C.3   138  ILE138      0.0001
    108  N        106.6390   34.4910    1.0050 N.3   140  THR140     -0.1203
    109  CA       107.2650   35.4220    0.0770 C.3   140  THR140      0.1994
    110  C        108.7090   35.0320   -0.2080 C.2   140  THR140      0.2618
    111  O        109.2760   34.1800    0.4750 O.2   140  THR140     -0.2717
    112  CB       107.1900   36.8840    0.5760 C.3   140  THR140      0.1784
    113  OG1      108.1260   37.0860    1.6400 O.3   140  THR140     -0.2211
    114  CG2      105.7860   37.2130    1.0630 C.3   140  THR140      0.0376
    115  N        109.2900   35.6550   -1.2280 N.am  141  LEU141     -0.1965
    116  CA       110.6780   35.4050   -1.5970 C.3   141  LEU141      0.1728
    117  C        111.6070   35.6850   -0.4200 C.2   141  LEU141      0.2616
    118  O        112.6120   34.9970   -0.2280 O.2   141  LEU141     -0.2715
    119  CB       111.0640   36.2660   -2.8020 C.3   141  LEU141      0.0311
    120  CG       112.4950   36.1540   -3.3260 C.3   141  LEU141      0.0022
    121  CD1      112.8230   34.7120   -3.6650 C.3   141  LEU141      0.0001
    122  CD2      112.6870   37.0490   -4.5370 C.3   141  LEU141      0.0001
    123  N        111.2470   36.6880    0.3750 N.am  142  GLU142     -0.1963
    124  CA       112.0480   37.0950    1.5230 C.3   142  GLU142      0.1733
    125  C        112.1450   35.9790    2.5560 C.2   142  GLU142      0.2616
    126  O        113.1530   35.8540    3.2430 O.2   142  GLU142     -0.2715
    127  CB       111.4660   38.3600    2.1600 C.3   142  GLU142      0.0429
    128  CG       112.4790   39.2160    2.9140 C.3   142  GLU142      0.1163
    129  CD       112.8370   38.6660    4.2870 C.2   142  GLU142      0.3649
    130  OE1      111.9840   37.9970    4.9110 O.co2 142  GLU142     -0.2457
    131  OE2      113.9760   38.9060    4.7440 O.co2 142  GLU142     -0.2457
    132  N        111.0960   35.1710    2.6610 N.am  143  ASP143     -0.1971
    133  CA       111.1000   34.0300    3.5720 C.3   143  ASP143      0.1709
    134  C        112.1680   33.0120    3.1690 C.2   143  ASP143      0.2293
    135  O        112.9900   32.5940    3.9900 O.2   143  ASP143     -0.2864
    136  CB       109.7240   33.3590    3.6020 C.3   143  ASP143      0.1436
    137  CG       108.6460   34.2590    4.1780 C.2   143  ASP143      0.3671
    138  OD1      107.5450   34.3290    3.5910 O.co2 143  ASP143     -0.2456
    139  OD2      108.8990   34.8900    5.2240 O.co2 143  ASP143     -0.2456
@<TRIPOS>BOND
     1    90    91   ar
     2    90    88   ar
     3    91    89   ar
     4    88    87   ar
     5    82    83    1
     6    89    87   ar
     7    87    86    1
     8    83    86    1
     9    83    84    1
    10   122   120    1
    11    95    94    2
    12    65    64    1
    13    92    84   am
    14    92    93    1
    15    84    85    2
    16   121   120    1
    17    94    93    1
    18    62    61    1
    19    62    63    1
    20   120   119    1
    21    64    63    2
    22    64    66    1
    23    93    96    1
    24   119   116    1
    25    61    60    1
    26    96    97    1
    27    55    53    1
    28   116   115    1
    29   116   117    1
    30    99    97    1
    31    60    57    1
    32    52    51    2
    33   115   110   am
    34    97    98    1
    35    53    54    1
    36    53    50    1
    37    57    56    1
    38    57    58    1
    39    51    56   am
    40    51    50    1
    41   117   118    2
    42   117   123   am
    43    70    69    2
    44   110   109    1
    45   110   111    2
    46   109   112    1
    47   109   108    1
    48    50    49    1
    49    67    58   am
    50    67    68    1
    51   123   124    1
    52    58    59    2
    53    76    77    1
    54    76    75    1
    55    76    79    1
    56    69    75   am
    57    69    68    1
    58   112   114    1
    59   112   113    1
    60    77    78    2
    61    75    81    1
    62    68    71    1
    63    79    80    1
    64   124   127    1
    65   124   125    1
    66    49    39   am
    67    74    72    1
    68    71    72    1
    69    71    73    1
    70    80    81    1
    71   127   128    1
    72    40    39    2
    73   106   104    1
    74    39    38    1
    75   104   101    1
    76   104   105    1
    77   125   132   am
    78   125   126    2
    79   132   133    1
    80   101   102    1
    81   101   100    1
    82   102   103    2
    83   128   129    1
    84   134   133    1
    85   134   135    2
    86   107   105    1
    87   133   136    1
    88   138   137   ar
    89   136   137    1
    90    38    41    1
    91    38    37    1
    92   137   139   ar
    93   129   131   ar
    94   129   130   ar
    95    41    42    1
    96    36    35    2
    97    37    35   am
    98    35    34    1
    99    25    24    2
   100    42    43   ar
   101    42    44   ar
   102    43    45   ar
   103    31    29   ar
   104    31    32   ar
   105    29    27   ar
   106    34    33    1
   107    24    23    1
   108    21    20    1
   109     1     2    1
   110     4     3    2
   111    44    46   ar
   112    20    17    1
   113    32    30   ar
   114    45    47   ar
   115     6     5    1
   116     5     2    1
   117     5     7    1
   118    27    26    1
   119    27    28   ar
   120    23    26    1
   121    23    22    1
   122     2     3    1
   123    22    18   am
   124    17    18    1
   125    17    16    1
   126    46    47   ar
   127    18    19    2
   128    47    48    1
   129    30    28   ar
   130    16    10   am
   131    11    10    2
   132    10     9    1
   133     8     9    1
   134     9    12    1
   135    12    13    1
   136    13    15   ar
   137    13    14   ar
