@<TRIPOS>MOLECULE
tmp/4p1rA00.pdb
 170 163 0 0 0
SMALL
GASTEIGER

@<TRIPOS>ATOM
      1  N         32.4890  -78.7590  -32.8680 N.3    73  TYR73      -0.1241
      2  CA        31.4410  -77.7660  -32.7350 C.3    73  TYR73       0.1605
      3  C         31.8370  -76.3360  -33.0790 C.2    73  TYR73       0.2264
      4  O         31.1720  -75.7130  -33.8620 O.2    73  TYR73      -0.2867
      5  CB        30.8040  -77.8180  -31.3440 C.3    73  TYR73       0.0534
      6  CG        29.7050  -76.8000  -31.1640 C.ar   73  TYR73      -0.0201
      7  CD1       28.4690  -76.9880  -31.7270 C.ar   73  TYR73      -0.0009
      8  CD2       29.9180  -75.6490  -30.4470 C.ar   73  TYR73      -0.0009
      9  CE1       27.4740  -76.0610  -31.5850 C.ar   73  TYR73       0.0417
     10  CE2       28.9270  -74.7150  -30.2970 C.ar   73  TYR73       0.0417
     11  CZ        27.7060  -74.9290  -30.8730 C.ar   73  TYR73       0.1957
     12  OH        26.7240  -74.0160  -30.7230 O.3    73  TYR73      -0.2866
     13  N         30.0620  -66.1480  -22.5690 N.3   184  LEU184     -0.1245
     14  CA        28.8180  -66.4220  -21.8850 C.3   184  LEU184      0.1561
     15  C         28.8630  -65.9860  -20.4340 C.2   184  LEU184      0.2260
     16  O         27.8550  -65.6960  -19.8450 O.2   184  LEU184     -0.2867
     17  CB        28.4490  -67.8920  -21.9980 C.3   184  LEU184      0.0270
     18  CG        27.0190  -68.2430  -21.6080 C.3   184  LEU184      0.0019
     19  CD1       26.0120  -67.4990  -22.4570 C.3   184  LEU184      0.0001
     20  CD2       26.7790  -69.7360  -21.6560 C.3   184  LEU184      0.0001
     21  N         23.8720  -69.0200  -29.4420 N.3   224  LEU224     -0.1245
     22  CA        23.2000  -70.2020  -28.9100 C.3   224  LEU224      0.1561
     23  C         22.0860  -70.7350  -29.8110 C.2   224  LEU224      0.2260
     24  O         21.2860  -71.5650  -29.3700 O.2   224  LEU224     -0.2867
     25  CB        22.6000  -69.8950  -27.5250 C.3   224  LEU224      0.0270
     26  CG        23.5530  -69.4750  -26.4010 C.3   224  LEU224      0.0019
     27  CD1       22.7590  -69.1770  -25.1210 C.3   224  LEU224      0.0001
     28  CD2       24.6560  -70.5070  -26.1580 C.3   224  LEU224      0.0001
     29  N         21.5670  -72.8710  -31.8170 N.3   226  SER226     -0.1202
     30  CA        21.3710  -74.3230  -31.8570 C.3   226  SER226      0.2020
     31  C         20.0670  -74.7520  -31.2110 C.2   226  SER226      0.2618
     32  O         19.3860  -75.6510  -31.6990 O.2   226  SER226     -0.2717
     33  CB        22.5090  -75.0500  -31.1400 C.3   226  SER226      0.2103
     34  OG        22.2000  -76.4180  -31.0220 O.3   226  SER226     -0.2182
     35  N         19.7460  -74.1220  -30.0890 N.am  227  VAL227     -0.1979
     36  CA        18.5590  -74.4910  -29.3330 C.3   227  VAL227      0.1595
     37  C         17.2920  -73.9130  -29.9710 C.2   227  VAL227      0.2287
     38  O         16.1990  -74.1150  -29.4580 O.2   227  VAL227     -0.2864
     39  CB        18.6510  -74.0140  -27.8690 C.3   227  VAL227      0.0276
     40  CG1       19.8820  -74.6330  -27.1890 C.3   227  VAL227      0.0022
     41  CG2       18.6770  -72.4950  -27.7850 C.3   227  VAL227      0.0022
     42  N         18.4700  -79.6520  -33.7320 N.3   234  THR234     -0.1218
     43  CA        18.9140  -79.3710  -32.3630 C.3   234  THR234      0.1862
     44  C         19.5240  -80.5800  -31.6750 C.2   234  THR234      0.2287
     45  O         20.5900  -80.4890  -31.0520 O.2   234  THR234     -0.2866
     46  CB        17.7500  -78.8570  -31.4960 C.3   234  THR234      0.1770
     47  OG1       17.2910  -77.6020  -32.0100 O.3   234  THR234     -0.2211
     48  CG2       18.1800  -78.7030  -30.0460 C.3   234  THR234      0.0375
     49  N         23.5470  -81.2390  -30.7000 N.3   238  ALA238     -0.1245
     50  CA        23.9380  -81.5340  -29.3140 C.3   238  ALA238      0.1562
     51  C         25.0680  -82.5660  -29.2480 C.2   238  ALA238      0.2260
     52  O         25.9280  -82.4940  -28.3630 O.2   238  ALA238     -0.2867
     53  CB        22.7440  -82.0260  -28.5050 C.3   238  ALA238      0.0290
     54  N         28.3690  -80.7050  -29.6850 N.3   241  ILE241     -0.1231
     55  CA        28.7450  -79.9020  -28.5130 C.3   241  ILE241      0.1692
     56  C         29.3770  -80.7700  -27.4430 C.2   241  ILE241      0.2592
     57  O         30.4330  -80.4510  -26.9170 O.2   241  ILE241     -0.2718
     58  CB        27.5270  -79.1530  -27.8660 C.3   241  ILE241      0.0266
     59  CG1       26.9750  -78.0770  -28.7820 C.3   241  ILE241      0.0019
     60  CG2       27.8790  -78.5130  -26.5290 C.3   241  ILE241      0.0020
     61  CD1       25.6340  -78.4100  -29.3530 C.3   241  ILE241      0.0001
     62  N         28.7110  -81.8690  -27.1120 N.am  242  TYR242     -0.1976
     63  CA        29.2460  -82.7740  -26.1110 C.3   242  TYR242      0.1639
     64  C         30.5430  -83.4870  -26.5260 C.2   242  TYR242      0.2290
     65  O         31.3580  -83.8170  -25.6530 O.2   242  TYR242     -0.2864
     66  CB        28.1910  -83.8000  -25.6940 C.3   242  TYR242      0.0560
     67  CG        27.1130  -83.1990  -24.8140 C.ar  242  TYR242     -0.0198
     68  CD1       27.3720  -82.9660  -23.4710 C.ar  242  TYR242     -0.0009
     69  CD2       25.8250  -82.9530  -25.2880 C.ar  242  TYR242     -0.0009
     70  CE1       26.4160  -82.4360  -22.6340 C.ar  242  TYR242      0.0417
     71  CE2       24.8460  -82.4300  -24.4430 C.ar  242  TYR242      0.0417
     72  CZ        25.1570  -82.1770  -23.1180 C.ar  242  TYR242      0.1957
     73  OH        24.2260  -81.6540  -22.2550 O.3   242  TYR242     -0.2866
     74  N         32.9830  -80.8840  -25.3760 N.3   245  PHE245     -0.1227
     75  CA        33.0350  -80.7710  -23.9320 C.3   245  PHE245      0.1736
     76  C         33.6400  -82.0020  -23.2620 C.2   245  PHE245      0.2595
     77  O         34.4220  -81.8720  -22.3530 O.2   245  PHE245     -0.2718
     78  CB        31.6590  -80.4840  -23.3300 C.3   245  PHE245      0.0547
     79  CG        31.1010  -79.1360  -23.6630 C.ar  245  PHE245     -0.0202
     80  CD1       31.8220  -78.2220  -24.3790 C.ar  245  PHE245     -0.0042
     81  CD2       29.8520  -78.7820  -23.2200 C.ar  245  PHE245     -0.0042
     82  CE1       31.3010  -76.9910  -24.6720 C.ar  245  PHE245     -0.0003
     83  CE2       29.3250  -77.5490  -23.5010 C.ar  245  PHE245     -0.0003
     84  CZ        30.0490  -76.6500  -24.2300 C.ar  245  PHE245     -0.0000
     85  N         33.2600  -83.1870  -23.7150 N.am  246  TRP246     -0.1976
     86  CA        33.7770  -84.4170  -23.1480 C.3   246  TRP246      0.1640
     87  C         35.2750  -84.5560  -23.3560 C.2   246  TRP246      0.2290
     88  O         35.9630  -85.0390  -22.4940 O.2   246  TRP246     -0.2864
     89  CB        33.0320  -85.6460  -23.6700 C.3   246  TRP246      0.0576
     90  CG        31.6110  -85.7290  -23.2140 C.ar  246  TRP246      0.0006
     91  CD1       31.0850  -85.1600  -22.1120 C.ar  246  TRP246      0.0946
     92  CD2       30.5410  -86.4370  -23.8450 C.ar  246  TRP246      0.0152
     93  NE1       29.7710  -85.4540  -22.0120 N.ar  246  TRP246     -0.2442
     94  CE2       29.4040  -86.2370  -23.0660 C.ar  246  TRP246      0.0810
     95  CE3       30.4370  -87.2190  -24.9930 C.ar  246  TRP246      0.0012
     96  CZ2       28.1780  -86.7810  -23.3920 C.ar  246  TRP246      0.0191
     97  CZ3       29.2260  -87.7590  -25.3090 C.ar  246  TRP246      0.0001
     98  CH2       28.1130  -87.5390  -24.5170 C.ar  246  TRP246      0.0015
     99  N         30.0850  -82.0990  -14.2840 N.3   261  PRO261     -0.2102
    100  CA        29.2640  -83.0490  -15.0480 C.3   261  PRO261      0.1504
    101  C         29.0290  -82.6670  -16.5190 C.2   261  PRO261      0.2575
    102  O         28.9500  -83.5600  -17.3570 O.2   261  PRO261     -0.2718
    103  CB        27.9360  -83.0530  -14.2720 C.3   261  PRO261      0.0282
    104  CG        28.3390  -82.7270  -12.8620 C.3   261  PRO261      0.0208
    105  CD        29.4550  -81.7420  -12.9940 C.3   261  PRO261      0.0893
    106  N         28.9330  -81.3840  -16.8130 N.am  262  MET262     -0.1980
    107  CA        28.7970  -80.9010  -18.1720 C.3   262  MET262      0.1605
    108  C         29.8900  -81.4320  -19.1030 C.2   262  MET262      0.2287
    109  O         29.6230  -81.7560  -20.2400 O.2   262  MET262     -0.2864
    110  CB        28.7920  -79.3760  -18.1550 C.3   262  MET262      0.0413
    111  CG        28.8230  -78.6850  -19.4990 C.3   262  MET262      0.0598
    112  SD        28.6730  -76.9040  -19.3460 S.3   262  MET262     -0.1393
    113  CE        30.2240  -76.4440  -18.6360 C.3   262  MET262      0.0692
    114  N         31.9250  -84.1130  -18.4110 N.3   264  ASP264     -0.1239
    115  CA        32.2920  -85.4720  -18.0620 C.3   264  ASP264      0.1674
    116  C         31.4990  -86.5180  -18.8190 C.2   264  ASP264      0.2266
    117  O         30.3120  -86.6630  -18.6190 O.2   264  ASP264     -0.2867
    118  CB        32.1150  -85.6900  -16.5660 C.3   264  ASP264      0.1410
    119  CG        32.7630  -86.9640  -16.0760 C.2   264  ASP264      0.3668
    120  OD1       33.1140  -87.8310  -16.8740 O.co2 264  ASP264     -0.2456
    121  OD2       32.9120  -87.0890  -14.8700 O.co2 264  ASP264     -0.2456
    122  N         29.1080  -89.0300  -17.3160 N.3   267  LYS267     -0.1245
    123  CA        27.7630  -88.6070  -16.9470 C.3   267  LYS267      0.1561
    124  C         26.8030  -88.5200  -18.1350 C.2   267  LYS267      0.2260
    125  O         25.8000  -87.8250  -18.0400 O.2   267  LYS267     -0.2867
    126  CB        27.8080  -87.2450  -16.2530 C.3   267  LYS267      0.0271
    127  CG        28.7660  -87.1440  -15.0640 C.3   267  LYS267      0.0035
    128  CD        28.4510  -88.1060  -13.9430 C.3   267  LYS267      0.0206
    129  CE        29.3890  -87.8660  -12.7630 C.3   267  LYS267      0.1093
    130  NZ        29.1690  -88.8370  -11.6530 N.3   267  LYS267     -0.1314
    131  N         22.9530  -88.5280  -17.8980 N.3   270  GLU270     -0.1231
    132  CA        22.3520  -87.3480  -17.3090 C.3   270  GLU270      0.1699
    133  C         22.3440  -86.1200  -18.2090 C.2   270  GLU270      0.2592
    134  O         21.9620  -85.0570  -17.7780 O.2   270  GLU270     -0.2718
    135  CB        23.0230  -87.0170  -15.9880 C.3   270  GLU270      0.0402
    136  CG        22.8560  -88.0790  -14.9260 C.3   270  GLU270      0.1161
    137  CD        23.8310  -87.9140  -13.7950 C.2   270  GLU270      0.3649
    138  OE1       24.6550  -88.8060  -13.5840 O.co2 270  GLU270     -0.2457
    139  OE2       23.7940  -86.8820  -13.1290 O.co2 270  GLU270     -0.2457
    140  N         22.7540  -86.2820  -19.4560 N.am  271  VAL271     -0.1980
    141  CA        22.6140  -85.2160  -20.4590 C.3   271  VAL271      0.1595
    142  C         21.2080  -84.5850  -20.5640 C.2   271  VAL271      0.2287
    143  O         21.1010  -83.3580  -20.5120 O.2   271  VAL271     -0.2864
    144  CB        23.0660  -85.7270  -21.8530 C.3   271  VAL271      0.0276
    145  CG1       22.5900  -84.7960  -22.9500 C.3   271  VAL271      0.0022
    146  CG2       24.6020  -85.8330  -21.8870 C.3   271  VAL271      0.0022
    147  N         20.6590  -82.3160  -17.8930 N.3   274  GLY274     -0.1210
    148  CA        21.6090  -81.2240  -18.0470 C.3   274  GLY274      0.1956
    149  C         21.1390  -80.1970  -19.0700 C.2   274  GLY274      0.2611
    150  O         21.2700  -79.0000  -18.8550 O.2   274  GLY274     -0.2717
    151  N         20.5830  -80.6670  -20.1800 N.am  275  GLN275     -0.1979
    152  CA        19.9700  -79.7730  -21.1580 C.3   275  GLN275      0.1601
    153  C         18.7900  -79.0100  -20.5490 C.2   275  GLN275      0.2287
    154  O         18.6850  -77.7910  -20.7000 O.2   275  GLN275     -0.2864
    155  CB        19.5490  -80.5700  -22.3980 C.3   275  GLN275      0.0394
    156  CG        20.7480  -81.0010  -23.2380 C.3   275  GLN275      0.0908
    157  CD        21.4320  -79.8150  -23.9120 C.2   275  GLN275      0.2608
    158  OE1       20.7690  -78.9870  -24.5530 O.2   275  GLN275     -0.2717
    159  NE2       22.7390  -79.6670  -23.6810 N.am  275  GLN275     -0.0878
    160  N         19.9350  -76.2380  -18.6430 N.3   278  PHE278     -0.1241
    161  CA        20.4670  -75.2120  -19.5130 C.3   278  PHE278      0.1605
    162  C         19.3900  -74.3400  -20.1220 C.2   278  PHE278      0.2264
    163  O         19.5540  -73.1480  -20.2190 O.2   278  PHE278     -0.2867
    164  CB        21.2970  -75.8590  -20.6140 C.3   278  PHE278      0.0534
    165  CG        21.9090  -74.8880  -21.5650 C.ar  278  PHE278     -0.0203
    166  CD1       22.6760  -73.8520  -21.1050 C.ar  278  PHE278     -0.0042
    167  CD2       21.7470  -75.0360  -22.9210 C.ar  278  PHE278     -0.0042
    168  CE1       23.2540  -72.9670  -21.9750 C.ar  278  PHE278     -0.0003
    169  CE2       22.3260  -74.1540  -23.8030 C.ar  278  PHE278     -0.0003
    170  CZ        23.0770  -73.1160  -23.3270 C.ar  278  PHE278     -0.0000
@<TRIPOS>BOND
     1     4     3    2
     2    42    43    1
     3     3     2    1
     4     1     2    1
     5     2     5    1
     6    43    44    1
     7    43    46    1
     8    47    46    1
     9    30    29    1
    10    30    31    1
    11    30    33    1
    12     7     9   ar
    13     7     6   ar
    14    32    31    2
    15    44    45    2
    16     9    11   ar
    17    46    48    1
    18     5     6    1
    19    31    35   am
    20     6     8   ar
    21    33    34    1
    22    11    12    1
    23    11    10   ar
    24    49    50    1
    25     8    10   ar
    26    35    36    1
    27    37    38    2
    28    37    36    1
    29    23    24    2
    30    23    22    1
    31    54    55    1
    32    21    22    1
    33    61    59    1
    34    36    39    1
    35    50    51    1
    36    50    53    1
    37    51    52    2
    38    22    25    1
    39    59    58    1
    40    55    58    1
    41    55    56    1
    42    39    41    1
    43    39    40    1
    44    58    60    1
    45    25    26    1
    46    56    62   am
    47    56    57    2
    48    62    63    1
    49    64    63    1
    50    64    65    2
    51    26    28    1
    52    26    27    1
    53    63    66    1
    54    66    67    1
    55    74    75    1
    56    97    95   ar
    57    97    98   ar
    58    69    67   ar
    59    69    71   ar
    60    95    92   ar
    61    67    68   ar
    62    82    80   ar
    63    82    84   ar
    64   158   157    2
    65    98    96   ar
    66    71    72   ar
    67    80    79   ar
    68    84    83   ar
    69    75    78    1
    70    75    76    1
    71   157   159   am
    72   157   156    1
    73    92    90   ar
    74    92    94   ar
    75   169   170   ar
    76   169   167   ar
    77    85    76   am
    78    85    86    1
    79    89    90    1
    80    89    86    1
    81    79    78    1
    82    79    81   ar
    83    83    81   ar
    84    68    70   ar
    85    96    94   ar
    86    87    86    1
    87    87    88    2
    88   170   168   ar
    89    76    77    2
    90   156   155    1
    91    90    91   ar
    92    72    70   ar
    93    72    73    1
    94    94    93   ar
    95   145   144    1
    96   167   165   ar
    97    13    14    1
    98    19    18    1
    99   155   152    1
   100    91    93   ar
   101    17    14    1
   102    17    18    1
   103   168   166   ar
   104   146   144    1
   105    14    15    1
   106   144   141    1
   107    20    18    1
   108   165   166   ar
   109   165   164    1
   110   152   153    1
   111   152   151    1
   112   154   153    2
   113   164   161    1
   114   142   143    2
   115   142   141    1
   116   141   140    1
   117    15    16    2
   118   109   108    2
   119   163   162    2
   120   151   149   am
   121   162   161    1
   122   161   160    1
   123   111   112    1
   124   111   110    1
   125   140   133   am
   126   112   113    1
   127   108   107    1
   128   149   150    2
   129   149   148    1
   130   116   117    2
   131   116   115    1
   132   114   115    1
   133   133   134    2
   134   133   132    1
   135   107   110    1
   136   107   106    1
   137   124   125    2
   138   124   123    1
   139   115   118    1
   140   148   147    1
   141   131   132    1
   142   102   101    2
   143   122   123    1
   144   132   135    1
   145   123   126    1
   146   120   119   ar
   147   106   101   am
   148   118   119    1
   149   101   100    1
   150   126   127    1
   151   119   121   ar
   152   135   136    1
   153   127   128    1
   154   100    99    1
   155   100   103    1
   156   136   137    1
   157    99   105    1
   158   103   104    1
   159   128   129    1
   160   137   138   ar
   161   137   139   ar
   162   105   104    1
   163   129   130    1
