@<TRIPOS>MOLECULE
tmp/4p1vA00.pdb
 107 102 0 0 0
SMALL
GASTEIGER

@<TRIPOS>ATOM
      1  N        113.2360   50.6980  107.8630 N.3   101  ASP101     -0.1239
      2  CA       112.7620   51.7160  108.7940 C.3   101  ASP101      0.1674
      3  C        112.0620   52.8270  108.0160 C.2   101  ASP101      0.2266
      4  O        112.4760   53.1950  106.9150 O.2   101  ASP101     -0.2867
      5  CB       113.9240   52.3810  109.5570 C.3   101  ASP101      0.1410
      6  CG       114.3690   51.6070  110.7940 C.2   101  ASP101      0.3668
      7  OD1      114.3890   50.3560  110.7800 O.co2 101  ASP101     -0.2456
      8  OD2      114.7100   52.2820  111.7960 O.co2 101  ASP101     -0.2456
      9  N        110.5620   56.8960  108.2890 N.3   103  HIS103     -0.1241
     10  CA       110.7160   58.1420  109.0040 C.3   103  HIS103      0.1621
     11  C        109.5710   59.0110  108.5290 C.2   103  HIS103      0.2264
     12  O        109.5080   59.3720  107.3580 O.2   103  HIS103     -0.2867
     13  CB       112.0950   58.7280  108.7370 C.3   103  HIS103      0.0745
     14  CG       113.1970   57.7610  109.0340 C.ar  103  HIS103      0.0817
     15  ND1      113.8170   57.0170  108.0470 N.ar  103  HIS103     -0.2268
     16  CD2      113.8550   57.4850  110.1790 C.ar  103  HIS103      0.1154
     17  CE1      114.7800   56.2940  108.5910 C.ar  103  HIS103      0.1986
     18  NE2      114.8300   56.5600  109.8780 N.ar  103  HIS103     -0.2212
     19  N        109.2870   63.8400  113.9050 N.3   120  ARG120     -0.1245
     20  CA       109.6500   62.7710  112.9950 C.3   120  ARG120      0.1563
     21  C        109.5530   61.4630  113.7740 C.2   120  ARG120      0.2260
     22  O        110.2160   61.2880  114.8040 O.2   120  ARG120     -0.2867
     23  CB       111.0420   62.9710  112.4020 C.3   120  ARG120      0.0307
     24  CG       111.3010   62.0980  111.1730 C.3   120  ARG120      0.0489
     25  CD       112.7740   62.1020  110.7490 C.3   120  ARG120      0.2205
     26  NE       113.5780   61.3630  111.7250 N.pl3 120  ARG120     -0.0865
     27  CZ       114.8740   61.5400  111.9690 C.cat 120  ARG120      0.5346
     28  NH1      115.6330   62.2830  111.1710 N.pl3 120  ARG120      0.1354
     29  NH2      115.4110   60.9490  113.0300 N.pl3 120  ARG120      0.1354
     30  N        110.1920   57.6370  113.9580 N.3   122  ASP122     -0.1239
     31  CA       111.0990   56.6650  113.3900 C.3   122  ASP122      0.1674
     32  C        110.5610   55.2750  113.7260 C.2   122  ASP122      0.2266
     33  O        110.5050   54.8820  114.8810 O.2   122  ASP122     -0.2867
     34  CB       112.4900   56.9230  113.9620 C.3   122  ASP122      0.1410
     35  CG       112.9630   58.3380  113.6720 C.2   122  ASP122      0.3668
     36  OD1      112.7550   58.8030  112.5330 O.co2 122  ASP122     -0.2456
     37  OD2      113.5090   58.9980  114.5860 O.co2 122  ASP122     -0.2456
     38  N        110.2980   51.0690  113.1170 N.3   124  LYS124     -0.1245
     39  CA       110.9830   49.8590  112.6500 C.3   124  LYS124      0.1561
     40  C        109.9820   48.7790  112.3070 C.2   124  LYS124      0.2260
     41  O        108.9780   48.6390  112.9880 O.2   124  LYS124     -0.2867
     42  CB       111.9060   49.3190  113.7370 C.3   124  LYS124      0.0271
     43  CG       112.9410   50.3300  114.1710 C.3   124  LYS124      0.0035
     44  CD       114.0630   49.7210  114.9910 C.3   124  LYS124      0.0206
     45  CE       114.9450   48.7900  114.1420 C.3   124  LYS124      0.1093
     46  NZ       115.7270   49.4210  113.0240 N.3   124  LYS124     -0.1314
     47  N        112.9710   62.0200  118.2770 N.3   141  ASP141     -0.1239
     48  CA       113.7460   63.0250  118.9830 C.3   141  ASP141      0.1674
     49  C        112.8730   64.1890  119.4350 C.2   141  ASP141      0.2266
     50  O        113.3330   65.0730  120.1470 O.2   141  ASP141     -0.2867
     51  CB       114.8780   63.5600  118.1170 C.3   141  ASP141      0.1410
     52  CG       116.0180   62.5910  117.9840 C.2   141  ASP141      0.3668
     53  OD1      116.0980   61.6540  118.8050 O.co2 141  ASP141     -0.2456
     54  OD2      116.8680   62.8060  117.0960 O.co2 141  ASP141     -0.2456
     55  N        111.0320   59.5410  104.4230 N.3   154  TRP154     -0.1241
     56  CA       112.1490   58.8050  103.8520 C.3   154  TRP154      0.1605
     57  C        112.2590   57.4480  104.4970 C.2   154  TRP154      0.2264
     58  O        111.6230   57.2040  105.5170 O.2   154  TRP154     -0.2867
     59  CB       113.4580   59.5830  103.9980 C.3   154  TRP154      0.0550
     60  CG       113.8710   60.0640  105.3840 C.ar  154  TRP154      0.0003
     61  CD1      113.3670   61.1340  106.0680 C.ar  154  TRP154      0.0946
     62  CD2      114.9420   59.5400  106.1990 C.ar  154  TRP154      0.0152
     63  NE1      114.0360   61.2940  107.2650 N.ar  154  TRP154     -0.2442
     64  CE2      115.0050   60.3300  107.3650 C.ar  154  TRP154      0.0810
     65  CE3      115.8440   58.4780  106.0530 C.ar  154  TRP154      0.0012
     66  CZ2      115.9440   60.0910  108.3940 C.ar  154  TRP154      0.0191
     67  CZ3      116.7750   58.2440  107.0690 C.ar  154  TRP154      0.0001
     68  CH2      116.8100   59.0440  108.2220 C.ar  154  TRP154      0.0015
     69  N        115.0550   53.9070  105.4190 N.3   156  SER156     -0.1203
     70  CA       116.4440   53.5480  105.6410 C.3   156  SER156      0.2005
     71  C        116.5160   52.0710  106.0220 C.2   156  SER156      0.2461
     72  O        115.5020   51.4550  106.3190 O.2   156  SER156     -0.2732
     73  CB       117.0680   54.4430  106.7290 C.3   156  SER156      0.2103
     74  OG       116.4450   54.2420  107.9830 O.3   156  SER156     -0.2182
     75  N        117.7200   51.5100  106.0290 N.am  157  PRO157     -0.2717
     76  CA       117.9030   50.0860  106.3430 C.3   157  PRO157      0.1536
     77  C        117.3630   49.6860  107.7190 C.2   157  PRO157      0.2599
     78  O        117.3940   50.4860  108.6540 O.2   157  PRO157     -0.2715
     79  CB       119.4240   49.9190  106.3100 C.3   157  PRO157      0.0310
     80  CG       119.8910   50.9710  105.3630 C.3   157  PRO157      0.0237
     81  CD       118.9670   52.1390  105.5590 C.3   157  PRO157      0.0939
     82  N        116.8670   48.4590  107.8390 N.am  158  SER158     -0.1936
     83  CA       116.3660   47.9680  109.1190 C.3   158  SER158      0.2055
     84  C        117.5330   47.7300  110.0700 C.2   158  SER158      0.2644
     85  O        117.4470   48.0040  111.2670 O.2   158  SER158     -0.2714
     86  CB       115.5690   46.6770  108.9260 C.3   158  SER158      0.2130
     87  OG       114.3600   46.9230  108.2290 O.3   158  SER158     -0.2179
     88  N        118.6220   47.2160  109.5150 N.am  159  THR159     -0.1936
     89  CA       119.8340   46.9790  110.2780 C.3   159  THR159      0.2028
     90  C        121.0060   47.6810  109.6110 C.2   159  THR159      0.2642
     91  O        120.8370   48.4170  108.6390 O.2   159  THR159     -0.2714
     92  CB       120.1430   45.4750  110.3960 C.3   159  THR159      0.1808
     93  OG1      120.2480   44.9020  109.0870 O.3   159  THR159     -0.2208
     94  CG2      119.0440   44.7640  111.1700 C.3   159  THR159      0.0379
     95  N        122.2060   47.5570  110.1630 N.am  160  SER160     -0.1949
     96  CA       123.3180   48.3980  109.7020 C.3   160  SER160      0.1924
     97  C        123.5660   48.3670  108.1850 C.2   160  SER160      0.2314
     98  O        123.4090   49.3650  107.4830 O.2   160  SER160     -0.2863
     99  CB       124.6050   48.0280  110.4450 C.3   160  SER160      0.2116
    100  OG       125.6580   48.9170  110.1160 O.3   160  SER160     -0.2180
    101  N        117.6900   55.8020  101.9060 N.3   204  VAL204     -0.1245
    102  CA       119.0610   55.6430  102.3440 C.3   204  VAL204      0.1561
    103  C        119.4460   54.1770  102.1250 C.2   204  VAL204      0.2260
    104  O        118.7550   53.2560  102.5850 O.2   204  VAL204     -0.2867
    105  CB       119.2030   56.0390  103.8350 C.3   204  VAL204      0.0252
    106  CG1      120.5960   55.6970  104.3610 C.3   204  VAL204      0.0019
    107  CG2      118.9240   57.5390  104.0130 C.3   204  VAL204      0.0019
@<TRIPOS>BOND
     1   101   102    1
     2   103   102    1
     3   103   104    2
     4   102   105    1
     5   105   107    1
     6   105   106    1
     7    56    59    1
     8    56    55    1
     9    56    57    1
    10    59    60    1
    11    57    58    2
    12    80    81    1
    13    80    79    1
    14    60    61   ar
    15    60    62   ar
    16    69    70    1
    17    81    75    1
    18    70    71    1
    19    70    73    1
    20    71    75   am
    21    71    72    2
    22    75    76    1
    23    65    62   ar
    24    65    67   ar
    25    61    63   ar
    26    62    64   ar
    27    79    76    1
    28    76    77    1
    29    73    74    1
    30     4     3    2
    31    67    68   ar
    32    63    64   ar
    33    12    11    2
    34    64    66   ar
    35    98    97    2
    36    77    82   am
    37    77    78    2
    38    82    83    1
    39     1     2    1
    40     3     2    1
    41    15    17   ar
    42    15    14   ar
    43    97    96    1
    44    68    66   ar
    45    87    86    1
    46     9    10    1
    47    11    10    1
    48    17    18   ar
    49    91    90    2
    50    13    10    1
    51    13    14    1
    52     2     5    1
    53    86    83    1
    54    14    16   ar
    55    93    92    1
    56    83    84    1
    57    88    84   am
    58    88    89    1
    59     5     6    1
    60    90    95   am
    61    90    89    1
    62    96    95    1
    63    96    99    1
    64    18    16   ar
    65    84    85    2
    66   100    99    1
    67    89    92    1
    68    92    94    1
    69    25    24    1
    70    25    26    1
    71     7     6   ar
    72     6     8   ar
    73    28    27    1
    74    24    23    1
    75    26    27    2
    76    27    29    1
    77    40    39    1
    78    40    41    2
    79    23    20    1
    80    36    35   ar
    81    39    38    1
    82    39    42    1
    83    20    21    1
    84    20    19    1
    85    46    45    1
    86    31    32    1
    87    31    30    1
    88    31    34    1
    89    35    34    1
    90    35    37   ar
    91    32    33    2
    92    42    43    1
    93    21    22    2
    94    45    44    1
    95    43    44    1
    96    54    52   ar
    97    52    51    1
    98    52    53   ar
    99    51    48    1
   100    47    48    1
   101    48    49    1
   102    49    50    2
