@<TRIPOS>MOLECULE
tmp/4p1wC00.pdb
 140 133 0 0 0
SMALL
GASTEIGER

@<TRIPOS>ATOM
      1  N         27.6860    9.6640  -14.4020 N.3   190  GLN190     -0.1231
      2  CA        28.8320   10.5540  -14.5460 C.3   190  GLN190      0.1698
      3  C         29.2950   10.6390  -15.9860 C.2   190  GLN190      0.2592
      4  O         29.4800   11.7400  -16.4970 O.2   190  GLN190     -0.2718
      5  CB        29.9810   10.0940  -13.6450 C.3   190  GLN190      0.0381
      6  CG        31.2450   10.9580  -13.7000 C.3   190  GLN190      0.0905
      7  CD        31.7780   11.3780  -12.3240 C.2   190  GLN190      0.2608
      8  OE1       32.1970   12.5250  -12.1360 O.2   190  GLN190     -0.2717
      9  NE2       31.7600   10.4600  -11.3580 N.am  190  GLN190     -0.0878
     10  N         29.4790    9.4890  -16.6340 N.am  191  GLU191     -0.1979
     11  CA        29.8420    9.4580  -18.0570 C.3   191  GLU191      0.1602
     12  C         28.9760   10.3840  -18.8770 C.2   191  GLU191      0.2287
     13  O         29.4880   11.2790  -19.5290 O.2   191  GLU191     -0.2864
     14  CB        29.7000    8.0650  -18.6510 C.3   191  GLU191      0.0415
     15  CG        30.9090    7.1790  -18.4680 C.3   191  GLU191      0.1163
     16  CD        30.8320    5.9570  -19.3570 C.2   191  GLU191      0.3649
     17  OE1       30.8160    6.1180  -20.5970 O.co2 191  GLU191     -0.2457
     18  OE2       30.7790    4.8340  -18.8130 O.co2 191  GLU191     -0.2457
     19  N         29.7980   13.8960  -18.1920 N.3   194  ASP194     -0.1225
     20  CA        31.0790   14.1950  -18.8400 C.3   194  ASP194      0.1805
     21  C         30.8610   14.6080  -20.2850 C.2   194  ASP194      0.2597
     22  O         31.2630   15.6960  -20.6880 O.2   194  ASP194     -0.2718
     23  CB        32.0090   12.9650  -18.8590 C.3   194  ASP194      0.1424
     24  CG        32.5690   12.5970  -17.4870 C.2   194  ASP194      0.3668
     25  OD1       32.5440   13.4440  -16.5600 O.co2 194  ASP194     -0.2456
     26  OD2       33.0620   11.4450  -17.3590 O.co2 194  ASP194     -0.2456
     27  N         30.2400   13.7110  -21.0530 N.am  195  PHE195     -0.1976
     28  CA        29.9490   13.9290  -22.4690 C.3   195  PHE195      0.1639
     29  C         29.2340   15.2510  -22.6980 C.2   195  PHE195      0.2290
     30  O         29.6140   16.0070  -23.5880 O.2   195  PHE195     -0.2864
     31  CB        29.0740   12.8130  -23.0270 C.3   195  PHE195      0.0560
     32  CG        29.8280   11.6170  -23.5150 C.ar  195  PHE195     -0.0200
     33  CD1       30.4290   11.6180  -24.7520 C.ar  195  PHE195     -0.0042
     34  CD2       29.8720   10.4640  -22.7610 C.ar  195  PHE195     -0.0042
     35  CE1       31.0930   10.4930  -25.2150 C.ar  195  PHE195     -0.0003
     36  CE2       30.5390    9.3430  -23.2080 C.ar  195  PHE195     -0.0003
     37  CZ        31.1500    9.3530  -24.4410 C.ar  195  PHE195     -0.0000
     38  N         31.1660   18.2940  -22.1000 N.3   198  SER198     -0.1202
     39  CA        32.1470   18.4210  -23.1810 C.3   198  SER198      0.2020
     40  C         31.5870   19.1330  -24.4190 C.2   198  SER198      0.2618
     41  O         32.1320   20.1570  -24.8380 O.2   198  SER198     -0.2717
     42  CB        32.7220   17.0560  -23.5700 C.3   198  SER198      0.2103
     43  OG        33.3820   16.4540  -22.4660 O.3   198  SER198     -0.2182
     44  N         30.5190   18.6020  -25.0160 N.am  199  PHE199     -0.1975
     45  CA        29.8770   19.2770  -26.1670 C.3   199  PHE199      0.1639
     46  C         29.4840   20.6970  -25.7940 C.2   199  PHE199      0.2290
     47  O         29.4780   21.5760  -26.6560 O.2   199  PHE199     -0.2864
     48  CB        28.6240   18.5350  -26.6750 C.3   199  PHE199      0.0560
     49  CG        28.9270   17.2690  -27.4150 C.ar  199  PHE199     -0.0200
     50  CD1       29.2830   17.2980  -28.7490 C.ar  199  PHE199     -0.0042
     51  CD2       28.8740   16.0510  -26.7740 C.ar  199  PHE199     -0.0042
     52  CE1       29.5770   16.1270  -29.4330 C.ar  199  PHE199     -0.0003
     53  CE2       29.1710   14.8800  -27.4480 C.ar  199  PHE199     -0.0003
     54  CZ        29.5170   14.9140  -28.7820 C.ar  199  PHE199     -0.0000
     55  N         31.1100   22.7280  -23.4950 N.3   201  ASP201     -0.1225
     56  CA        32.3060   23.5640  -23.5480 C.3   201  ASP201      0.1805
     57  C         32.5520   23.9360  -24.9940 C.2   201  ASP201      0.2597
     58  O         32.5170   25.1080  -25.3430 O.2   201  ASP201     -0.2718
     59  CB        33.5300   22.8340  -22.9950 C.3   201  ASP201      0.1424
     60  CG        33.4240   22.5390  -21.5090 C.2   201  ASP201      0.3668
     61  OD1       32.7060   23.2670  -20.7890 O.co2 201  ASP201     -0.2456
     62  OD2       34.0620   21.5590  -21.0630 O.co2 201  ASP201     -0.2456
     63  N         32.7590   22.9320  -25.8430 N.am  202  HIS202     -0.1975
     64  CA        33.0190   23.1770  -27.2630 C.3   202  HIS202      0.1656
     65  C         32.1290   24.2700  -27.8060 C.2   202  HIS202      0.2291
     66  O         32.6170   25.1920  -28.4420 O.2   202  HIS202     -0.2864
     67  CB        32.8040   21.9340  -28.1190 C.3   202  HIS202      0.0771
     68  CG        33.0980   22.1520  -29.5690 C.ar  202  HIS202      0.0820
     69  ND1       34.0000   21.3870  -30.2740 N.ar  202  HIS202     -0.2267
     70  CD2       32.6290   23.0700  -30.4420 C.ar  202  HIS202      0.1154
     71  CE1       34.0600   21.8100  -31.5240 C.ar  202  HIS202      0.1986
     72  NE2       33.2390   22.8360  -31.6520 N.ar  202  HIS202     -0.2212
     73  N         33.0790   27.6060  -26.5280 N.3   205  LYS205     -0.1245
     74  CA        34.2950   28.0400  -27.2140 C.3   205  LYS205      0.1561
     75  C         33.9800   28.6860  -28.5740 C.2   205  LYS205      0.2260
     76  O         34.4450   29.7900  -28.8560 O.2   205  LYS205     -0.2867
     77  CB        35.2610   26.8720  -27.3840 C.3   205  LYS205      0.0271
     78  CG        35.7620   26.4080  -26.0250 C.3   205  LYS205      0.0035
     79  CD        36.9220   25.4850  -26.1670 C.3   205  LYS205      0.0206
     80  CE        36.4000   24.1240  -26.4520 C.3   205  LYS205      0.1093
     81  NZ        37.5070   23.2480  -26.8420 N.3   205  LYS205     -0.1314
     82  N         42.3070   25.0830  -31.1700 N.3   225  ILE225     -0.1245
     83  CA        41.7050   24.1330  -30.2280 C.3   225  ILE225      0.1561
     84  C         40.3950   23.5910  -30.8000 C.2   225  ILE225      0.2260
     85  O         40.1970   22.3760  -30.8760 O.2   225  ILE225     -0.2867
     86  CB        41.4670   24.7890  -28.8740 C.3   225  ILE225      0.0252
     87  CG1       42.8330   25.0330  -28.2000 C.3   225  ILE225      0.0019
     88  CG2       40.5470   23.9580  -28.0140 C.3   225  ILE225      0.0019
     89  CD1       42.7650   25.9140  -26.9830 C.3   225  ILE225      0.0001
     90  N         40.3890   21.4680  -34.1770 N.3   228  ARG228     -0.1231
     91  CA        40.8650   20.1260  -33.8610 C.3   228  ARG228      0.1694
     92  C         39.7170   19.2250  -33.4350 C.2   228  ARG228      0.2592
     93  O         39.5650   18.1210  -33.9610 O.2   228  ARG228     -0.2718
     94  CB        41.9300   20.1770  -32.7720 C.3   228  ARG228      0.0321
     95  CG        42.5530   18.8100  -32.4910 C.3   228  ARG228      0.0489
     96  CD        43.6890   18.8940  -31.4830 C.3   228  ARG228      0.2205
     97  NE        43.2360   19.4150  -30.1990 N.pl3 228  ARG228     -0.0865
     98  CZ        43.5240   20.6220  -29.7250 C.cat 228  ARG228      0.5346
     99  NH1       44.2810   21.4610  -30.4250 N.pl3 228  ARG228      0.1354
    100  NH2       43.0370   20.9950  -28.5500 N.pl3 228  ARG228      0.1354
    101  N         38.9070   19.7170  -32.4980 N.am  229  ASP229     -0.1974
    102  CA        37.7840   18.9530  -31.9410 C.3   229  ASP229      0.1709
    103  C         36.6600   18.7360  -32.9510 C.2   229  ASP229      0.2293
    104  O         36.0610   17.6590  -32.9940 O.2   229  ASP229     -0.2864
    105  CB        37.2160   19.6670  -30.7150 C.3   229  ASP229      0.1436
    106  CG        38.2130   19.7730  -29.5750 C.2   229  ASP229      0.3671
    107  OD1       39.1890   18.9870  -29.5210 O.co2 229  ASP229     -0.2456
    108  OD2       38.0010   20.6490  -28.7140 O.co2 229  ASP229     -0.2456
    109  N         36.9240   15.6710  -34.6240 N.3   232  ASP232     -0.1225
    110  CA        36.7060   14.5670  -33.6700 C.3   232  ASP232      0.1805
    111  C         35.2480   14.4030  -33.2140 C.2   232  ASP232      0.2597
    112  O         34.8280   13.3080  -32.8200 O.2   232  ASP232     -0.2718
    113  CB        37.5890   14.7650  -32.4290 C.3   232  ASP232      0.1424
    114  CG        39.0170   14.3240  -32.6500 C.2   232  ASP232      0.3668
    115  OD1       39.3740   13.9600  -33.7980 O.co2 232  ASP232     -0.2456
    116  OD2       39.7770   14.3380  -31.6590 O.co2 232  ASP232     -0.2456
    117  N         34.5000   15.5020  -33.2570 N.am  233  LEU233     -0.1979
    118  CA        33.0820   15.5480  -32.8790 C.3   233  LEU233      0.1596
    119  C         32.2620   14.3010  -33.2380 C.2   233  LEU233      0.2287
    120  O         31.6050   13.7250  -32.3870 O.2   233  LEU233     -0.2864
    121  CB        32.4420   16.7690  -33.5410 C.3   233  LEU233      0.0297
    122  CG        31.6560   17.7210  -32.6650 C.3   233  LEU233      0.0022
    123  CD1       32.4220   18.0910  -31.4020 C.3   233  LEU233      0.0001
    124  CD2       31.3380   18.9530  -33.4970 C.3   233  LEU233      0.0001
    125  N         33.3130   11.3650  -31.1140 N.3   236  ILE236     -0.1245
    126  CA        33.0130   11.5760  -29.6970 C.3   236  ILE236      0.1561
    127  C         31.5450   11.2050  -29.4350 C.2   236  ILE236      0.2260
    128  O         31.2500   10.4050  -28.5480 O.2   236  ILE236     -0.2867
    129  CB        33.2660   13.0350  -29.2450 C.3   236  ILE236      0.0252
    130  CG1       34.7190   13.4750  -29.4950 C.3   236  ILE236      0.0019
    131  CG2       32.9050   13.2030  -27.7790 C.3   236  ILE236      0.0019
    132  CD1       35.7270   13.0020  -28.4750 C.3   236  ILE236      0.0001
    133  N         30.7010    7.6260  -29.3980 N.3   239  LEU239     -0.1245
    134  CA        30.9590    6.9850  -28.1120 C.3   239  LEU239      0.1561
    135  C         29.8920    7.2990  -27.0620 C.2   239  LEU239      0.2260
    136  O         29.7060    6.5500  -26.1130 O.2   239  LEU239     -0.2867
    137  CB        32.3350    7.3760  -27.6010 C.3   239  LEU239      0.0270
    138  CG        33.4840    7.2140  -28.6040 C.3   239  LEU239      0.0019
    139  CD1       34.8090    7.1900  -27.8430 C.3   239  LEU239      0.0001
    140  CD2       33.3560    5.9790  -29.5000 C.3   239  LEU239      0.0001
@<TRIPOS>BOND
     1   109   110    1
     2    90    91    1
     3    93    92    2
     4    91    92    1
     5    91    94    1
     6   115   114   ar
     7   110   111    1
     8   110   113    1
     9   121   118    1
    10   121   122    1
    11   124   122    1
    12    92   101   am
    13   117   111   am
    14   117   118    1
    15   119   118    1
    16   119   120    2
    17   111   112    2
    18   104   103    2
    19   103   102    1
    20    94    95    1
    21   122   123    1
    22   114   113    1
    23   114   116   ar
    24   101   102    1
    25    95    96    1
    26   102   105    1
    27    72    71   ar
    28    72    70   ar
    29    71    69   ar
    30    96    97    1
    31    82    83    1
    32   125   126    1
    33    85    84    2
    34    84    83    1
    35   105   106    1
    36    70    68   ar
    37    99    98    1
    38    69    68   ar
    39    83    86    1
    40    97    98    2
    41    98   100    1
    42   126   127    1
    43   126   129    1
    44   106   107   ar
    45   106   108   ar
    46    68    67    1
    47   140   138    1
    48   130   129    1
    49   130   132    1
    50   127   128    2
    51    52    54   ar
    52    52    50   ar
    53   133   134    1
    54   129   131    1
    55    86    87    1
    56    86    88    1
    57    76    75    2
    58    54    53   ar
    59    50    49   ar
    60   138   139    1
    61   138   137    1
    62    75    74    1
    63    66    65    2
    64    87    89    1
    65    67    64    1
    66   134   137    1
    67   134   135    1
    68    65    64    1
    69    53    51   ar
    70    49    51   ar
    71    49    48    1
    72    77    74    1
    73    77    78    1
    74    64    63    1
    75    74    73    1
    76   135   136    2
    77    81    80    1
    78    48    45    1
    79    47    46    2
    80    80    79    1
    81    79    78    1
    82    45    46    1
    83    45    44    1
    84    63    57   am
    85    58    57    2
    86    35    33   ar
    87    35    37   ar
    88    44    40   am
    89    57    56    1
    90    41    40    2
    91    33    32   ar
    92    37    36   ar
    93    40    39    1
    94    30    29    2
    95    42    39    1
    96    42    43    1
    97    56    55    1
    98    56    59    1
    99    32    31    1
   100    32    34   ar
   101    36    34   ar
   102    39    38    1
   103    31    28    1
   104    59    60    1
   105    29    28    1
   106    28    27    1
   107    60    62   ar
   108    60    61   ar
   109    27    21   am
   110    22    21    2
   111    17    16   ar
   112    21    20    1
   113    13    12    2
   114    16    18   ar
   115    16    15    1
   116    12    11    1
   117    23    20    1
   118    23    24    1
   119    20    19    1
   120    14    15    1
   121    14    11    1
   122    11    10    1
   123    24    26   ar
   124    24    25   ar
   125    10     3   am
   126     4     3    2
   127     3     2    1
   128     2     1    1
   129     2     5    1
   130     6     5    1
   131     6     7    1
   132     7     8    2
   133     7     9   am
