@<TRIPOS>MOLECULE
tmp/4p24F01.pdb
 84 80 0 0 0
SMALL
GASTEIGER

@<TRIPOS>ATOM
      1  N        -23.4720  -11.4940  -53.0160 N.3   173  ASN173     -0.1225
      2  CA       -23.7420  -10.1170  -53.4280 C.3   173  ASN173      0.1785
      3  C        -24.9830  -10.0410  -54.3040 C.2   173  ASN173      0.2597
      4  O        -24.9060  -10.2460  -55.5150 O.2   173  ASN173     -0.2718
      5  CB       -22.5380   -9.5360  -54.1780 C.3   173  ASN173      0.1169
      6  CG       -22.7370   -8.0810  -54.5810 C.2   173  ASN173      0.2627
      7  OD1      -23.7930   -7.4900  -54.3490 O.2   173  ASN173     -0.2716
      8  ND2      -21.7070   -7.4940  -55.1800 N.am  173  ASN173     -0.0877
      9  N        -26.1200   -9.7350  -53.6830 N.am  174  GLN174     -0.1979
     10  CA       -27.3840   -9.5810  -54.4010 C.3   174  GLN174      0.1601
     11  C        -27.6760  -10.7790  -55.3000 C.2   174  GLN174      0.2287
     12  O        -27.8110  -10.6350  -56.5150 O.2   174  GLN174     -0.2864
     13  CB       -27.3700   -8.2990  -55.2360 C.3   174  GLN174      0.0394
     14  CG       -27.2250   -7.0220  -54.4250 C.3   174  GLN174      0.0908
     15  CD       -27.1050   -5.7910  -55.3040 C.2   174  GLN174      0.2608
     16  OE1      -28.1070   -5.2160  -55.7310 O.2   174  GLN174     -0.2717
     17  NE2      -25.8720   -5.3840  -55.5850 N.am  174  GLN174     -0.0878
     18  N        -25.8340  -12.9620  -56.3660 N.3   176  ALA176     -0.1245
     19  CA       -24.6980  -13.3310  -57.2110 C.3   176  ALA176      0.1562
     20  C        -23.5190  -13.7650  -56.3470 C.2   176  ALA176      0.2260
     21  O        -23.5300  -13.5760  -55.1320 O.2   176  ALA176     -0.2867
     22  CB       -24.2980  -12.1700  -58.1050 C.3   176  ALA176      0.0290
     23  N        -18.4740  -13.9290  -53.6450 N.3   179  TYR179     -0.1241
     24  CA       -17.1750  -13.3690  -53.9910 C.3   179  TYR179      0.1605
     25  C        -16.2670  -13.3560  -52.7700 C.2   179  TYR179      0.2264
     26  O        -16.7420  -13.4210  -51.6370 O.2   179  TYR179     -0.2867
     27  CB       -17.3380  -11.9550  -54.5440 C.3   179  TYR179      0.0534
     28  CG       -18.3150  -11.8680  -55.6960 C.ar  179  TYR179     -0.0201
     29  CD1      -17.9220  -12.1890  -56.9870 C.ar  179  TYR179     -0.0009
     30  CD2      -19.6270  -11.4680  -55.4930 C.ar  179  TYR179     -0.0009
     31  CE1      -18.8060  -12.1150  -58.0410 C.ar  179  TYR179      0.0417
     32  CE2      -20.5190  -11.3920  -56.5430 C.ar  179  TYR179      0.0417
     33  CZ       -20.1020  -11.7150  -57.8150 C.ar  179  TYR179      0.1957
     34  OH       -20.9870  -11.6390  -58.8660 O.3   179  TYR179     -0.2866
     35  N        -14.8630   -6.6910  -65.0700 N.3   188  TYR188     -0.1241
     36  CA       -15.3650   -6.0480  -63.8470 C.3   188  TYR188      0.1605
     37  C        -14.4310   -6.1120  -62.6300 C.2   188  TYR188      0.2264
     38  O        -14.6700   -5.4310  -61.6310 O.2   188  TYR188     -0.2867
     39  CB       -16.7080   -6.6610  -63.4530 C.3   188  TYR188      0.0534
     40  CG       -17.8150   -6.3620  -64.4300 C.ar  188  TYR188     -0.0201
     41  CD1      -18.5310   -5.1770  -64.3550 C.ar  188  TYR188     -0.0009
     42  CD2      -18.1400   -7.2640  -65.4310 C.ar  188  TYR188     -0.0009
     43  CE1      -19.5430   -4.9000  -65.2490 C.ar  188  TYR188      0.0417
     44  CE2      -19.1490   -6.9970  -66.3310 C.ar  188  TYR188      0.0417
     45  CZ       -19.8490   -5.8130  -66.2360 C.ar  188  TYR188      0.1957
     46  OH       -20.8580   -5.5460  -67.1340 O.3   188  TYR188     -0.2866
     47  N        -15.9560   -7.8450  -57.8520 N.3   191  GLN191     -0.1245
     48  CA       -17.3230   -7.3470  -57.7890 C.3   191  GLN191      0.1566
     49  C        -17.9030   -7.5090  -56.3870 C.2   191  GLN191      0.2260
     50  O        -19.1230   -7.5290  -56.2100 O.2   191  GLN191     -0.2867
     51  CB       -18.1890   -8.0870  -58.8130 C.3   191  GLN191      0.0367
     52  CG       -17.5440   -8.1970  -60.1890 C.3   191  GLN191      0.0905
     53  CD       -18.4220   -8.9080  -61.2020 C.2   191  GLN191      0.2608
     54  OE1      -19.3880   -8.3410  -61.7080 O.2   191  GLN191     -0.2717
     55  NE2      -18.0810  -10.1550  -61.5100 N.am  191  GLN191     -0.0878
     56  N        -19.7660   -4.2790  -55.1630 N.3   194  MET194     -0.1230
     57  CA       -20.2820   -3.4850  -56.2700 C.3   194  MET194      0.1702
     58  C        -21.8030   -3.5960  -56.3530 C.2   194  MET194      0.2592
     59  O        -22.3480   -4.6980  -56.4070 O.2   194  MET194     -0.2718
     60  CB       -19.6430   -3.9440  -57.5820 C.3   194  MET194      0.0401
     61  CG       -19.9050   -3.0330  -58.7680 C.3   194  MET194      0.0596
     62  SD       -19.3000   -3.7440  -60.3150 S.3   194  MET194     -0.1393
     63  CE       -17.5350   -3.4900  -60.1450 C.3   194  MET194      0.0692
     64  N        -22.4840   -2.4520  -56.3600 N.am  195  LYS195     -0.1966
     65  CA       -23.9450   -2.4260  -56.4290 C.3   195  LYS195      0.1728
     66  C        -24.4590   -2.6770  -57.8440 C.2   195  LYS195      0.2617
     67  O        -25.3010   -3.5460  -58.0560 O.2   195  LYS195     -0.2715
     68  CB       -24.4850   -1.0880  -55.9200 C.3   195  LYS195      0.0311
     69  CG       -26.0040   -1.0550  -55.7630 C.3   195  LYS195      0.0038
     70  CD       -26.5480    0.3680  -55.8120 C.3   195  LYS195      0.0206
     71  CE       -26.2680    1.1320  -54.5260 C.3   195  LYS195      0.1093
     72  NZ       -26.0330    2.5800  -54.7820 N.3   195  LYS195     -0.1314
     73  N        -23.9600   -1.9050  -58.8020 N.am  196  THR196     -0.1937
     74  CA       -24.3680   -2.0510  -60.1930 C.3   196  THR196      0.2028
     75  C        -23.1540   -2.2150  -61.0940 C.2   196  THR196      0.2642
     76  O        -22.0560   -1.7630  -60.7710 O.2   196  THR196     -0.2714
     77  CB       -25.1930   -0.8450  -60.6680 C.3   196  THR196      0.1808
     78  OG1      -24.6440    0.3500  -60.1100 O.3   196  THR196     -0.2208
     79  CG2      -26.6450   -0.9880  -60.2390 C.3   196  THR196      0.0379
     80  N        -23.3610   -2.8780  -62.2250 N.am  197  ALA197     -0.1977
     81  CA       -22.3110   -3.0510  -63.2180 C.3   197  ALA197      0.1597
     82  C        -22.0570   -1.7550  -63.9860 C.2   197  ALA197      0.2287
     83  O        -20.9080   -1.3730  -64.2150 O.2   197  ALA197     -0.2864
     84  CB       -22.6810   -4.1650  -64.1740 C.3   197  ALA197      0.0319
@<TRIPOS>BOND
     1    46    45    1
     2    44    45   ar
     3    44    42   ar
     4    45    43   ar
     5    42    40   ar
     6    43    41   ar
     7    35    36    1
     8    40    41   ar
     9    40    39    1
    10    83    82    2
    11    84    81    1
    12    82    81    1
    13    36    39    1
    14    36    37    1
    15    81    80    1
    16    37    38    2
    17    80    75   am
    18    54    53    2
    19    55    53   am
    20    53    52    1
    21    75    76    2
    22    75    74    1
    23    77    79    1
    24    77    74    1
    25    77    78    1
    26    62    63    1
    27    62    61    1
    28    74    73    1
    29    52    51    1
    30    34    33    1
    31    51    48    1
    32    73    66   am
    33    61    60    1
    34    22    19    1
    35    67    66    2
    36    31    33   ar
    37    31    29   ar
    38    47    48    1
    39    66    65    1
    40    33    32   ar
    41    48    49    1
    42    60    57    1
    43    19    18    1
    44    19    20    1
    45    29    28   ar
    46    32    30   ar
    47    12    11    2
    48    65    64    1
    49    65    68    1
    50    59    58    2
    51    49    50    2
    52    64    58   am
    53    58    57    1
    54    20    21    2
    55    57    56    1
    56    68    69    1
    57    70    69    1
    58    70    71    1
    59    16    15    2
    60    28    30   ar
    61    28    27    1
    62    17    15   am
    63     4     3    2
    64    15    14    1
    65    11    10    1
    66    13    14    1
    67    13    10    1
    68     8     6   am
    69    72    71    1
    70     6     7    2
    71     6     5    1
    72    27    24    1
    73    10     9    1
    74     3     9   am
    75     3     2    1
    76     5     2    1
    77    24    23    1
    78    24    25    1
    79     2     1    1
    80    25    26    2
