@<TRIPOS>MOLECULE
tmp/4p25C00.pdb
 116 111 0 0 0
SMALL
GASTEIGER

@<TRIPOS>ATOM
      1  N         97.8320   30.8190   25.2560 N.3   101  ASP101     -0.1239
      2  CA        97.4260   31.8400   26.2190 C.3   101  ASP101      0.1674
      3  C         96.6830   32.9390   25.4790 C.2   101  ASP101      0.2266
      4  O         97.0580   33.3080   24.3620 O.2   101  ASP101     -0.2867
      5  CB        98.6470   32.4650   26.9000 C.3   101  ASP101      0.1410
      6  CG        99.1320   31.6750   28.1060 C.2   101  ASP101      0.3668
      7  OD1       98.8020   30.4770   28.2300 O.co2 101  ASP101     -0.2456
      8  OD2       99.8610   32.2710   28.9280 O.co2 101  ASP101     -0.2456
      9  N         95.1790   37.0010   25.7960 N.3   103  HIS103     -0.1241
     10  CA        95.2950   38.2520   26.5230 C.3   103  HIS103      0.1621
     11  C         94.1340   39.1260   26.0830 C.2   103  HIS103      0.2264
     12  O         94.0440   39.5280   24.9220 O.2   103  HIS103     -0.2867
     13  CB        96.6690   38.8650   26.2830 C.3   103  HIS103      0.0745
     14  CG        97.7780   37.8850   26.5170 C.ar  103  HIS103      0.0817
     15  ND1       98.3810   37.1910   25.4900 N.ar  103  HIS103     -0.2268
     16  CD2       98.4460   37.5490   27.6460 C.ar  103  HIS103      0.1154
     17  CE1       99.3520   36.4400   25.9840 C.ar  103  HIS103      0.1986
     18  NE2       99.4150   36.6400   27.2910 N.ar  103  HIS103     -0.2212
     19  N         93.9420   43.9860   31.4260 N.3   118  ARG118     -0.1245
     20  CA        94.2970   42.8900   30.5370 C.3   118  ARG118      0.1563
     21  C         94.2030   41.5800   31.3060 C.2   118  ARG118      0.2260
     22  O         94.9230   41.3640   32.2860 O.2   118  ARG118     -0.2867
     23  CB        95.6970   43.0730   29.9430 C.3   118  ARG118      0.0307
     24  CG        95.9330   42.2100   28.7010 C.3   118  ARG118      0.0489
     25  CD        97.4010   42.2150   28.2920 C.3   118  ARG118      0.2205
     26  NE        98.2180   41.4850   29.2560 N.pl3 118  ARG118     -0.0865
     27  CZ        99.5220   41.6630   29.4420 C.cat 118  ARG118      0.5346
     28  NH1      100.1950   42.5600   28.7220 N.pl3 118  ARG118      0.1354
     29  NH2      100.1580   40.9460   30.3620 N.pl3 118  ARG118      0.1354
     30  N         94.8920   37.7750   31.5230 N.3   120  ASP120     -0.1239
     31  CA        95.7960   36.7940   30.9500 C.3   120  ASP120      0.1674
     32  C         95.2690   35.3940   31.2790 C.2   120  ASP120      0.2266
     33  O         95.2170   34.9860   32.4410 O.2   120  ASP120     -0.2867
     34  CB        97.2210   37.0360   31.4530 C.3   120  ASP120      0.1410
     35  CG        97.7080   38.4490   31.1420 C.2   120  ASP120      0.3668
     36  OD1       97.4980   38.9040   29.9960 O.co2 120  ASP120     -0.2456
     37  OD2       98.2700   39.1120   32.0430 O.co2 120  ASP120     -0.2456
     38  N         94.9980   31.1760   30.6010 N.3   122  LYS122     -0.1245
     39  CA        95.6990   29.9790   30.1390 C.3   122  LYS122      0.1561
     40  C         94.7120   28.8750   29.8010 C.2   122  LYS122      0.2260
     41  O         93.7330   28.6730   30.5110 O.2   122  LYS122     -0.2867
     42  CB        96.6840   29.4620   31.1970 C.3   122  LYS122      0.0271
     43  CG        97.7870   30.4440   31.5420 C.3   122  LYS122      0.0035
     44  CD        98.9340   29.7730   32.2930 C.3   122  LYS122      0.0206
     45  CE        99.6100   28.6840   31.4570 C.3   122  LYS122      0.1093
     46  NZ       100.2910   29.1740   30.2170 N.3   122  LYS122     -0.1314
     47  N         97.6730   42.1560   35.7980 N.3   139  ASP139     -0.1239
     48  CA        98.4840   43.1500   36.4790 C.3   139  ASP139      0.1674
     49  C         97.6320   44.3340   36.9250 C.2   139  ASP139      0.2266
     50  O         98.1130   45.2110   37.6400 O.2   139  ASP139     -0.2867
     51  CB        99.6140   43.6300   35.5740 C.3   139  ASP139      0.1410
     52  CG       100.7580   42.6300   35.4830 C.2   139  ASP139      0.3668
     53  OD1      100.8670   41.7550   36.3710 O.co2 139  ASP139     -0.2456
     54  OD2      101.5550   42.7340   34.5270 O.co2 139  ASP139     -0.2456
     55  N         95.5290   39.7340   21.9440 N.3   152  TRP152     -0.1241
     56  CA        96.6150   38.9570   21.3600 C.3   152  TRP152      0.1605
     57  C         96.7120   37.5760   21.9960 C.2   152  TRP152      0.2264
     58  O         96.1040   37.3280   23.0370 O.2   152  TRP152     -0.2867
     59  CB        97.9620   39.7010   21.4410 C.3   152  TRP152      0.0550
     60  CG        98.4250   40.1430   22.8130 C.ar  152  TRP152      0.0003
     61  CD1       97.9260   41.1710   23.5640 C.ar  152  TRP152      0.0946
     62  CD2       99.5350   39.6090   23.5530 C.ar  152  TRP152      0.0152
     63  NE1       98.6410   41.2910   24.7380 N.ar  152  TRP152     -0.2442
     64  CE2       99.6370   40.3470   24.7500 C.ar  152  TRP152      0.0810
     65  CE3      100.4430   38.5700   23.3240 C.ar  152  TRP152      0.0012
     66  CZ2      100.6080   40.0760   25.7160 C.ar  152  TRP152      0.0191
     67  CZ3      101.4120   38.3060   24.2840 C.ar  152  TRP152      0.0001
     68  CH2      101.4840   39.0530   25.4610 C.ar  152  TRP152      0.0015
     69  N         99.5060   34.0370   22.7420 N.3   154  SER154     -0.1203
     70  CA       100.9110   33.6690   22.8940 C.3   154  SER154      0.2005
     71  C        101.0110   32.1880   23.2660 C.2   154  SER154      0.2461
     72  O        100.0040   31.5850   23.6390 O.2   154  SER154     -0.2732
     73  CB       101.5880   34.5740   23.9390 C.3   154  SER154      0.2103
     74  OG       100.9820   34.4480   25.2120 O.3   154  SER154     -0.2182
     75  N        102.2080   31.5830   23.1380 N.am  155  PRO155     -0.2717
     76  CA       102.3250   30.1440   23.4160 C.3   155  PRO155      0.1536
     77  C        101.9820   29.7620   24.8510 C.2   155  PRO155      0.2599
     78  O        102.1950   30.5460   25.7770 O.2   155  PRO155     -0.2715
     79  CB       103.8070   29.8550   23.1480 C.3   155  PRO155      0.0310
     80  CG       104.2280   30.8990   22.1900 C.3   155  PRO155      0.0237
     81  CD       103.4700   32.1320   22.5990 C.3   155  PRO155      0.0939
     82  N        101.4660   28.5500   25.0300 N.am  156  SER156     -0.1936
     83  CA       101.0780   28.0640   26.3540 C.3   156  SER156      0.2055
     84  C        102.2840   27.8350   27.2590 C.2   156  SER156      0.2644
     85  O        102.2060   28.0240   28.4740 O.2   156  SER156     -0.2714
     86  CB       100.2760   26.7680   26.2250 C.3   156  SER156      0.2130
     87  OG        99.0370   27.0020   25.5730 O.3   156  SER156     -0.2179
     88  N        103.3930   27.4130   26.6600 N.am  157  THR157     -0.1936
     89  CA       104.6120   27.1210   27.4030 C.3   157  THR157      0.2028
     90  C        105.8070   27.6220   26.6050 C.2   157  THR157      0.2643
     91  O        105.6770   27.9030   25.4150 O.2   157  THR157     -0.2714
     92  CB       104.7810   25.6070   27.6420 C.3   157  THR157      0.1808
     93  OG1      104.8110   24.9260   26.3820 O.3   157  THR157     -0.2208
     94  CG2      103.6330   25.0620   28.4790 C.3   157  THR157      0.0379
     95  N        106.9480   27.8760   27.2680 N.am  158  SER158     -0.1935
     96  CA       108.1330   28.3550   26.5780 C.3   158  SER158      0.2055
     97  C        108.5260   27.3610   25.4920 C.2   158  SER158      0.2644
     98  O        108.4740   26.1540   25.7000 O.2   158  SER158     -0.2714
     99  CB       109.2980   28.5710   27.5570 C.3   158  SER158      0.2130
    100  OG       109.6910   27.3590   28.1680 O.3   158  SER158     -0.2179
    101  N        108.9010   27.7430   24.3090 N.am  159  GLY159     -0.1939
    102  CA       109.2940   26.8830   23.2100 C.3   159  GLY159      0.2014
    103  C        108.1270   26.2400   22.4800 C.2   159  GLY159      0.2638
    104  O        108.3300   25.5080   21.5150 O.2   159  GLY159     -0.2714
    105  N        106.9060   26.4960   22.9390 N.am  160  ALA160     -0.1977
    106  CA       105.7390   26.0630   22.1870 C.3   160  ALA160      0.1597
    107  C        105.4450   27.1180   21.1350 C.2   160  ALA160      0.2287
    108  O        105.9480   28.2350   21.2100 O.2   160  ALA160     -0.2864
    109  CB       104.5360   25.8690   23.1010 C.3   160  ALA160      0.0319
    110  N        101.8730   35.8650   18.7940 N.3   203  VAL203     -0.1245
    111  CA       103.2680   35.9080   19.1390 C.3   203  VAL203      0.1561
    112  C        103.8170   34.4710   19.1930 C.2   203  VAL203      0.2260
    113  O        103.0960   33.5450   19.5820 O.2   203  VAL203     -0.2867
    114  CB       103.5130   36.5970   20.4770 C.3   203  VAL203      0.0252
    115  CG1      104.9830   36.9120   20.6590 C.3   203  VAL203      0.0019
    116  CG2      102.6910   37.8820   20.5500 C.3   203  VAL203      0.0019
@<TRIPOS>BOND
     1   110   111    1
     2   111   112    1
     3   111   114    1
     4   112   113    2
     5   114   116    1
     6   114   115    1
     7   107   108    2
     8   107   106    1
     9    56    59    1
    10    56    55    1
    11    56    57    1
    12    59    60    1
    13   104   103    2
    14    57    58    2
    15   106   105    1
    16   106   109    1
    17    80    81    1
    18    80    79    1
    19   103   105   am
    20   103   102    1
    21    81    75    1
    22    69    70    1
    23    60    62   ar
    24    60    61   ar
    25    70    71    1
    26    70    73    1
    27    75    71   am
    28    75    76    1
    29    79    76    1
    30   102   101    1
    31    71    72    2
    32    65    62   ar
    33    65    67   ar
    34    76    77    1
    35    62    64   ar
    36    61    63   ar
    37    73    74    1
    38    67    68   ar
    39   101    97   am
    40     4     3    2
    41    63    64   ar
    42    64    66   ar
    43    77    82   am
    44    77    78    2
    45    12    11    2
    46    82    83    1
    47     1     2    1
    48    91    90    2
    49    68    66   ar
    50     3     2    1
    51    15    17   ar
    52    15    14   ar
    53    97    98    2
    54    97    96    1
    55    87    86    1
    56     9    10    1
    57    17    18   ar
    58    11    10    1
    59     2     5    1
    60    86    83    1
    61    13    14    1
    62    13    10    1
    63    83    84    1
    64    93    92    1
    65    14    16   ar
    66    96    95    1
    67    96    99    1
    68    90    95   am
    69    90    89    1
    70    88    84   am
    71    88    89    1
    72     5     6    1
    73    84    85    2
    74    18    16   ar
    75    89    92    1
    76    99   100    1
    77    92    94    1
    78     6     7   ar
    79     6     8   ar
    80    25    24    1
    81    25    26    1
    82    24    23    1
    83    28    27    1
    84    26    27    2
    85    27    29    1
    86    40    39    1
    87    40    41    2
    88    23    20    1
    89    36    35   ar
    90    39    38    1
    91    39    42    1
    92    46    45    1
    93    20    21    1
    94    20    19    1
    95    31    32    1
    96    31    34    1
    97    31    30    1
    98    35    34    1
    99    35    37   ar
   100    42    43    1
   101    32    33    2
   102    21    22    2
   103    45    44    1
   104    43    44    1
   105    54    52   ar
   106    52    51    1
   107    52    53   ar
   108    51    48    1
   109    47    48    1
   110    48    49    1
   111    49    50    2
