@<TRIPOS>MOLECULE
tmp/4p26A00.pdb
 106 101 0 0 0
SMALL
GASTEIGER

@<TRIPOS>ATOM
      1  N         32.6110    3.9920   61.5940 N.3   103  ASP103     -0.1239
      2  CA        33.9270    4.4720   61.1660 C.3   103  ASP103      0.1674
      3  C         33.7970    5.8200   60.4670 C.2   103  ASP103      0.2266
      4  O         32.8290    6.0610   59.7440 O.2   103  ASP103     -0.2867
      5  CB        34.5870    3.4680   60.2210 C.3   103  ASP103      0.1410
      6  CG        35.2660    2.3260   60.9530 C.2   103  ASP103      0.3668
      7  OD1       34.9270    2.0570   62.1310 O.co2 103  ASP103     -0.2456
      8  OD2       36.1390    1.6820   60.3350 O.co2 103  ASP103     -0.2456
      9  N         35.7970    8.6870   57.9260 N.3   105  HIS105     -0.1241
     10  CA        36.8860    8.8850   56.9920 C.3   105  HIS105      0.1621
     11  C         37.0160   10.3840   56.7710 C.2   105  HIS105      0.2264
     12  O         36.1320   11.0190   56.1950 O.2   105  HIS105     -0.2867
     13  CB        36.6240    8.0860   55.7170 C.3   105  HIS105      0.0745
     14  CG        36.3680    6.6380   55.9910 C.ar  105  HIS105      0.0817
     15  ND1       37.3860    5.7300   56.1950 N.ar  105  HIS105     -0.2268
     16  CD2       35.2130    5.9550   56.1780 C.ar  105  HIS105      0.1154
     17  CE1       36.8700    4.5410   56.4500 C.ar  105  HIS105      0.1986
     18  NE2       35.5530    4.6510   56.4500 N.ar  105  HIS105     -0.2212
     19  N         43.7030   10.7620   54.0360 N.3   120  ARG120     -0.1245
     20  CA        42.4070   10.3220   54.5150 C.3   120  ARG120      0.1563
     21  C         42.6510    9.5610   55.8040 C.2   120  ARG120      0.2260
     22  O         43.3020    8.5170   55.7960 O.2   120  ARG120     -0.2867
     23  CB        41.7110    9.4310   53.4890 C.3   120  ARG120      0.0307
     24  CG        40.2250    9.2050   53.7850 C.3   120  ARG120      0.0489
     25  CD        39.6500    8.0990   52.9130 C.3   120  ARG120      0.2205
     26  NE        39.9760    6.7780   53.4410 N.pl3 120  ARG120     -0.0865
     27  CZ        39.8460    5.6450   52.7570 C.cat 120  ARG120      0.5346
     28  NH1       39.4060    5.6690   51.5030 N.pl3 120  ARG120      0.1354
     29  NH2       40.1630    4.4860   53.3230 N.pl3 120  ARG120      0.1354
     30  N         41.3690    7.3700   58.7320 N.3   122  ASP122     -0.1239
     31  CA        40.3010    6.4150   58.9670 C.3   122  ASP122      0.1674
     32  C         40.2080    6.1670   60.4600 C.2   122  ASP122      0.2266
     33  O         41.1630    5.7110   61.0850 O.2   122  ASP122     -0.2867
     34  CB        40.5750    5.1290   58.1850 C.3   122  ASP122      0.1410
     35  CG        40.7630    5.3940   56.6930 C.2   122  ASP122      0.3668
     36  OD1       39.9960    6.2160   56.1400 O.co2 122  ASP122     -0.2456
     37  OD2       41.6850    4.8070   56.0830 O.co2 122  ASP122     -0.2456
     38  N         38.1720    4.7440   63.8700 N.3   124  LYS124     -0.1245
     39  CA        37.2270    3.8160   64.4710 C.3   124  LYS124      0.1561
     40  C         36.7030    4.3660   65.8040 C.2   124  LYS124      0.2260
     41  O         37.4400    5.0030   66.5460 O.2   124  LYS124     -0.2867
     42  CB        37.9140    2.4670   64.7070 C.3   124  LYS124      0.0271
     43  CG        38.3260    1.7210   63.4460 C.3   124  LYS124      0.0035
     44  CD        38.7270    0.3000   63.7980 C.3   124  LYS124      0.0206
     45  CE        39.0750   -0.5620   62.5950 C.3   124  LYS124      0.1093
     46  NZ        38.0910   -0.5810   61.4860 N.3   124  LYS124     -0.1314
     47  N         44.1100    5.2710   61.2930 N.3   139  THR139     -0.1218
     48  CA        45.0250    4.6510   60.3460 C.3   139  THR139      0.1862
     49  C         44.8800    5.3940   59.0230 C.2   139  THR139      0.2287
     50  O         43.8370    5.9840   58.7490 O.2   139  THR139     -0.2866
     51  CB        44.7410    3.1480   60.1480 C.3   139  THR139      0.1770
     52  OG1       43.3830    2.9590   59.7310 O.3   139  THR139     -0.2211
     53  CG2       44.9870    2.3810   61.4420 C.3   139  THR139      0.0375
     54  N         33.1990   10.8840   54.5420 N.3   154  TRP154     -0.1241
     55  CA        32.1760    9.8450   54.4870 C.3   154  TRP154      0.1605
     56  C         32.2470    8.9270   55.7020 C.2   154  TRP154      0.2264
     57  O         33.2370    8.9440   56.4420 O.2   154  TRP154     -0.2867
     58  CB        32.2780    9.0340   53.1880 C.3   154  TRP154      0.0550
     59  CG        33.6210    8.3690   52.9160 C.ar  154  TRP154      0.0003
     60  CD1       34.7750    8.9820   52.5010 C.ar  154  TRP154      0.0946
     61  CD2       33.9190    6.9650   52.9870 C.ar  154  TRP154      0.0152
     62  NE1       35.7760    8.0480   52.3260 N.ar  154  TRP154     -0.2442
     63  CE2       35.2760    6.8040   52.6160 C.ar  154  TRP154      0.0810
     64  CE3       33.1740    5.8310   53.3330 C.ar  154  TRP154      0.0012
     65  CZ2       35.9000    5.5580   52.5850 C.ar  154  TRP154      0.0191
     66  CZ3       33.7970    4.5890   53.2990 C.ar  154  TRP154      0.0001
     67  CH2       35.1480    4.4650   52.9270 C.ar  154  TRP154      0.0015
     68  N         31.1670    4.8200   57.4090 N.3   156  SER156     -0.1203
     69  CA        30.9540    3.4170   57.0710 C.3   156  SER156      0.2005
     70  C         30.7940    2.5970   58.3610 C.2   156  SER156      0.2461
     71  O         31.1150    3.0920   59.4410 O.2   156  SER156     -0.2732
     72  CB        32.1190    2.9050   56.2080 C.3   156  SER156      0.2103
     73  OG        33.3500    2.9480   56.9100 O.3   156  SER156     -0.2182
     74  N         30.2750    1.3570   58.2600 N.am  157  PRO157     -0.2717
     75  CA        29.9860    0.5890   59.4800 C.3   157  PRO157      0.1536
     76  C         31.2260    0.2600   60.3020 C.2   157  PRO157      0.2599
     77  O         32.3170    0.0920   59.7550 O.2   157  PRO157     -0.2715
     78  CB        29.3730   -0.7130   58.9490 C.3   157  PRO157      0.0310
     79  CG        28.8910   -0.3970   57.6060 C.3   157  PRO157      0.0237
     80  CD        29.8130    0.6500   57.0500 C.3   157  PRO157      0.0939
     81  N         31.0520    0.1570   61.6140 N.am  158  SER158     -0.1936
     82  CA        32.1600   -0.1880   62.4980 C.3   158  SER158      0.2055
     83  C         32.7030   -1.5840   62.2110 C.2   158  SER158      0.2644
     84  O         33.8950   -1.8370   62.3920 O.2   158  SER158     -0.2714
     85  CB        31.7260   -0.0830   63.9610 C.3   158  SER158      0.2130
     86  OG        31.4210    1.2600   64.2950 O.3   158  SER158     -0.2179
     87  N         31.8200   -2.4820   61.7740 N.am  159  THR159     -0.1936
     88  CA        32.1790   -3.8720   61.4620 C.3   159  THR159      0.2028
     89  C         31.4570   -4.3470   60.1950 C.2   159  THR159      0.2642
     90  O         30.4280   -3.7920   59.8240 O.2   159  THR159     -0.2714
     91  CB        31.8320   -4.8380   62.6260 C.3   159  THR159      0.1808
     92  OG1       30.4450   -4.7130   62.9610 O.3   159  THR159     -0.2208
     93  CG2       32.6700   -4.5360   63.8620 C.3   159  THR159      0.0379
     94  N         31.9740   -5.3940   59.5530 N.am  160  SER160     -0.1949
     95  CA        31.5270   -5.7600   58.1990 C.3   160  SER160      0.1924
     96  C         30.0530   -6.0970   58.0050 C.2   160  SER160      0.2314
     97  O         29.4850   -5.7830   56.9660 O.2   160  SER160     -0.2863
     98  CB        32.3880   -6.8760   57.6150 C.3   160  SER160      0.2116
     99  OG        32.2700   -8.0380   58.4020 O.3   160  SER160     -0.2180
    100  N         28.0460    4.8380   53.7210 N.3   202  VAL202     -0.1245
    101  CA        28.1550    3.4730   53.2340 C.3   202  VAL202      0.1561
    102  C         27.3940    2.5540   54.1820 C.2   202  VAL202      0.2260
    103  O         27.5700    2.6230   55.4010 O.2   202  VAL202     -0.2867
    104  CB        29.6310    3.0310   53.0910 C.3   202  VAL202      0.0252
    105  CG1       29.7240    1.5300   52.8400 C.3   202  VAL202      0.0019
    106  CG2       30.3070    3.7990   51.9580 C.3   202  VAL202      0.0019
@<TRIPOS>BOND
     1    28    27    1
     2   106   104    1
     3    62    60   ar
     4    62    63   ar
     5    60    59   ar
     6    65    63   ar
     7    65    67   ar
     8    63    61   ar
     9    27    29    1
    10    27    26    2
    11   105   104    1
    12    25    26    1
    13    25    24    1
    14    59    61   ar
    15    59    58    1
    16    67    66   ar
    17    61    64   ar
    18   104   101    1
    19    58    55    1
    20   101   100    1
    21   101   102    1
    22    66    64   ar
    23    23    24    1
    24    23    20    1
    25    19    20    1
    26   102   103    2
    27    55    54    1
    28    55    56    1
    29    20    21    1
    30    56    57    2
    31    13    14    1
    32    13    10    1
    33    22    21    2
    34    14    16   ar
    35    14    15   ar
    36    37    35   ar
    37    36    35   ar
    38    16    18   ar
    39    12    11    2
    40    15    17   ar
    41    72    73    1
    42    72    69    1
    43    17    18   ar
    44    35    34    1
    45    11    10    1
    46    97    96    2
    47    10     9    1
    48    80    79    1
    49    80    74    1
    50    69    68    1
    51    69    70    1
    52    79    78    1
    53    98    95    1
    54    98    99    1
    55    96    95    1
    56    34    31    1
    57    95    94    1
    58    74    70   am
    59    74    75    1
    60    70    71    2
    61    30    31    1
    62    50    49    2
    63    78    75    1
    64    31    32    1
    65    49    48    1
    66    75    76    1
    67    94    89   am
    68    52    51    1
    69     4     3    2
    70    77    76    2
    71    90    89    2
    72    51    48    1
    73    51    53    1
    74    89    88    1
    75     5     6    1
    76     5     2    1
    77    76    81   am
    78     8     6   ar
    79    48    47    1
    80    32    33    2
    81     3     2    1
    82     6     7   ar
    83     2     1    1
    84    88    87    1
    85    88    91    1
    86    46    45    1
    87    81    82    1
    88    87    83   am
    89    83    84    2
    90    83    82    1
    91    82    85    1
    92    45    44    1
    93    91    92    1
    94    91    93    1
    95    43    44    1
    96    43    42    1
    97    38    39    1
    98    85    86    1
    99    39    42    1
   100    39    40    1
   101    40    41    2
