@<TRIPOS>MOLECULE
tmp/4p2rP00.pdb
 205 199 0 0 0
SMALL
GASTEIGER

@<TRIPOS>ATOM
      1  N       -115.8820  -23.9590   51.2210 N.3     8  GLN8       -0.1245
      2  CA      -116.6820  -24.7540   52.1370 C.3     8  GLN8        0.1566
      3  C       -118.1100  -24.2470   52.1380 C.2     8  GLN8        0.2260
      4  O       -118.3760  -23.1380   52.5860 O.2     8  GLN8       -0.2867
      5  CB      -116.1190  -24.7130   53.5530 C.3     8  GLN8        0.0367
      6  CG      -117.0330  -25.3670   54.5640 C.3     8  GLN8        0.0905
      7  CD      -116.6110  -25.1150   55.9870 C.2     8  GLN8        0.2608
      8  OE1     -115.4290  -25.1110   56.3000 O.2     8  GLN8       -0.2717
      9  NE2     -117.5800  -24.9160   56.8630 N.am    8  GLN8       -0.0878
     10  N       -122.1640  -24.8320   53.2180 N.3    10  GLU10      -0.1245
     11  CA      -123.0950  -25.5210   54.0890 C.3    10  GLU10       0.1567
     12  C       -124.3890  -24.7320   54.1220 C.2    10  GLU10       0.2260
     13  O       -124.3730  -23.5080   54.0330 O.2    10  GLU10      -0.2867
     14  CB      -122.5250  -25.6710   55.4990 C.3    10  GLU10       0.0388
     15  CG      -122.3500  -24.3550   56.2370 C.3    10  GLU10       0.1160
     16  CD      -121.5980  -24.5030   57.5450 C.2    10  GLU10       0.3649
     17  OE1     -121.8800  -23.7410   58.4930 O.co2  10  GLU10      -0.2457
     18  OE2     -120.7160  -25.3770   57.6240 O.co2  10  GLU10      -0.2457
     19  N       -123.4350  -30.2900   53.5920 N.3    21  PHE21      -0.1241
     20  CA      -122.1010  -29.7950   53.9160 C.3    21  PHE21       0.1605
     21  C       -121.1140  -30.3350   52.8950 C.2    21  PHE21       0.2264
     22  O       -121.0530  -31.5400   52.6870 O.2    21  PHE21      -0.2867
     23  CB      -121.7000  -30.2330   55.3250 C.3    21  PHE21       0.0534
     24  CG      -120.4140  -29.6360   55.8130 C.ar   21  PHE21      -0.0203
     25  CD1     -119.1970  -30.1290   55.3930 C.ar   21  PHE21      -0.0042
     26  CD2     -120.4260  -28.6140   56.7390 C.ar   21  PHE21      -0.0042
     27  CE1     -118.0230  -29.5840   55.8520 C.ar   21  PHE21      -0.0003
     28  CE2     -119.2540  -28.0720   57.2040 C.ar   21  PHE21      -0.0003
     29  CZ      -118.0530  -28.5560   56.7610 C.ar   21  PHE21      -0.0000
     30  N       -117.1910  -29.5360   50.3850 N.3    23  PHE23      -0.1241
     31  CA      -115.9780  -28.7940   50.0630 C.3    23  PHE23       0.1605
     32  C       -115.7560  -28.7710   48.5570 C.2    23  PHE23       0.2264
     33  O       -115.9910  -29.7660   47.8870 O.2    23  PHE23      -0.2867
     34  CB      -114.7660  -29.4260   50.7360 C.3    23  PHE23       0.0534
     35  CG      -114.3660  -28.7750   52.0230 C.ar   23  PHE23      -0.0203
     36  CD1     -115.1100  -28.9660   53.1690 C.ar   23  PHE23      -0.0042
     37  CD2     -113.2340  -27.9890   52.0900 C.ar   23  PHE23      -0.0042
     38  CE1     -114.7340  -28.3810   54.3550 C.ar   23  PHE23      -0.0003
     39  CE2     -112.8570  -27.4020   53.2700 C.ar   23  PHE23      -0.0003
     40  CZ      -113.6070  -27.5980   54.4040 C.ar   23  PHE23      -0.0000
     41  N       -114.7730  -32.0090   46.4640 N.3    30  ILE30      -0.1231
     42  CA      -113.7830  -32.8580   47.1180 C.3    30  ILE30       0.1692
     43  C       -114.4720  -33.9310   47.9300 C.2    30  ILE30       0.2592
     44  O       -114.1490  -35.1030   47.8190 O.2    30  ILE30      -0.2718
     45  CB      -112.8640  -32.0670   48.0440 C.3    30  ILE30       0.0266
     46  CG1     -112.1450  -30.9680   47.2710 C.3    30  ILE30       0.0019
     47  CG2     -111.8410  -32.9800   48.6670 C.3    30  ILE30       0.0020
     48  CD1     -111.2780  -30.1050   48.1450 C.3    30  ILE30       0.0001
     49  N       -115.4310  -33.5190   48.7460 N.am   31  PHE31      -0.1976
     50  CA      -116.2150  -34.4570   49.5280 C.3    31  PHE31       0.1639
     51  C       -117.4790  -33.7970   50.0480 C.2    31  PHE31       0.2290
     52  O       -117.6760  -32.6010   49.8720 O.2    31  PHE31      -0.2864
     53  CB      -115.3970  -35.0170   50.6890 C.3    31  PHE31       0.0560
     54  CG      -115.1150  -34.0280   51.7810 C.ar   31  PHE31      -0.0200
     55  CD1     -114.0190  -33.1940   51.7120 C.ar   31  PHE31      -0.0042
     56  CD2     -115.9270  -33.9630   52.9000 C.ar   31  PHE31      -0.0042
     57  CE1     -113.7520  -32.2990   52.7300 C.ar   31  PHE31      -0.0003
     58  CE2     -115.6640  -33.0700   53.9170 C.ar   31  PHE31      -0.0003
     59  CZ      -114.5760  -32.2400   53.8330 C.ar   31  PHE31      -0.0000
     60  N       -116.4170  -39.1440   50.1090 N.3    42  TRP42      -0.1241
     61  CA      -115.4630  -38.5920   49.1630 C.3    42  TRP42       0.1605
     62  C       -115.9390  -38.7740   47.7290 C.2    42  TRP42       0.2264
     63  O       -116.3750  -39.8530   47.3510 O.2    42  TRP42      -0.2867
     64  CB      -114.1040  -39.2480   49.3730 C.3    42  TRP42       0.0550
     65  CG      -113.6100  -39.0470   50.7640 C.ar   42  TRP42       0.0003
     66  CD1     -113.8570  -39.8430   51.8410 C.ar   42  TRP42       0.0946
     67  CD2     -112.7890  -37.9760   51.2360 C.ar   42  TRP42       0.0152
     68  NE1     -113.2440  -39.3340   52.9570 N.ar   42  TRP42      -0.2442
     69  CE2     -112.5810  -38.1880   52.6120 C.ar   42  TRP42       0.0810
     70  CE3     -112.2110  -36.8610   50.6310 C.ar   42  TRP42       0.0012
     71  CZ2     -111.8190  -37.3260   53.3890 C.ar   42  TRP42       0.0191
     72  CZ3     -111.4580  -36.0070   51.4040 C.ar   42  TRP42       0.0001
     73  CH2     -111.2670  -36.2440   52.7680 C.ar   42  TRP42       0.0015
     74  N       -109.8460  -40.7290   49.6380 N.3    48  ALA48      -0.1231
     75  CA      -109.8960  -41.1070   51.0470 C.3    48  ALA48       0.1694
     76  C       -108.5500  -41.5970   51.5680 C.2    48  ALA48       0.2592
     77  O       -108.3470  -41.7160   52.7740 O.2    48  ALA48      -0.2718
     78  CB      -110.9580  -42.1670   51.2650 C.3    48  ALA48       0.0304
     79  N       -107.6300  -41.8740   50.6520 N.am   49  LYS49      -0.1966
     80  CA      -106.3000  -42.3270   51.0230 C.3    49  LYS49       0.1728
     81  C       -105.4110  -41.1570   51.4070 C.2    49  LYS49       0.2616
     82  O       -104.3290  -41.3510   51.9530 O.2    49  LYS49      -0.2715
     83  CB      -105.6570  -43.1070   49.8740 C.3    49  LYS49       0.0311
     84  CG      -106.5300  -44.2130   49.3020 C.3    49  LYS49       0.0038
     85  CD      -105.7280  -45.1590   48.4190 C.3    49  LYS49       0.0206
     86  CE      -104.9310  -44.4110   47.3610 C.3    49  LYS49       0.1093
     87  NZ      -105.8010  -43.6780   46.4040 N.3    49  LYS49      -0.1314
     88  N       -105.8690  -39.9430   51.1280 N.am   50  PHE50      -0.1960
     89  CA      -105.0170  -38.7700   51.2730 C.3    50  PHE50       0.1771
     90  C       -105.4740  -37.7870   52.3490 C.2    50  PHE50       0.2619
     91  O       -104.6850  -36.9660   52.8110 O.2    50  PHE50      -0.2715
     92  CB      -104.9300  -38.0290   49.9430 C.3    50  PHE50       0.0574
     93  CG      -104.2040  -38.7820   48.8710 C.ar   50  PHE50      -0.0200
     94  CD1     -104.8740  -39.6890   48.0720 C.ar   50  PHE50      -0.0042
     95  CD2     -102.8580  -38.5680   48.6480 C.ar   50  PHE50      -0.0042
     96  CE1     -104.2130  -40.3750   47.0780 C.ar   50  PHE50      -0.0003
     97  CE2     -102.1900  -39.2530   47.6550 C.ar   50  PHE50      -0.0003
     98  CZ      -102.8690  -40.1570   46.8690 C.ar   50  PHE50      -0.0000
     99  N       -106.7420  -37.8540   52.7400 N.am   51  ALA51      -0.1963
    100  CA      -107.2720  -36.8890   53.6950 C.3    51  ALA51       0.1728
    101  C       -108.3970  -37.4620   54.5470 C.2    51  ALA51       0.2617
    102  O       -108.8860  -38.5580   54.2940 O.2    51  ALA51      -0.2715
    103  CB      -107.7480  -35.6520   52.9670 C.3    51  ALA51       0.0334
    104  N       -108.7990  -36.7080   55.5620 N.am   52  SER52      -0.1936
    105  CA      -109.8310  -37.1510   56.4880 C.3    52  SER52       0.2055
    106  C       -110.6770  -35.9780   56.9480 C.2    52  SER52       0.2643
    107  O       -110.2020  -34.8480   56.9920 O.2    52  SER52      -0.2714
    108  CB      -109.2080  -37.8490   57.6930 C.3    52  SER52       0.2130
    109  OG      -108.4490  -38.9720   57.2850 O.3    52  SER52      -0.2179
    110  N       -111.9340  -36.2410   57.2870 N.am   53  PHE53      -0.1959
    111  CA      -112.7910  -35.2020   57.8460 C.3    53  PHE53       0.1771
    112  C       -113.6840  -35.7430   58.9510 C.2    53  PHE53       0.2619
    113  O       -114.4380  -36.6910   58.7440 O.2    53  PHE53      -0.2715
    114  CB      -113.6480  -34.5740   56.7470 C.3    53  PHE53       0.0574
    115  CG      -114.5030  -33.4370   57.2210 C.ar   53  PHE53      -0.0200
    116  CD1     -114.0090  -32.1490   57.2450 C.ar   53  PHE53      -0.0042
    117  CD2     -115.8010  -33.6570   57.6410 C.ar   53  PHE53      -0.0042
    118  CE1     -114.7900  -31.1060   57.6800 C.ar   53  PHE53      -0.0003
    119  CE2     -116.5850  -32.6160   58.0770 C.ar   53  PHE53      -0.0003
    120  CZ      -116.0790  -31.3400   58.0970 C.ar   53  PHE53      -0.0000
    121  N       -113.6120  -35.1210   60.1210 N.am   54  GLU54      -0.1977
    122  CA      -114.4460  -35.5270   61.2400 C.3    54  GLU54       0.1602
    123  C       -115.8620  -35.0160   61.0340 C.2    54  GLU54       0.2287
    124  O       -116.1130  -33.8180   61.1090 O.2    54  GLU54      -0.2864
    125  CB      -113.8710  -35.0150   62.5590 C.3    54  GLU54       0.0415
    126  CG      -114.3310  -35.8060   63.7720 C.3    54  GLU54       0.1163
    127  CD      -114.1050  -37.3030   63.6180 C.2    54  GLU54       0.3649
    128  OE1     -112.9660  -37.7610   63.8510 O.co2  54  GLU54      -0.2457
    129  OE2     -115.0650  -38.0220   63.2640 O.co2  54  GLU54      -0.2457
    130  N       -118.0850  -32.6990   63.1960 N.3    57  GLY57      -0.1225
    131  CA      -117.7880  -31.2870   63.0760 C.3    57  GLY57       0.1811
    132  C       -118.8190  -30.6380   62.1740 C.2    57  GLY57       0.2280
    133  O       -119.3560  -29.5790   62.4890 O.2    57  GLY57      -0.2866
    134  N       -122.3990  -30.4220   63.7270 N.3    60  ALA60      -0.1231
    135  CA      -122.5320  -29.2890   64.6250 C.3    60  ALA60       0.1694
    136  C       -122.8510  -28.0420   63.8260 C.2    60  ALA60       0.2592
    137  O       -123.6670  -27.2270   64.2350 O.2    60  ALA60      -0.2718
    138  CB      -121.2720  -29.0940   65.4330 C.3    60  ALA60       0.0304
    139  N       -122.1990  -27.8980   62.6800 N.am   61  ASN61      -0.1974
    140  CA      -122.4120  -26.7300   61.8400 C.3    61  ASN61       0.1688
    141  C       -123.8340  -26.6430   61.3090 C.2    61  ASN61       0.2292
    142  O       -124.4820  -25.6080   61.4280 O.2    61  ASN61      -0.2864
    143  CB      -121.4200  -26.7290   60.6760 C.3    61  ASN61       0.1181
    144  CG      -120.1220  -26.0310   61.0190 C.2    61  ASN61       0.2629
    145  OD1     -119.8020  -25.8320   62.1900 O.2    61  ASN61      -0.2716
    146  ND2     -119.3690  -25.6510   59.9970 N.am   61  ASN61      -0.0877
    147  N       -126.3480  -28.0360   62.5000 N.3    63  ALA63      -0.1231
    148  CA      -127.1710  -27.8110   63.6770 C.3    63  ALA63       0.1694
    149  C       -127.3090  -26.3260   63.9570 C.2    63  ALA63       0.2592
    150  O       -128.3860  -25.8500   64.2960 O.2    63  ALA63      -0.2718
    151  CB      -126.5840  -28.5190   64.8780 C.3    63  ALA63       0.0304
    152  N       -126.2080  -25.5990   63.8310 N.am   64  VAL64      -0.1966
    153  CA      -126.2250  -24.1590   64.0390 C.3    64  VAL64       0.1727
    154  C       -126.9980  -23.4500   62.9320 C.2    64  VAL64       0.2616
    155  O       -127.7240  -22.4950   63.1910 O.2    64  VAL64      -0.2715
    156  CB      -124.8130  -23.5830   64.1070 C.3    64  VAL64       0.0290
    157  CG1     -124.8730  -22.1100   64.4490 C.3    64  VAL64       0.0023
    158  CG2     -124.0070  -24.3110   65.1510 C.3    64  VAL64       0.0023
    159  N       -126.8320  -23.9090   61.6950 N.am   65  ASP65      -0.1971
    160  CA      -127.5350  -23.3070   60.5680 C.3    65  ASP65       0.1709
    161  C       -129.0460  -23.4160   60.7180 C.2    65  ASP65       0.2293
    162  O       -129.7810  -22.5150   60.3220 O.2    65  ASP65      -0.2864
    163  CB      -127.0980  -23.9510   59.2530 C.3    65  ASP65       0.1436
    164  CG      -125.7770  -23.4090   58.7510 C.2    65  ASP65       0.3671
    165  OD1     -125.5620  -22.1830   58.8540 O.co2  65  ASP65      -0.2456
    166  OD2     -124.9560  -24.2030   58.2460 O.co2  65  ASP65      -0.2456
    167  N       -130.6960  -23.5080   63.6840 N.3    67  ALA67      -0.1231
    168  CA      -131.0580  -22.5390   64.7080 C.3    67  ALA67       0.1694
    169  C       -130.9740  -21.1200   64.1700 C.2    67  ALA67       0.2592
    170  O       -131.8240  -20.2890   64.4670 O.2    67  ALA67      -0.2718
    171  CB      -130.1690  -22.6950   65.9240 C.3    67  ALA67       0.0304
    172  N       -129.9440  -20.8400   63.3850 N.am   68  ASN68      -0.1974
    173  CA      -129.8060  -19.5220   62.7860 C.3    68  ASN68       0.1688
    174  C       -130.9050  -19.2170   61.7760 C.2    68  ASN68       0.2292
    175  O       -131.3510  -18.0760   61.6690 O.2    68  ASN68      -0.2864
    176  CB      -128.4340  -19.3650   62.1240 C.3    68  ASN68       0.1181
    177  CG      -127.3210  -19.1380   63.1310 C.2    68  ASN68       0.2629
    178  OD1     -127.5540  -18.6470   64.2350 O.2    68  ASN68      -0.2716
    179  ND2     -126.1000  -19.4800   62.7450 N.am   68  ASN68      -0.0877
    180  N       -133.7590  -17.6390   63.2470 N.3    71  VAL71      -0.1231
    181  CA      -133.4550  -16.2710   63.6410 C.3    71  VAL71       0.1692
    182  C       -133.5510  -15.3350   62.4430 C.2    71  VAL71       0.2591
    183  O       -134.0260  -14.2090   62.5640 O.2    71  VAL71      -0.2718
    184  CB      -132.0660  -16.1570   64.2690 C.3    71  VAL71       0.0266
    185  CG1     -131.8270  -14.7390   64.7460 C.3    71  VAL71       0.0020
    186  CG2     -131.9460  -17.1180   65.4300 C.3    71  VAL71       0.0020
    187  N       -133.1060  -15.8050   61.2840 N.am   72  MET72      -0.1979
    188  CA      -133.1580  -14.9920   60.0740 C.3    72  MET72       0.1605
    189  C       -134.5950  -14.8090   59.6030 C.2    72  MET72       0.2287
    190  O       -134.9410  -13.7800   59.0260 O.2    72  MET72      -0.2864
    191  CB      -132.3000  -15.6080   58.9680 C.3    72  MET72       0.0413
    192  CG      -130.8040  -15.5950   59.2610 C.3    72  MET72       0.0598
    193  SD      -130.1340  -13.9240   59.3850 S.3    72  MET72      -0.1393
    194  CE      -130.3420  -13.3690   57.7030 C.3    72  MET72       0.0692
    195  N       -136.0490  -12.1950   61.8200 N.3    75  ARG75      -0.1245
    196  CA      -135.4000  -10.9200   61.5650 C.3    75  ARG75       0.1563
    197  C       -136.0060  -10.2480   60.3440 C.2    75  ARG75       0.2260
    198  O       -136.3940   -9.0840   60.3950 O.2    75  ARG75      -0.2867
    199  CB      -133.8960  -11.0960   61.3750 C.3    75  ARG75       0.0307
    200  CG      -133.1580   -9.7810   61.1700 C.3    75  ARG75       0.0489
    201  CD      -131.6580   -9.9860   61.0300 C.3    75  ARG75       0.2205
    202  NE      -131.0490  -10.6370   62.1840 N.pl3  75  ARG75      -0.0865
    203  CZ      -129.8020  -11.0910   62.2020 C.cat  75  ARG75       0.5346
    204  NH1     -129.0430  -10.9720   61.1230 N.pl3  75  ARG75       0.1354
    205  NH2     -129.3150  -11.6670   63.2900 N.pl3  75  ARG75       0.1354
@<TRIPOS>BOND
     1    87    86    1
     2    41    42    1
     3    98    96   ar
     4    98    97   ar
     5    96    94   ar
     6    42    43    1
     7    42    45    1
     8    46    45    1
     9    46    48    1
    10    63    62    2
    11    86    85    1
    12    97    95   ar
    13    62    61    1
    14    44    43    2
    15    33    32    2
    16    43    49   am
    17    45    47    1
    18    94    93   ar
    19    85    84    1
    20    32    31    1
    21    95    93   ar
    22    49    50    1
    23    93    92    1
    24    61    64    1
    25    61    60    1
    26    84    83    1
    27    64    65    1
    28    50    51    1
    29    50    53    1
    30    74    75    1
    31    52    51    2
    32    83    80    1
    33    92    89    1
    34    31    30    1
    35    31    34    1
    36    70    67   ar
    37    70    72   ar
    38    79    80    1
    39    79    76   am
    40    53    54    1
    41    34    35    1
    42    65    67   ar
    43    65    66   ar
    44    80    81    1
    45    75    78    1
    46    75    76    1
    47    88    89    1
    48    88    81   am
    49     1     2    1
    50    67    69   ar
    51    89    90    1
    52    72    73   ar
    53    81    82    2
    54    76    77    2
    55    55    54   ar
    56    55    57   ar
    57    54    56   ar
    58    66    68   ar
    59    35    37   ar
    60    35    36   ar
    61    37    39   ar
    62     2     3    1
    63     2     5    1
    64     3     4    2
    65    90    99   am
    66    90    91    2
    67    69    68   ar
    68    69    71   ar
    69    22    21    2
    70    57    59   ar
    71    99   100    1
    72    73    71   ar
    73    21    20    1
    74    56    58   ar
    75   103   100    1
    76    36    38   ar
    77    10    11    1
    78    39    40   ar
    79     5     6    1
    80    19    20    1
    81   100   101    1
    82    59    58   ar
    83    20    23    1
    84    13    12    2
    85    11    12    1
    86    11    14    1
    87   102   101    2
    88    38    40   ar
    89   101   104   am
    90     6     7    1
    91    23    24    1
    92    25    24   ar
    93    25    27   ar
    94    14    15    1
    95   104   105    1
    96    24    26   ar
    97    27    29   ar
    98     7     8    2
    99     7     9   am
   100    15    16    1
   101   105   106    1
   102   105   108    1
   103    26    28   ar
   104   114   115    1
   105   114   111    1
   106    29    28   ar
   107   106   107    2
   108   106   110   am
   109   115   116   ar
   110   115   117   ar
   111   116   118   ar
   112   109   108    1
   113   110   111    1
   114    16    18   ar
   115    16    17   ar
   116   117   119   ar
   117   118   120   ar
   118   194   193    1
   119   111   112    1
   120   119   120   ar
   121   166   164   ar
   122   113   112    2
   123   164   165   ar
   124   164   163    1
   125   112   121   am
   126   191   192    1
   127   191   188    1
   128   190   189    2
   129   163   160    1
   130   192   193    1
   131   189   188    1
   132   146   144   am
   133   188   187    1
   134   121   122    1
   135   162   161    2
   136   197   198    2
   137   197   196    1
   138   160   161    1
   139   160   159    1
   140   143   144    1
   141   143   140    1
   142   144   145    2
   143   201   200    1
   144   201   202    1
   145   123   124    2
   146   123   122    1
   147   204   203    1
   148   200   199    1
   149   122   125    1
   150   187   182   am
   151   141   142    2
   152   141   140    1
   153   199   196    1
   154   196   195    1
   155   175   174    2
   156   159   154   am
   157   174   173    1
   158   140   139    1
   159   176   173    1
   160   176   177    1
   161   132   133    2
   162   132   131    1
   163   202   203    2
   164   203   205    1
   165   182   183    2
   166   182   181    1
   167   147   148    1
   168   125   126    1
   169   139   136   am
   170   179   177   am
   171   173   172    1
   172   154   155    2
   173   154   153    1
   174   131   130    1
   175   177   178    2
   176   180   181    1
   177   129   127   ar
   178   172   169   am
   179   127   126    1
   180   127   128   ar
   181   181   184    1
   182   148   149    1
   183   148   151    1
   184   167   168    1
   185   134   135    1
   186   136   137    2
   187   136   135    1
   188   152   149   am
   189   152   153    1
   190   149   150    2
   191   153   156    1
   192   156   157    1
   193   156   158    1
   194   169   170    2
   195   169   168    1
   196   184   185    1
   197   184   186    1
   198   135   138    1
   199   168   171    1
