@<TRIPOS>MOLECULE
tmp/4p2tB00.pdb
 150 144 0 0 0
SMALL
GASTEIGER

@<TRIPOS>ATOM
      1  N         -5.9950  -23.2680  -15.2650 N.3    41  ILE41      -0.1245
      2  CA        -5.0880  -24.0850  -14.4690 C.3    41  ILE41       0.1561
      3  C         -3.9250  -23.2400  -13.9670 C.2    41  ILE41       0.2260
      4  O         -3.1400  -22.7140  -14.7580 O.2    41  ILE41      -0.2867
      5  CB        -4.5470  -25.2810  -15.2750 C.3    41  ILE41       0.0252
      6  CG1       -5.7100  -26.1310  -15.7940 C.3    41  ILE41       0.0019
      7  CG2       -3.6120  -26.1310  -14.4130 C.3    41  ILE41       0.0019
      8  CD1       -5.3050  -27.1750  -16.8070 C.3    41  ILE41       0.0001
      9  N         -8.7190  -30.6670  -22.5390 N.3    73  PHE73      -0.1241
     10  CA        -8.2750  -30.8710  -21.1640 C.3    73  PHE73       0.1605
     11  C         -8.7410  -32.2180  -20.6290 C.2    73  PHE73       0.2264
     12  O         -7.9610  -32.9620  -20.0320 O.2    73  PHE73      -0.2867
     13  CB        -8.7830  -29.7560  -20.2510 C.3    73  PHE73       0.0534
     14  CG        -8.5710  -30.0350  -18.7890 C.ar   73  PHE73      -0.0203
     15  CD1       -7.3050  -29.9620  -18.2320 C.ar   73  PHE73      -0.0042
     16  CD2       -9.6380  -30.3750  -17.9720 C.ar   73  PHE73      -0.0042
     17  CE1       -7.1060  -30.2210  -16.8900 C.ar   73  PHE73      -0.0003
     18  CE2       -9.4450  -30.6330  -16.6280 C.ar   73  PHE73      -0.0003
     19  CZ        -8.1780  -30.5560  -16.0870 C.ar   73  PHE73      -0.0000
     20  N         -6.7770  -35.2380  -22.1830 N.3    76  LEU76      -0.1231
     21  CA        -5.4130  -35.3140  -21.6770 C.3    76  LEU76       0.1693
     22  C         -5.4030  -35.6820  -20.1950 C.2    76  LEU76       0.2591
     23  O         -4.5740  -36.4740  -19.7470 O.2    76  LEU76      -0.2718
     24  CB        -4.6910  -33.9830  -21.9040 C.3    76  LEU76       0.0284
     25  CG        -3.2270  -33.8950  -21.4690 C.3    76  LEU76       0.0019
     26  CD1       -2.3950  -35.0230  -22.0660 C.3    76  LEU76       0.0001
     27  CD2       -2.6530  -32.5430  -21.8670 C.3    76  LEU76       0.0001
     28  N         -6.3340  -35.1070  -19.4420 N.am   77  ALA77      -0.1980
     29  CA        -6.4640  -35.4060  -18.0200 C.3    77  ALA77       0.1597
     30  C         -6.8040  -36.8790  -17.8010 C.2    77  ALA77       0.2287
     31  O         -6.1940  -37.5480  -16.9660 O.2    77  ALA77      -0.2864
     32  CB        -7.5250  -34.5180  -17.3920 C.3    77  ALA77       0.0319
     33  N         -3.8630  -39.1420  -18.6290 N.3    80  LEU80      -0.1231
     34  CA        -2.9070  -39.1300  -17.5310 C.3    80  LEU80       0.1693
     35  C         -3.4160  -39.9730  -16.3670 C.2    80  LEU80       0.2591
     36  O         -2.6670  -40.7480  -15.7760 O.2    80  LEU80      -0.2718
     37  CB        -2.6380  -37.6970  -17.0710 C.3    80  LEU80       0.0284
     38  CG        -1.7380  -36.8610  -17.9840 C.3    80  LEU80       0.0019
     39  CD1       -1.8350  -35.3830  -17.6400 C.3    80  LEU80       0.0001
     40  CD2       -0.2990  -37.3420  -17.8970 C.3    80  LEU80       0.0001
     41  N         -4.6970  -39.8240  -16.0490 N.am   81  ALA81      -0.1980
     42  CA        -5.2920  -40.5350  -14.9250 C.3    81  ALA81       0.1597
     43  C         -5.2370  -42.0500  -15.1120 C.2    81  ALA81       0.2287
     44  O         -5.1440  -42.7970  -14.1380 O.2    81  ALA81      -0.2864
     45  CB        -6.7300  -40.0840  -14.7250 C.3    81  ALA81       0.0319
     46  N         -0.6070  -42.6970  -16.7010 N.3    84  SER84      -0.1217
     47  CA         0.5770  -42.1000  -16.0850 C.3    84  SER84       0.1889
     48  C          0.7890  -42.6340  -14.6730 C.2    84  SER84       0.2288
     49  O         -0.0270  -42.3960  -13.7850 O.2    84  SER84      -0.2866
     50  CB         0.4630  -40.5750  -16.0480 C.3    84  SER84       0.2089
     51  OG         1.5920  -40.0000  -15.4130 O.3    84  SER84      -0.2183
     52  N          3.0200  -41.5860  -12.7660 N.3    86  VAL86      -0.1231
     53  CA         3.3430  -40.4020  -11.9780 C.3    86  VAL86       0.1692
     54  C          2.0690  -39.7880  -11.4070 C.2    86  VAL86       0.2591
     55  O          1.9730  -39.5420  -10.2060 O.2    86  VAL86      -0.2718
     56  CB         4.0930  -39.3450  -12.8190 C.3    86  VAL86       0.0266
     57  CG1        4.4970  -38.1580  -11.9560 C.3    86  VAL86       0.0020
     58  CG2        5.3210  -39.9580  -13.4760 C.3    86  VAL86       0.0020
     59  N          1.0940  -39.5480  -12.2790 N.am   87  ALA87      -0.1980
     60  CA        -0.1810  -38.9690  -11.8740 C.3    87  ALA87       0.1597
     61  C         -0.8890  -39.8460  -10.8440 C.2    87  ALA87       0.2287
     62  O         -1.5680  -39.3430   -9.9500 O.2    87  ALA87      -0.2864
     63  CB        -1.0700  -38.7620  -13.0880 C.3    87  ALA87       0.0319
     64  N        -10.2190  -40.5390  -12.5210 N.3    99  LEU99      -0.1245
     65  CA       -10.0720  -39.1470  -12.9270 C.3    99  LEU99       0.1561
     66  C        -10.4240  -38.1850  -11.7940 C.2    99  LEU99       0.2260
     67  O         -9.6820  -37.2420  -11.5220 O.2    99  LEU99      -0.2867
     68  CB       -10.9460  -38.8580  -14.1500 C.3    99  LEU99       0.0270
     69  CG       -10.9420  -37.4200  -14.6760 C.3    99  LEU99       0.0019
     70  CD1       -9.5310  -36.9420  -14.9940 C.3    99  LEU99       0.0001
     71  CD2      -11.8270  -37.3100  -15.9070 C.3    99  LEU99       0.0001
     72  N         -7.8460  -38.1470   -8.9350 N.3   102  ILE102     -0.1231
     73  CA        -6.5580  -37.6460   -9.4000 C.3   102  ILE102      0.1692
     74  C         -6.6370  -36.1380   -9.6290 C.2   102  ILE102      0.2591
     75  O         -5.6720  -35.4140   -9.3830 O.2   102  ILE102     -0.2718
     76  CB        -6.1040  -38.3820  -10.6830 C.3   102  ILE102      0.0266
     77  CG1       -5.5780  -39.7690  -10.2990 C.3   102  ILE102      0.0019
     78  CG2       -5.0200  -37.5930  -11.4240 C.3   102  ILE102      0.0020
     79  CD1       -5.1950  -40.6520  -11.4640 C.3   102  ILE102      0.0001
     80  N         -7.7900  -35.6690  -10.0950 N.am  103  LEU103     -0.1980
     81  CA        -8.0450  -34.2370  -10.1900 C.3   103  LEU103      0.1596
     82  C         -7.9880  -33.6170   -8.7970 C.2   103  LEU103      0.2287
     83  O         -7.3330  -32.5970   -8.5800 O.2   103  LEU103     -0.2864
     84  CB        -9.4080  -33.9650  -10.8320 C.3   103  LEU103      0.0297
     85  CG        -9.5250  -34.1530  -12.3470 C.3   103  LEU103      0.0022
     86  CD1      -10.9830  -34.1480  -12.7670 C.3   103  LEU103      0.0001
     87  CD2       -8.7620  -33.0680  -13.0860 C.3   103  LEU103      0.0001
     88  N         -4.1510  -33.6050   -7.4330 N.3   106  TRP106     -0.1227
     89  CA        -3.1640  -32.6980   -8.0130 C.3   106  TRP106      0.1737
     90  C         -3.6670  -31.2590   -8.1020 C.2   106  TRP106      0.2595
     91  O         -2.8720  -30.3200   -8.1050 O.2   106  TRP106     -0.2718
     92  CB        -2.7540  -33.1910   -9.4000 C.3   106  TRP106      0.0564
     93  CG        -1.9660  -34.4620   -9.3650 C.ar  106  TRP106      0.0003
     94  CD1       -2.4390  -35.7260   -9.5590 C.ar  106  TRP106      0.0946
     95  CD2       -0.5600  -34.5930   -9.1190 C.ar  106  TRP106      0.0152
     96  NE1       -1.4150  -36.6370   -9.4500 N.ar  106  TRP106     -0.2442
     97  CE2       -0.2520  -35.9660   -9.1790 C.ar  106  TRP106      0.0810
     98  CE3        0.4660  -33.6810   -8.8540 C.ar  106  TRP106      0.0012
     99  CZ2        1.0410  -36.4500   -8.9880 C.ar  106  TRP106      0.0191
    100  CZ3        1.7490  -34.1630   -8.6640 C.ar  106  TRP106      0.0001
    101  CH2        2.0240  -35.5350   -8.7310 C.ar  106  TRP106      0.0015
    102  N         -4.9850  -31.0930   -8.1690 N.am  107  LEU107     -0.1980
    103  CA        -5.6000  -29.7670   -8.2170 C.3   107  LEU107      0.1596
    104  C         -6.5720  -29.5930   -7.0500 C.2   107  LEU107      0.2287
    105  O         -7.7800  -29.4830   -7.2550 O.2   107  LEU107     -0.2864
    106  CB        -6.3180  -29.5610   -9.5570 C.3   107  LEU107      0.0297
    107  CG        -5.4200  -29.6290  -10.7980 C.3   107  LEU107      0.0022
    108  CD1       -6.2440  -29.7510  -12.0790 C.3   107  LEU107      0.0001
    109  CD2       -4.5200  -28.4090  -10.8630 C.3   107  LEU107      0.0001
    110  N         -8.1560  -23.5480  -24.7210 N.3   183  PHE183     -0.1241
    111  CA        -7.2420  -24.4010  -23.9680 C.3   183  PHE183      0.1605
    112  C         -6.0320  -24.8670  -24.7600 C.2   183  PHE183      0.2264
    113  O         -6.1540  -25.3510  -25.8850 O.2   183  PHE183     -0.2867
    114  CB        -7.9650  -25.6440  -23.4550 C.3   183  PHE183      0.0534
    115  CG        -7.0790  -26.5610  -22.6650 C.ar  183  PHE183     -0.0203
    116  CD1       -6.8060  -26.3070  -21.3300 C.ar  183  PHE183     -0.0042
    117  CD2       -6.5020  -27.6670  -23.2630 C.ar  183  PHE183     -0.0042
    118  CE1       -5.9830  -27.1480  -20.6070 C.ar  183  PHE183     -0.0003
    119  CE2       -5.6790  -28.5100  -22.5450 C.ar  183  PHE183     -0.0003
    120  CZ        -5.4190  -28.2520  -21.2160 C.ar  183  PHE183     -0.0000
    121  N         -2.3160  -27.1370  -23.4590 N.3   185  SER185     -0.1203
    122  CA        -1.6440  -27.7640  -22.3300 C.3   185  SER185      0.2005
    123  C         -0.6860  -26.7650  -21.6920 C.2   185  SER185      0.2461
    124  O         -0.1320  -25.9160  -22.3910 O.2   185  SER185     -0.2732
    125  CB        -0.8820  -29.0090  -22.7790 C.3   185  SER185      0.2103
    126  OG        -0.2670  -29.6600  -21.6840 O.3   185  SER185     -0.2182
    127  N         -0.4860  -26.8540  -20.3650 N.am  186  PRO186     -0.2717
    128  CA         0.4690  -25.9450  -19.7190 C.3   186  PRO186      0.1535
    129  C          1.8630  -26.0510  -20.3290 C.2   186  PRO186      0.2598
    130  O          2.6120  -25.0740  -20.3580 O.2   186  PRO186     -0.2715
    131  CB         0.4750  -26.4150  -18.2590 C.3   186  PRO186      0.0310
    132  CG        -0.8240  -27.1130  -18.0740 C.3   186  PRO186      0.0237
    133  CD        -1.1360  -27.7510  -19.3930 C.3   186  PRO186      0.0939
    134  N          2.1930  -27.2390  -20.8220 N.am  187  LEU187     -0.1964
    135  CA         3.5050  -27.5000  -21.4010 C.3   187  LEU187      0.1728
    136  C          3.6510  -26.8580  -22.7840 C.2   187  LEU187      0.2616
    137  O          4.7460  -26.8290  -23.3490 O.2   187  LEU187     -0.2715
    138  CB         3.7400  -29.0100  -21.4870 C.3   187  LEU187      0.0311
    139  CG         5.1730  -29.5120  -21.6780 C.3   187  LEU187      0.0022
    140  CD1        6.0940  -29.0250  -20.5670 C.3   187  LEU187      0.0001
    141  CD2        5.1780  -31.0310  -21.7380 C.3   187  LEU187      0.0001
    142  N          2.5460  -26.3440  -23.3200 N.am  188  GLU188     -0.1977
    143  CA         2.5640  -25.6360  -24.5980 C.3   188  GLU188      0.1602
    144  C          2.6940  -24.1270  -24.4030 C.2   188  GLU188      0.2287
    145  O          2.7650  -23.3740  -25.3740 O.2   188  GLU188     -0.2864
    146  CB         1.2990  -25.9470  -25.4000 C.3   188  GLU188      0.0415
    147  CG         1.3620  -27.2550  -26.1710 C.3   188  GLU188      0.1163
    148  CD         0.0710  -27.5630  -26.9050 C.2   188  GLU188      0.3649
    149  OE1       -1.0130  -27.2490  -26.3670 O.co2 188  GLU188     -0.2457
    150  OE2        0.1400  -28.1200  -28.0200 O.co2 188  GLU188     -0.2457
@<TRIPOS>BOND
     1   150   148   ar
     2   148   149   ar
     3   148   147    1
     4   147   146    1
     5   113   112    2
     6   146   143    1
     7   145   144    2
     8   112   111    1
     9   110   111    1
    10   143   144    1
    11   143   142    1
    12   111   114    1
    13   121   122    1
    14   114   115    1
    15   137   136    2
    16   142   136   am
    17   117   115   ar
    18   117   119   ar
    19   136   135    1
    20   125   122    1
    21   125   126    1
    22   115   116   ar
    23   119   120   ar
    24     9    10    1
    25   124   123    2
    26   122   123    1
    27    20    21    1
    28    26    25    1
    29    24    21    1
    30    24    25    1
    31    27    25    1
    32   141   139    1
    33   123   127   am
    34   139   138    1
    35   139   140    1
    36    21    22    1
    37   138   135    1
    38   135   134    1
    39   116   118   ar
    40   120   118   ar
    41    10    11    1
    42    10    13    1
    43   134   129   am
    44    11    12    2
    45   127   128    1
    46   127   133    1
    47   130   129    2
    48   129   128    1
    49    13    14    1
    50    22    23    2
    51    22    28   am
    52   128   131    1
    53    28    29    1
    54   133   132    1
    55    14    15   ar
    56    14    16   ar
    57    33    34    1
    58   131   132    1
    59    15    17   ar
    60    29    30    1
    61    29    32    1
    62    38    40    1
    63    38    39    1
    64    38    37    1
    65    16    18   ar
    66    30    31    2
    67    34    37    1
    68    34    35    1
    69    17    19   ar
    70     8     6    1
    71    46    47    1
    72    18    19   ar
    73    35    41   am
    74    35    36    2
    75    47    50    1
    76    47    48    1
    77    41    42    1
    78    50    51    1
    79    71    69    1
    80     6     5    1
    81     5     2    1
    82     5     7    1
    83     1     2    1
    84    43    42    1
    85    43    44    2
    86    70    69    1
    87    42    45    1
    88     4     3    2
    89    69    68    1
    90    48    49    2
    91     2     3    1
    92    68    65    1
    93    58    56    1
    94    63    60    1
    95    87    85    1
    96    65    64    1
    97    65    66    1
    98    56    53    1
    99    56    57    1
   100    86    85    1
   101    52    53    1
   102    85    84    1
   103    59    60    1
   104    59    54   am
   105   108   107    1
   106    53    54    1
   107    60    61    1
   108    66    67    2
   109    79    77    1
   110    78    76    1
   111    54    55    2
   112   109   107    1
   113    61    62    2
   114    84    81    1
   115   107   106    1
   116    76    77    1
   117    76    73    1
   118    81    80    1
   119    81    82    1
   120    80    74   am
   121    74    73    1
   122    74    75    2
   123    94    96   ar
   124    94    93   ar
   125   106   103    1
   126    96    97   ar
   127    73    72    1
   128    92    93    1
   129    92    89    1
   130    93    95   ar
   131    97    95   ar
   132    97    99   ar
   133    95    98   ar
   134    99   101   ar
   135    98   100   ar
   136    82    83    2
   137   101   100   ar
   138   103   102    1
   139   103   104    1
   140   102    90   am
   141    91    90    2
   142    90    89    1
   143    89    88    1
   144   105   104    2
