@<TRIPOS>MOLECULE
tmp/4p2vI00.pdb
 146 139 0 0 0
SMALL
GASTEIGER

@<TRIPOS>ATOM
      1  N          9.4250    5.3710  -26.0500 N.3    47  ALA47      -0.1245
      2  CA         9.7220    3.9480  -26.1460 C.3    47  ALA47       0.1562
      3  C         10.3610    3.4260  -24.8660 C.2    47  ALA47       0.2260
      4  O         11.3620    3.9590  -24.3970 O.2    47  ALA47      -0.2867
      5  CB        10.6220    3.6730  -27.3340 C.3    47  ALA47       0.0290
      6  N         10.3200   -0.3240  -24.4400 N.3    49  ASP49      -0.1225
      7  CA        10.1660   -1.7500  -24.6870 C.3    49  ASP49       0.1805
      8  C         11.5010   -2.4680  -24.5620 C.2    49  ASP49       0.2597
      9  O         11.5760   -3.6770  -24.7640 O.2    49  ASP49      -0.2718
     10  CB         9.5760   -2.0000  -26.0760 C.3    49  ASP49       0.1424
     11  CG        10.4140   -1.3890  -27.1820 C.2    49  ASP49       0.3668
     12  OD1       10.9080   -0.2580  -27.0000 O.co2  49  ASP49      -0.2456
     13  OD2       10.5940   -2.0460  -28.2270 O.co2  49  ASP49      -0.2456
     14  N         12.5420   -1.7190  -24.2080 N.am   50  HIS50      -0.1975
     15  CA        13.9210   -2.2110  -24.2190 C.3    50  HIS50       0.1656
     16  C         14.1200   -3.5260  -23.4690 C.2    50  HIS50       0.2291
     17  O         15.0400   -4.2830  -23.7750 O.2    50  HIS50      -0.2864
     18  CB        14.8610   -1.1610  -23.6200 C.3    50  HIS50       0.0771
     19  CG        14.8390    0.1550  -24.3310 C.ar   50  HIS50       0.0820
     20  ND1       13.8060    1.0570  -24.1950 N.ar   50  HIS50      -0.2267
     21  CD2       15.7350    0.7310  -25.1660 C.ar   50  HIS50       0.1154
     22  CE1       14.0610    2.1270  -24.9260 C.ar   50  HIS50       0.1986
     23  NE2       15.2250    1.9560  -25.5250 N.ar   50  HIS50      -0.2212
     24  N         12.6210   -6.2220  -23.6090 N.3    52  TYR52      -0.1227
     25  CA        12.2070   -7.4270  -24.3250 C.3    52  TYR52       0.1736
     26  C         13.4110   -8.2660  -24.7610 C.2    52  TYR52       0.2595
     27  O         13.2510   -9.4080  -25.1930 O.2    52  TYR52      -0.2718
     28  CB        11.3020   -7.0570  -25.5170 C.3    52  TYR52       0.0548
     29  CG        11.9780   -6.6710  -26.8220 C.ar   52  TYR52      -0.0200
     30  CD1       12.4280   -7.6370  -27.7160 C.ar   52  TYR52      -0.0009
     31  CD2       12.1450   -5.3360  -27.1680 C.ar   52  TYR52      -0.0009
     32  CE1       13.0290   -7.2820  -28.9070 C.ar   52  TYR52       0.0417
     33  CE2       12.7450   -4.9730  -28.3530 C.ar   52  TYR52       0.0417
     34  CZ        13.1850   -5.9480  -29.2200 C.ar   52  TYR52       0.1957
     35  OH        13.7880   -5.5890  -30.4020 O.3    52  TYR52      -0.2866
     36  N         14.6090   -7.6920  -24.6630 N.am   53  PHE53      -0.1962
     37  CA        15.8420   -8.4380  -24.9190 C.3    53  PHE53       0.1771
     38  C         17.0120   -7.9570  -24.0600 C.2    53  PHE53       0.2619
     39  O         18.0940   -8.5440  -24.0970 O.2    53  PHE53      -0.2715
     40  CB        16.2430   -8.3820  -26.3990 C.3    53  PHE53       0.0574
     41  CG        16.6680   -7.0200  -26.8770 C.ar   53  PHE53      -0.0200
     42  CD1       15.7480   -5.9990  -27.0420 C.ar   53  PHE53      -0.0042
     43  CD2       18.0010   -6.7540  -27.1320 C.ar   53  PHE53      -0.0042
     44  CE1       16.1480   -4.7460  -27.4860 C.ar   53  PHE53      -0.0003
     45  CE2       18.4070   -5.5020  -27.5680 C.ar   53  PHE53      -0.0003
     46  CZ        17.4780   -4.5000  -27.7470 C.ar   53  PHE53      -0.0000
     47  N         16.7970   -6.8950  -23.2890 N.am   54  GLN54      -0.1977
     48  CA        17.8680   -6.3180  -22.4780 C.3    54  GLN54       0.1601
     49  C         17.6700   -6.5570  -20.9800 C.2    54  GLN54       0.2287
     50  O         18.6050   -6.4010  -20.1930 O.2    54  GLN54      -0.2864
     51  CB        17.9780   -4.8120  -22.7420 C.3    54  GLN54       0.0394
     52  CG        18.1660   -4.4470  -24.2070 C.3    54  GLN54       0.0908
     53  CD        18.2570   -2.9430  -24.4340 C.2    54  GLN54       0.2608
     54  OE1       18.0450   -2.1430  -23.5180 O.2    54  GLN54      -0.2717
     55  NE2       18.5890   -2.5530  -25.6560 N.am   54  GLN54      -0.0878
     56  N          5.2840    3.3670  -26.4060 N.3    78  MET78      -0.1245
     57  CA         5.7070    2.1260  -27.0360 C.3    78  MET78       0.1570
     58  C          6.2880    1.1600  -26.0300 C.2    78  MET78       0.2261
     59  O          7.2900    1.4440  -25.3790 O.2    78  MET78      -0.2867
     60  CB         6.7310    2.3340  -28.1390 C.3    78  MET78       0.0387
     61  CG         7.1780    0.9720  -28.6310 C.3    78  MET78       0.0595
     62  SD         7.7440    0.8150  -30.3180 S.3    78  MET78      -0.1393
     63  CE         8.2340   -0.9040  -30.2630 C.3    78  MET78       0.0692
     64  N          5.1120   -3.7550  -28.9770 N.3    99  ARG99      -0.1245
     65  CA         6.2300   -4.5500  -29.4690 C.3    99  ARG99       0.1563
     66  C          5.7430   -5.9430  -29.8440 C.2    99  ARG99       0.2260
     67  O          5.2970   -6.7020  -28.9860 O.2    99  ARG99      -0.2867
     68  CB         7.3330   -4.6290  -28.4110 C.3    99  ARG99       0.0307
     69  CG         8.5100   -5.5270  -28.7670 C.3    99  ARG99       0.0489
     70  CD         9.2300   -5.1690  -30.0620 C.3    99  ARG99       0.2205
     71  NE         9.8400   -3.8420  -30.0560 N.pl3  99  ARG99      -0.0865
     72  CZ        10.5830   -3.3700  -31.0520 C.cat  99  ARG99       0.5346
     73  NH1       10.8130   -4.1260  -32.1150 N.pl3  99  ARG99       0.1354
     74  NH2       11.1100   -2.1560  -30.9850 N.pl3  99  ARG99       0.1354
     75  N         11.3320   -5.4000  -35.3430 N.3   133  GLN133     -0.1245
     76  CA        12.6420   -5.0310  -35.8570 C.3   133  GLN133      0.1566
     77  C         12.8890   -5.6630  -37.2210 C.2   133  GLN133      0.2260
     78  O         12.5780   -6.8330  -37.4310 O.2   133  GLN133     -0.2867
     79  CB        13.7430   -5.4670  -34.8930 C.3   133  GLN133      0.0367
     80  CG        13.6310   -4.9130  -33.4890 C.3   133  GLN133      0.0905
     81  CD        13.8000   -3.4130  -33.4280 C.2   133  GLN133      0.2608
     82  OE1       12.9440   -2.7040  -32.9010 O.2   133  GLN133     -0.2717
     83  NE2       14.9020   -2.9170  -33.9760 N.am  133  GLN133     -0.0878
     84  N         11.1720   -1.2860  -37.4850 N.3   165  VAL165     -0.1245
     85  CA        12.3160   -0.6290  -36.8840 C.3   165  VAL165      0.1561
     86  C         13.5970   -1.2100  -37.4640 C.2   165  VAL165      0.2260
     87  O         13.8730   -2.3970  -37.2970 O.2   165  VAL165     -0.2867
     88  CB        12.3160   -0.7890  -35.3570 C.3   165  VAL165      0.0252
     89  CG1       13.4530    0.0100  -34.7380 C.3   165  VAL165      0.0019
     90  CG2       10.9760   -0.3570  -34.7820 C.3   165  VAL165      0.0019
     91  N         17.5600    5.5740  -37.8700 N.3   197  TYR197     -0.1241
     92  CA        18.4960    6.4800  -37.2230 C.3   197  TYR197      0.1605
     93  C         18.8570    7.6790  -38.0780 C.2   197  TYR197      0.2264
     94  O         18.8990    7.6000  -39.3060 O.2   197  TYR197     -0.2867
     95  CB        19.7580    5.7100  -36.8580 C.3   197  TYR197      0.0534
     96  CG        19.5390    4.7050  -35.7600 C.ar  197  TYR197     -0.0201
     97  CD1       19.4500    5.1080  -34.4350 C.ar  197  TYR197     -0.0009
     98  CD2       19.3420    3.3630  -36.0520 C.ar  197  TYR197     -0.0009
     99  CE1       19.2380    4.1940  -33.4250 C.ar  197  TYR197      0.0417
    100  CE2       19.1180    2.4400  -35.0490 C.ar  197  TYR197      0.0417
    101  CZ        19.0670    2.8620  -33.7370 C.ar  197  TYR197      0.1957
    102  OH        18.8440    1.9500  -32.7330 O.3   197  TYR197     -0.2866
    103  N         14.7750    6.8600  -34.1940 N.3   217  ALA217     -0.1231
    104  CA        15.1140    6.2630  -32.9100 C.3   217  ALA217      0.1694
    105  C         16.1080    7.1530  -32.1740 C.2   217  ALA217      0.2593
    106  O         17.0060    7.7330  -32.7840 O.2   217  ALA217     -0.2718
    107  CB        15.6830    4.8710  -33.1020 C.3   217  ALA217      0.0304
    108  N         15.9430    7.2500  -30.8580 N.am  218  GLY218     -0.1942
    109  CA        16.7240    8.1700  -30.0520 C.3   218  GLY218      0.2014
    110  C         18.1910    7.8060  -29.9940 C.2   218  GLY218      0.2639
    111  O         19.0690    8.6700  -30.0220 O.2   218  GLY218     -0.2714
    112  N         18.4490    6.5090  -29.8930 N.am  219  GLY219     -0.1954
    113  CA        19.7970    5.9940  -29.7590 C.3   219  GLY219      0.1869
    114  C         20.2580    6.1180  -28.3210 C.2   219  GLY219      0.2309
    115  O         19.4860    6.5170  -27.4560 O.2   219  GLY219     -0.2863
    116  N         11.0860    8.5790  -31.8310 N.3   243  ASP243     -0.1239
    117  CA        10.8750    7.3120  -31.1390 C.3   243  ASP243      0.1674
    118  C         11.9130    7.2530  -30.0230 C.2   243  ASP243      0.2266
    119  O         12.8750    6.4910  -30.0850 O.2   243  ASP243     -0.2867
    120  CB        11.0170    6.1350  -32.1140 C.3   243  ASP243      0.1410
    121  CG        10.7210    4.7870  -31.4770 C.2   243  ASP243      0.3668
    122  OD1       10.3000    4.7440  -30.3040 O.co2 243  ASP243     -0.2456
    123  OD2       10.9080    3.7610  -32.1660 O.co2 243  ASP243     -0.2456
    124  N         13.5180    6.5110  -26.6460 N.3   245  GLY245     -0.1210
    125  CA        13.6880    5.7490  -25.4320 C.3   245  GLY245      0.1956
    126  C         14.6730    6.4540  -24.5160 C.2   245  GLY245      0.2612
    127  O         14.2830    7.2650  -23.6770 O.2   245  GLY245     -0.2717
    128  N         15.9560    6.1670  -24.6980 N.am  246  ARG246     -0.1965
    129  CA        16.9670    6.4960  -23.6980 C.3   246  ARG246      0.1729
    130  C         17.3410    7.9690  -23.5040 C.2   246  ARG246      0.2616
    131  O         17.7930    8.3450  -22.4240 O.2   246  ARG246     -0.2715
    132  CB        18.2340    5.7140  -24.0340 C.3   246  ARG246      0.0348
    133  CG        18.1180    4.2430  -23.7030 C.3   246  ARG246      0.0492
    134  CD        19.1420    3.4180  -24.4420 C.3   246  ARG246      0.2205
    135  NE        19.0100    3.5610  -25.8880 N.pl3 246  ARG246     -0.0865
    136  CZ        19.7680    2.9210  -26.7700 C.cat 246  ARG246      0.5346
    137  NH1       20.7070    2.0850  -26.3520 N.pl3 246  ARG246      0.1354
    138  NH2       19.5810    3.1050  -28.0690 N.pl3 246  ARG246      0.1354
    139  N         17.1450    8.8140  -24.5090 N.am  247  ASN247     -0.1972
    140  CA        17.4310   10.2340  -24.3130 C.3   247  ASN247      0.1688
    141  C         16.3630   10.9580  -23.5010 C.2   247  ASN247      0.2292
    142  O         16.5040   12.1410  -23.1960 O.2   247  ASN247     -0.2864
    143  CB        17.6490   10.9340  -25.6550 C.3   247  ASN247      0.1181
    144  CG        18.9140   10.4630  -26.3560 C.2   247  ASN247      0.2629
    145  OD1       20.0130   10.9300  -26.0530 O.2   247  ASN247     -0.2716
    146  ND2       18.7650    9.5320  -27.2910 N.am  247  ASN247     -0.0877
@<TRIPOS>BOND
     1    94    93    2
     2    93    92    1
     3    91    92    1
     4    84    85    1
     5    86    87    2
     6    86    85    1
     7    78    77    2
     8    92    95    1
     9    77    76    1
    10    85    88    1
    11    95    96    1
    12    98    96   ar
    13    98   100   ar
    14    76    75    1
    15    76    79    1
    16    96    97   ar
    17    88    90    1
    18    88    89    1
    19   100   101   ar
    20    79    80    1
    21    97    99   ar
    22   103   104    1
    23    83    81   am
    24   101    99   ar
    25   101   102    1
    26    80    81    1
    27    81    82    2
    28   107   104    1
    29   104   105    1
    30   106   105    2
    31   105   108   am
    32   123   121   ar
    33    73    72    1
    34   120   121    1
    35   120   117    1
    36   116   117    1
    37   121   122   ar
    38   117   118    1
    39    72    74    1
    40    72    71    2
    41   108   109    1
    42    35    34    1
    43    62    63    1
    44    62    61    1
    45   119   118    2
    46    70    71    1
    47    70    69    1
    48   109   110    1
    49   111   110    2
    50   110   112   am
    51   112   113    1
    52    66    65    1
    53    66    67    2
    54   113   114    1
    55    65    64    1
    56    65    68    1
    57    34    32   ar
    58    34    33   ar
    59    32    30   ar
    60    69    68    1
    61    61    60    1
    62    33    31   ar
    63   114   115    2
    64    13    11   ar
    65    60    57    1
    66   138   136    1
    67    46    45   ar
    68    46    44   ar
    69    30    29   ar
    70    45    43   ar
    71    44    42   ar
    72     5     2    1
    73   146   144   am
    74    11    12   ar
    75    11    10    1
    76    31    29   ar
    77    43    41   ar
    78    42    41   ar
    79    57    56    1
    80    57    58    1
    81    41    40    1
    82    29    28    1
    83   136   137    1
    84   136   135    2
    85   124   125    1
    86    40    37    1
    87   144   145    2
    88   144   143    1
    89     2     1    1
    90     2     3    1
    91    10     7    1
    92    58    59    2
    93   135   134    1
    94    55    53   am
    95   143   140    1
    96    23    21   ar
    97    23    22   ar
    98    28    25    1
    99   125   126    1
   100    27    26    2
   101    21    19   ar
   102    22    20   ar
   103    37    36    1
   104    37    38    1
   105     3     4    2
   106     9     8    2
   107    26    36   am
   108    26    25    1
   109   128   126   am
   110   128   129    1
   111     7     8    1
   112     7     6    1
   113     8    14   am
   114   126   127    2
   115   139   140    1
   116   139   130   am
   117   134   133    1
   118    53    52    1
   119    53    54    2
   120    19    20   ar
   121    19    18    1
   122    25    24    1
   123   140   141    1
   124    15    14    1
   125    15    18    1
   126    15    16    1
   127    52    51    1
   128    39    38    2
   129    38    47   am
   130   132   133    1
   131   132   129    1
   132    17    16    2
   133   129   130    1
   134   130   131    2
   135   141   142    2
   136    47    48    1
   137    51    48    1
   138    48    49    1
   139    49    50    2
