@<TRIPOS>MOLECULE
tmp/4p2zA00.pdb
 122 120 0 0 0
SMALL
GASTEIGER

@<TRIPOS>ATOM
      1  N        -25.1460  -55.9430   36.0590 N.3    11  VAL11      -0.1245
      2  CA       -26.3650  -56.7080   36.3630 C.3    11  VAL11       0.1561
      3  C        -26.3120  -58.1070   35.7130 C.2    11  VAL11       0.2260
      4  O        -26.6850  -59.0960   36.3490 O.2    11  VAL11      -0.2867
      5  CB       -27.6310  -55.8960   35.9670 C.3    11  VAL11       0.0252
      6  CG1      -28.8340  -56.7930   35.6780 C.3    11  VAL11       0.0019
      7  CG2      -27.9690  -54.8570   37.0300 C.3    11  VAL11       0.0019
      8  N        -23.7140  -60.3220   37.7090 N.3    14  ILE14      -0.1231
      9  CA       -24.2630  -60.6390   39.0380 C.3    14  ILE14       0.1692
     10  C        -25.3170  -61.7520   38.9380 C.2    14  ILE14       0.2591
     11  O        -25.3070  -62.6750   39.7540 O.2    14  ILE14      -0.2718
     12  CB       -24.7920  -59.3650   39.7620 C.3    14  ILE14       0.0266
     13  CG1      -23.6210  -58.4370   40.1430 C.3    14  ILE14       0.0019
     14  CG2      -25.6410  -59.7110   41.0060 C.3    14  ILE14       0.0020
     15  CD1      -24.0100  -56.9910   40.4360 C.3    14  ILE14       0.0001
     16  N        -26.2100  -61.6700   37.9400 N.am   15  ALA15      -0.1980
     17  CA       -27.2370  -62.6800   37.7230 C.3    15  ALA15       0.1597
     18  C        -26.6300  -63.9650   37.1550 C.2    15  ALA15       0.2287
     19  O        -27.1450  -65.0500   37.4260 O.2    15  ALA15      -0.2864
     20  CB       -28.3060  -62.1430   36.7950 C.3    15  ALA15       0.0319
     21  N        -25.1080  -65.6780   40.1850 N.3    18  MET18      -0.1245
     22  CA       -26.2400  -66.1770   40.9700 C.3    18  MET18       0.1570
     23  C        -26.8800  -67.4250   40.3690 C.2    18  MET18       0.2261
     24  O        -27.0730  -68.4030   41.0910 O.2    18  MET18      -0.2867
     25  CB       -27.3010  -65.0860   41.1620 C.3    18  MET18       0.0387
     26  CG       -26.9700  -64.0910   42.2480 C.3    18  MET18       0.0595
     27  SD       -28.3820  -62.9880   42.5610 S.3    18  MET18      -0.1393
     28  CE       -27.6040  -61.7490   43.6270 C.3    18  MET18       0.0692
     29  N        -27.2100  -71.2400   41.9340 N.3    22  LEU22      -0.1231
     30  CA       -28.5180  -71.8350   42.2320 C.3    22  LEU22       0.1693
     31  C        -28.8540  -73.0810   41.3890 C.2    22  LEU22       0.2592
     32  O        -29.1720  -74.1400   41.9580 O.2    22  LEU22      -0.2718
     33  CB       -29.6680  -70.7850   42.1350 C.3    22  LEU22       0.0284
     34  CG       -29.5480  -69.5160   42.9670 C.3    22  LEU22       0.0019
     35  CD1      -30.2720  -68.3820   42.3220 C.3    22  LEU22       0.0001
     36  CD2      -30.0660  -69.7270   44.3420 C.3    22  LEU22       0.0001
     37  N        -28.7720  -72.9490   40.0440 N.am   23  TYR23      -0.1976
     38  CA       -29.2010  -73.9620   39.0860 C.3    23  TYR23       0.1639
     39  C        -28.0970  -74.7150   38.3290 C.2    23  TYR23       0.2290
     40  O        -28.3880  -75.4660   37.3920 O.2    23  TYR23      -0.2864
     41  CB       -30.1730  -73.3010   38.1160 C.3    23  TYR23       0.0560
     42  CG       -31.0800  -72.2610   38.7480 C.ar   23  TYR23      -0.0198
     43  CD1      -32.0900  -72.6300   39.6370 C.ar   23  TYR23      -0.0009
     44  CD2      -30.9680  -70.9130   38.4120 C.ar   23  TYR23      -0.0009
     45  CE1      -32.9650  -71.6830   40.1750 C.ar   23  TYR23       0.0417
     46  CE2      -31.8250  -69.9540   38.9580 C.ar   23  TYR23       0.0417
     47  CZ       -32.8280  -70.3450   39.8330 C.ar   23  TYR23       0.1957
     48  OH       -33.6960  -69.4120   40.3610 O.3    23  TYR23      -0.2866
     49  N        -36.7690  -76.6040   41.0680 N.3    62  HIS62      -0.1227
     50  CA       -36.8040  -75.4000   41.9070 C.3    62  HIS62       0.1737
     51  C        -38.1620  -74.6770   41.6860 C.2    62  HIS62       0.2438
     52  O        -38.2420  -73.7710   40.8480 O.2    62  HIS62      -0.2733
     53  CB       -35.6160  -74.4780   41.5510 C.3    62  HIS62       0.0758
     54  CG       -34.3090  -75.2080   41.4140 C.ar   62  HIS62       0.0818
     55  ND1      -33.5120  -75.4930   42.5170 N.ar   62  HIS62      -0.2268
     56  CD2      -33.7150  -75.7170   40.3110 C.ar   62  HIS62       0.1154
     57  CE1      -32.4630  -76.1480   42.0430 C.ar   62  HIS62       0.1986
     58  NE2      -32.5410  -76.3080   40.7250 N.ar   62  HIS62      -0.2212
     59  N        -39.2470  -75.0620   42.4070 N.am   63  PRO63      -0.2718
     60  CA       -40.5740  -74.4440   42.1690 C.3    63  PRO63       0.1535
     61  C        -40.7220  -72.9180   42.2130 C.2    63  PRO63       0.2599
     62  O        -41.7450  -72.3880   41.7490 O.2    63  PRO63      -0.2715
     63  CB       -41.4750  -75.1330   43.1980 C.3    63  PRO63       0.0310
     64  CG       -40.5430  -75.7140   44.2040 C.3    63  PRO63       0.0237
     65  CD       -39.3450  -76.1290   43.4140 C.3    63  PRO63       0.0939
     66  N        -39.7170  -72.2140   42.7540 N.am   64  ASN64      -0.1959
     67  CA       -39.7470  -70.7590   42.8670 C.3    64  ASN64       0.1819
     68  C        -38.7700  -70.0720   41.9350 C.2    64  ASN64       0.2621
     69  O        -38.5560  -68.8720   42.0840 O.2    64  ASN64      -0.2715
     70  CB       -39.5160  -70.3240   44.3230 C.3    64  ASN64       0.1195
     71  CG       -40.6410  -70.6930   45.2660 C.2    64  ASN64       0.2630
     72  OD1      -41.8340  -70.5700   44.9490 O.2    64  ASN64      -0.2716
     73  ND2      -40.2820  -71.1350   46.4640 N.am   64  ASN64      -0.0877
     74  N        -38.2050  -70.8060   40.9450 N.am   65  ALA65      -0.1977
     75  CA       -37.2290  -70.2690   39.9830 C.3    65  ALA65       0.1597
     76  C        -37.7180  -68.9970   39.2820 C.2    65  ALA65       0.2287
     77  O        -36.8920  -68.1620   38.9090 O.2    65  ALA65      -0.2864
     78  CB       -36.8500  -71.3270   38.9640 C.3    65  ALA65       0.0319
     79  N        -39.1210  -66.3890   40.5790 N.3    67  VAL67      -0.1231
     80  CA       -38.7610  -65.2250   41.4110 C.3    67  VAL67       0.1692
     81  C        -37.4290  -64.6360   40.8970 C.2    67  VAL67       0.2592
     82  O        -37.1680  -63.4520   41.0990 O.2    67  VAL67      -0.2718
     83  CB       -38.6790  -65.5690   42.9310 C.3    67  VAL67       0.0266
     84  CG1      -38.3880  -64.3310   43.7790 C.3    67  VAL67       0.0020
     85  CG2      -39.9490  -66.2590   43.4240 C.3    67  VAL67       0.0020
     86  N        -36.5870  -65.4680   40.2510 N.am   68  PHE68      -0.1976
     87  CA       -35.3080  -65.0450   39.6810 C.3    68  PHE68       0.1639
     88  C        -35.4950  -64.5690   38.2140 C.2    68  PHE68       0.2290
     89  O        -35.1190  -63.4460   37.8690 O.2    68  PHE68      -0.2864
     90  CB       -34.2750  -66.1980   39.7570 C.3    68  PHE68       0.0560
     91  CG       -32.8890  -65.8630   39.2370 C.ar   68  PHE68      -0.0200
     92  CD1      -31.9310  -65.3060   40.0730 C.ar   68  PHE68      -0.0042
     93  CD2      -32.5400  -66.1110   37.9110 C.ar   68  PHE68      -0.0042
     94  CE1      -30.6530  -64.9840   39.5930 C.ar   68  PHE68      -0.0003
     95  CE2      -31.2660  -65.7810   37.4320 C.ar   68  PHE68      -0.0003
     96  CZ       -30.3250  -65.2320   38.2810 C.ar   68  PHE68      -0.0000
     97  N        -38.3030  -61.2910   37.2150 N.3    71  PRO71      -0.2102
     98  CA       -37.7230  -59.9550   37.4380 C.3    71  PRO71       0.1504
     99  C        -36.5490  -59.6410   36.5100 C.2    71  PRO71       0.2575
    100  O        -36.5000  -58.5220   35.9970 O.2    71  PRO71      -0.2718
    101  CB       -37.2890  -60.0000   38.9060 C.3    71  PRO71       0.0282
    102  CG       -38.1500  -61.0300   39.5070 C.3    71  PRO71       0.0208
    103  CD       -38.2220  -62.0860   38.4530 C.3    71  PRO71       0.0893
    104  N        -35.6420  -60.6320   36.2520 N.am   72  PHE72      -0.1977
    105  CA       -34.4910  -60.4950   35.3410 C.3    72  PHE72       0.1639
    106  C        -34.9720  -60.0540   33.9480 C.2    72  PHE72       0.2290
    107  O        -34.3600  -59.1720   33.3470 O.2    72  PHE72      -0.2864
    108  CB       -33.6720  -61.8120   35.2560 C.3    72  PHE72       0.0560
    109  CG       -32.6090  -61.8410   34.1690 C.ar   72  PHE72      -0.0200
    110  CD1      -31.3580  -61.2670   34.3760 C.ar   72  PHE72      -0.0042
    111  CD2      -32.8700  -62.4160   32.9310 C.ar   72  PHE72      -0.0042
    112  CE1      -30.3860  -61.2690   33.3600 C.ar   72  PHE72      -0.0003
    113  CE2      -31.9010  -62.4030   31.9120 C.ar   72  PHE72      -0.0003
    114  CZ       -30.6660  -61.8320   32.1340 C.ar   72  PHE72      -0.0000
    115  N        -36.5160  -56.4780   34.1600 N.3    75  LEU75      -0.1245
    116  CA       -35.4050  -55.5470   34.3520 C.3    75  LEU75       0.1561
    117  C        -34.6250  -55.3090   33.0580 C.2    75  LEU75       0.2260
    118  O        -34.5230  -54.1620   32.6210 O.2    75  LEU75      -0.2867
    119  CB       -34.4770  -56.0310   35.4830 C.3    75  LEU75       0.0270
    120  CG       -33.1980  -55.2340   35.7550 C.3    75  LEU75       0.0019
    121  CD1      -33.5050  -53.8600   36.3500 C.3    75  LEU75       0.0001
    122  CD2      -32.3010  -55.9940   36.7000 C.3    75  LEU75       0.0001
@<TRIPOS>BOND
     1   113   114   ar
     2   113   111   ar
     3   114   112   ar
     4   118   117    2
     5   111   109   ar
     6   117   116    1
     7   107   106    2
     8   112   110   ar
     9   106   105    1
    10   115   116    1
    11   109   110   ar
    12   109   108    1
    13   116   119    1
    14   108   105    1
    15   105   104    1
    16   119   120    1
    17     6     5    1
    18     3     4    2
    19     3     2    1
    20   120   121    1
    21   120   122    1
    22     5     2    1
    23     5     7    1
    24   100    99    2
    25     1     2    1
    26   104    99   am
    27    99    98    1
    28    20    17    1
    29    18    19    2
    30    18    17    1
    31    97    98    1
    32    97   103    1
    33    40    39    2
    34    95    93   ar
    35    95    96   ar
    36    98   101    1
    37     8     9    1
    38    17    16    1
    39    89    88    2
    40    93    91   ar
    41    16    10   am
    42    41    42    1
    43    41    38    1
    44    88    87    1
    45    96    94   ar
    46    39    38    1
    47    44    42   ar
    48    44    46   ar
    49   103   102    1
    50    42    43   ar
    51   101   102    1
    52    77    76    2
    53    10     9    1
    54    10    11    2
    55    46    47   ar
    56    78    75    1
    57     9    12    1
    58    38    37    1
    59    91    90    1
    60    91    92   ar
    61    76    75    1
    62    94    92   ar
    63    43    45   ar
    64    87    90    1
    65    87    86    1
    66    12    13    1
    67    12    14    1
    68    47    45   ar
    69    47    48    1
    70    75    74    1
    71    37    31   am
    72    13    15    1
    73    21    22    1
    74    86    81   am
    75    56    58   ar
    76    56    54   ar
    77    23    22    1
    78    23    24    2
    79    79    80    1
    80    58    57   ar
    81    52    51    2
    82    81    82    2
    83    81    80    1
    84    74    68   am
    85    22    25    1
    86    49    50    1
    87    25    26    1
    88    31    32    2
    89    31    30    1
    90    80    83    1
    91    54    53    1
    92    54    55   ar
    93    53    50    1
    94    51    50    1
    95    51    59   am
    96    62    61    2
    97    29    30    1
    98    68    69    2
    99    68    67    1
   100    57    55   ar
   101    33    30    1
   102    33    34    1
   103    60    61    1
   104    60    59    1
   105    60    63    1
   106    61    66   am
   107    26    27    1
   108    35    34    1
   109    59    65    1
   110    27    28    1
   111    66    67    1
   112    67    70    1
   113    83    85    1
   114    83    84    1
   115    34    36    1
   116    63    64    1
   117    65    64    1
   118    70    71    1
   119    72    71    2
   120    71    73   am
