@<TRIPOS>MOLECULE
tmp/4p30B01.pdb
 114 112 0 0 0
SMALL
GASTEIGER

@<TRIPOS>ATOM
      1  N        -25.0590  -56.2350   35.8700 N.3    11  VAL11      -0.1245
      2  CA       -26.2500  -57.0130   36.2280 C.3    11  VAL11       0.1561
      3  C        -26.1940  -58.4280   35.6240 C.2    11  VAL11       0.2260
      4  O        -26.3740  -59.4070   36.3520 O.2    11  VAL11      -0.2867
      5  CB       -27.5420  -56.2350   35.8420 C.3    11  VAL11       0.0252
      6  CG1      -28.7730  -57.1390   35.8000 C.3    11  VAL11       0.0019
      7  CG2      -27.7710  -55.0550   36.7780 C.3    11  VAL11       0.0019
      8  N        -26.0960  -61.9540   37.5980 N.3    15  ALA15      -0.1245
      9  CA       -27.1810  -62.8590   37.2420 C.3    15  ALA15       0.1562
     10  C        -26.6220  -64.2240   36.8300 C.2    15  ALA15       0.2260
     11  O        -27.0870  -65.2490   37.3300 O.2    15  ALA15      -0.2867
     12  CB       -27.9920  -62.2610   36.1170 C.3    15  ALA15       0.0290
     13  N        -24.9680  -66.0040   39.8290 N.3    18  MET18      -0.1245
     14  CA       -26.0910  -66.5250   40.6140 C.3    18  MET18       0.1570
     15  C        -26.7050  -67.7750   39.9950 C.2    18  MET18       0.2261
     16  O        -26.8220  -68.7910   40.6800 O.2    18  MET18      -0.2867
     17  CB       -27.1710  -65.4610   40.7180 C.3    18  MET18       0.0387
     18  CG       -27.4310  -65.0430   42.0990 C.3    18  MET18       0.0595
     19  SD       -28.5860  -63.6880   42.0410 S.3    18  MET18      -0.1393
     20  CE       -29.9650  -64.4790   42.8050 C.3    18  MET18       0.0692
     21  N        -27.1350  -71.4600   41.6180 N.3    22  LEU22      -0.1231
     22  CA       -28.4730  -72.0000   41.8610 C.3    22  LEU22       0.1693
     23  C        -28.8250  -73.2430   41.0270 C.2    22  LEU22       0.2592
     24  O        -29.2670  -74.2580   41.5890 O.2    22  LEU22      -0.2718
     25  CB       -29.5510  -70.9100   41.6580 C.3    22  LEU22       0.0284
     26  CG       -29.4870  -69.7340   42.5810 C.3    22  LEU22       0.0019
     27  CD1      -29.8330  -68.4900   41.8730 C.3    22  LEU22       0.0001
     28  CD2      -30.4030  -69.9180   43.7110 C.3    22  LEU22       0.0001
     29  N        -28.6400  -73.1630   39.7020 N.am   23  TYR23      -0.1976
     30  CA       -29.0920  -74.2280   38.8160 C.3    23  TYR23       0.1639
     31  C        -28.0020  -75.0690   38.1510 C.2    23  TYR23       0.2290
     32  O        -28.3180  -76.0300   37.4470 O.2    23  TYR23      -0.2864
     33  CB       -30.0940  -73.6350   37.7970 C.3    23  TYR23       0.0560
     34  CG       -31.0380  -72.6130   38.4080 C.ar   23  TYR23      -0.0198
     35  CD1      -31.9760  -72.9860   39.3690 C.ar   23  TYR23      -0.0009
     36  CD2      -30.9620  -71.2650   38.0590 C.ar   23  TYR23      -0.0009
     37  CE1      -32.8260  -72.0500   39.9540 C.ar   23  TYR23       0.0417
     38  CE2      -31.8100  -70.3170   38.6350 C.ar   23  TYR23       0.0417
     39  CZ       -32.7410  -70.7160   39.5820 C.ar   23  TYR23       0.1957
     40  OH       -33.5960  -69.8100   40.1640 O.3    23  TYR23      -0.2866
     41  N        -36.5530  -77.0980   40.7330 N.3    62  HIS62      -0.1227
     42  CA       -36.5630  -75.9020   41.5860 C.3    62  HIS62       0.1737
     43  C        -37.8810  -75.1670   41.3640 C.2    62  HIS62       0.2438
     44  O        -37.9440  -74.3100   40.4790 O.2    62  HIS62      -0.2733
     45  CB       -35.3680  -74.9800   41.2570 C.3    62  HIS62       0.0758
     46  CG       -34.0750  -75.7140   41.0850 C.ar   62  HIS62       0.0818
     47  ND1      -33.3920  -76.2210   42.1670 N.ar   62  HIS62      -0.2268
     48  CD2      -33.4060  -76.0390   39.9520 C.ar   62  HIS62       0.1154
     49  CE1      -32.3310  -76.8270   41.6630 C.ar   62  HIS62       0.1986
     50  NE2      -32.2980  -76.7390   40.3330 N.ar   62  HIS62      -0.2212
     51  N        -38.9500  -75.4890   42.1410 N.am   63  PRO63      -0.2718
     52  CA       -40.2740  -74.8770   41.8900 C.3    63  PRO63       0.1535
     53  C        -40.4350  -73.3670   42.0680 C.2    63  PRO63       0.2599
     54  O        -41.4860  -72.8180   41.7100 O.2    63  PRO63      -0.2715
     55  CB       -41.2180  -75.6810   42.7830 C.3    63  PRO63       0.0310
     56  CG       -40.3660  -76.2300   43.8260 C.3    63  PRO63       0.0237
     57  CD       -39.0450  -76.5190   43.1900 C.3    63  PRO63       0.0939
     58  N        -39.4070  -72.6990   42.5970 N.am   64  ASN64      -0.1959
     59  CA       -39.4350  -71.2590   42.8010 C.3    64  ASN64       0.1819
     60  C        -38.5150  -70.5390   41.8340 C.2    64  ASN64       0.2621
     61  O        -38.3640  -69.3230   41.9320 O.2    64  ASN64      -0.2715
     62  CB       -39.0930  -70.9190   44.2510 C.3    64  ASN64       0.1195
     63  CG       -40.1740  -71.3340   45.2200 C.2    64  ASN64       0.2630
     64  OD1      -41.3750  -71.1030   44.9940 O.2    64  ASN64      -0.2716
     65  ND2      -39.7680  -71.9650   46.3220 N.am   64  ASN64      -0.0877
     66  N        -37.9320  -71.2740   40.8650 N.am   65  ALA65      -0.1977
     67  CA       -37.0060  -70.7250   39.8750 C.3    65  ALA65       0.1597
     68  C        -37.5620  -69.5020   39.1420 C.2    65  ALA65       0.2287
     69  O        -36.7820  -68.6510   38.7140 O.2    65  ALA65      -0.2864
     70  CB       -36.5990  -71.7970   38.8910 C.3    65  ALA65       0.0319
     71  N        -38.9720  -66.9370   40.4230 N.3    67  VAL67      -0.1231
     72  CA       -38.6180  -65.7680   41.2420 C.3    67  VAL67       0.1692
     73  C        -37.3140  -65.1730   40.7220 C.2    67  VAL67       0.2592
     74  O        -37.0470  -63.9950   40.9380 O.2    67  VAL67      -0.2718
     75  CB       -38.5180  -66.0890   42.7580 C.3    67  VAL67       0.0266
     76  CG1      -38.3520  -64.8160   43.5840 C.3    67  VAL67       0.0020
     77  CG2      -39.7370  -66.8580   43.2390 C.3    67  VAL67       0.0020
     78  N        -36.4940  -65.9900   40.0590 N.am   68  PHE68      -0.1976
     79  CA       -35.2360  -65.5440   39.4750 C.3    68  PHE68       0.1639
     80  C        -35.4620  -65.0690   38.0320 C.2    68  PHE68       0.2290
     81  O        -35.0950  -63.9430   37.6970 O.2    68  PHE68      -0.2864
     82  CB       -34.1790  -66.6730   39.5090 C.3    68  PHE68       0.0560
     83  CG       -32.8210  -66.3040   38.9510 C.ar   68  PHE68      -0.0200
     84  CD1      -32.5560  -66.4030   37.5870 C.ar   68  PHE68      -0.0042
     85  CD2      -31.8160  -65.8530   39.7820 C.ar   68  PHE68      -0.0042
     86  CE1      -31.3040  -66.0400   37.0680 C.ar   68  PHE68      -0.0003
     87  CE2      -30.5710  -65.4920   39.2650 C.ar   68  PHE68      -0.0003
     88  CZ       -30.3210  -65.5900   37.9090 C.ar   68  PHE68      -0.0000
     89  N        -38.3130  -61.8610   37.0710 N.3    71  PRO71      -0.2102
     90  CA       -37.7310  -60.5330   37.3090 C.3    71  PRO71       0.1504
     91  C        -36.5900  -60.2110   36.3430 C.2    71  PRO71       0.2575
     92  O        -36.5970  -59.1170   35.7870 O.2    71  PRO71      -0.2718
     93  CB       -37.2420  -60.6130   38.7590 C.3    71  PRO71       0.0282
     94  CG       -38.0750  -61.6560   39.3580 C.3    71  PRO71       0.0208
     95  CD       -38.1780  -62.6850   38.2830 C.3    71  PRO71       0.0893
     96  N        -35.6670  -61.1710   36.0860 N.am   72  PHE72      -0.1977
     97  CA       -34.5510  -60.9830   35.1580 C.3    72  PHE72       0.1639
     98  C        -35.0710  -60.5700   33.7860 C.2    72  PHE72       0.2290
     99  O        -34.5090  -59.6610   33.1790 O.2    72  PHE72      -0.2864
    100  CB       -33.6820  -62.2510   35.0630 C.3    72  PHE72       0.0560
    101  CG       -32.5790  -62.1880   34.0270 C.ar   72  PHE72      -0.0200
    102  CD1      -31.3830  -61.5290   34.2970 C.ar   72  PHE72      -0.0042
    103  CD2      -32.7370  -62.7830   32.7820 C.ar   72  PHE72      -0.0042
    104  CE1      -30.3600  -61.4750   33.3380 C.ar   72  PHE72      -0.0003
    105  CE2      -31.7220  -62.7110   31.8200 C.ar   72  PHE72      -0.0003
    106  CZ       -30.5380  -62.0620   32.1050 C.ar   72  PHE72      -0.0000
    107  N        -36.4890  -56.9970   34.1580 N.3    75  LEU75      -0.1245
    108  CA       -35.3660  -56.0950   34.3750 C.3    75  LEU75       0.1561
    109  C        -34.6200  -55.8140   33.0820 C.2    75  LEU75       0.2260
    110  O        -34.4730  -54.6450   32.7310 O.2    75  LEU75      -0.2867
    111  CB       -34.4330  -56.6430   35.4710 C.3    75  LEU75       0.0270
    112  CG       -33.0740  -55.9740   35.6800 C.3    75  LEU75       0.0019
    113  CD1      -33.2090  -54.5130   36.1090 C.3    75  LEU75       0.0001
    114  CD2      -32.2850  -56.7200   36.7210 C.3    75  LEU75       0.0001
@<TRIPOS>BOND
     1   105   106   ar
     2   105   103   ar
     3   106   104   ar
     4   110   109    2
     5   103   101   ar
     6   109   108    1
     7    99    98    2
     8   104   102   ar
     9    98    97    1
    10   101   102   ar
    11   101   100    1
    12   107   108    1
    13   108   111    1
    14   100    97    1
    15    97    96    1
    16   111   112    1
    17     3     2    1
    18     3     4    2
    19   112   113    1
    20   112   114    1
    21    92    91    2
    22     6     5    1
    23     5     2    1
    24     5     7    1
    25     1     2    1
    26    96    91   am
    27    12     9    1
    28    91    90    1
    29    10     9    1
    30    10    11    2
    31    86    84   ar
    32    86    88   ar
    33    89    90    1
    34    89    95    1
    35     9     8    1
    36    90    93    1
    37    32    31    2
    38    84    83   ar
    39    81    80    2
    40    33    34    1
    41    33    30    1
    42    88    87   ar
    43    80    79    1
    44    36    34   ar
    45    36    38   ar
    46    31    30    1
    47    95    94    1
    48    34    35   ar
    49    38    39   ar
    50    69    68    2
    51    93    94    1
    52    30    29    1
    53    70    67    1
    54    83    82    1
    55    83    85   ar
    56    68    67    1
    57    87    85   ar
    58    35    37   ar
    59    79    82    1
    60    79    78    1
    61    39    37   ar
    62    39    40    1
    63    29    23   am
    64    13    14    1
    65    67    66    1
    66    48    50   ar
    67    48    46   ar
    68    15    14    1
    69    15    16    2
    70    78    73   am
    71    50    49   ar
    72    71    72    1
    73    44    43    2
    74    14    17    1
    75    17    18    1
    76    73    74    2
    77    73    72    1
    78    41    42    1
    79    66    60   am
    80    23    24    2
    81    23    22    1
    82    46    45    1
    83    46    47   ar
    84    72    75    1
    85    45    42    1
    86    43    42    1
    87    43    51   am
    88    21    22    1
    89    25    22    1
    90    25    26    1
    91    49    47   ar
    92    54    53    2
    93    60    61    2
    94    60    59    1
    95    27    26    1
    96    52    53    1
    97    52    51    1
    98    52    55    1
    99    19    18    1
   100    19    20    1
   101    53    58   am
   102    51    57    1
   103    26    28    1
   104    58    59    1
   105    75    77    1
   106    75    76    1
   107    55    56    1
   108    59    62    1
   109    57    56    1
   110    62    63    1
   111    64    63    2
   112    63    65   am
