@<TRIPOS>MOLECULE
tmp/4p30B00.pdb
 94 91 0 0 0
SMALL
GASTEIGER

@<TRIPOS>ATOM
      1  N        -26.0460  -52.8610   32.5970 N.3     8  LEU8       -0.1245
      2  CA       -26.5680  -54.1360   32.1030 C.3     8  LEU8        0.1561
      3  C        -25.5010  -55.2330   32.2090 C.2     8  LEU8        0.2260
      4  O        -25.7870  -56.2910   32.7640 O.2     8  LEU8       -0.2867
      5  CB       -27.0960  -54.0070   30.6600 C.3     8  LEU8        0.0270
      6  CG       -27.6240  -55.2950   30.0210 C.3     8  LEU8        0.0019
      7  CD1      -29.1300  -55.3000   29.9580 C.3     8  LEU8        0.0001
      8  CD2      -27.0190  -55.5080   28.6540 C.3     8  LEU8        0.0001
      9  N        -25.8980  -58.5210   34.3100 N.3    12  PHE12      -0.1227
     10  CA       -25.7690  -59.7650   33.5520 C.3    12  PHE12       0.1736
     11  C        -24.7330  -60.7070   34.1680 C.2    12  PHE12       0.2595
     12  O        -24.9520  -61.9130   34.1890 O.2    12  PHE12      -0.2718
     13  CB       -25.4030  -59.4650   32.0920 C.3    12  PHE12       0.0547
     14  CG       -26.0900  -60.3370   31.0770 C.ar   12  PHE12      -0.0202
     15  CD1      -27.3890  -60.0610   30.6660 C.ar   12  PHE12      -0.0042
     16  CD2      -25.4290  -61.4180   30.5060 C.ar   12  PHE12      -0.0042
     17  CE1      -28.0300  -60.8710   29.7320 C.ar   12  PHE12      -0.0003
     18  CE2      -26.0660  -62.2250   29.5660 C.ar   12  PHE12      -0.0003
     19  CZ       -27.3610  -61.9430   29.1870 C.ar   12  PHE12      -0.0000
     20  N        -23.6230  -60.1710   34.6810 N.am   13  TYR13      -0.1976
     21  CA       -22.6060  -61.0000   35.3090 C.3    13  TYR13       0.1639
     22  C        -23.0660  -61.5790   36.6310 C.2    13  TYR13       0.2290
     23  O        -23.0560  -62.8020   36.7720 O.2    13  TYR13      -0.2864
     24  CB       -21.2420  -60.2900   35.3510 C.3    13  TYR13       0.0560
     25  CG       -20.4420  -60.5950   34.1010 C.ar   13  TYR13      -0.0198
     26  CD1      -20.7700  -60.0080   32.8760 C.ar   13  TYR13      -0.0009
     27  CD2      -19.4320  -61.5590   34.1110 C.ar   13  TYR13      -0.0009
     28  CE1      -20.0990  -60.3520   31.6990 C.ar   13  TYR13       0.0417
     29  CE2      -18.7520  -61.9100   32.9390 C.ar   13  TYR13       0.0417
     30  CZ       -19.0830  -61.2950   31.7370 C.ar   13  TYR13       0.1957
     31  OH       -18.4040  -61.6130   30.5810 O.3    13  TYR13      -0.2866
     32  N        -26.0120  -78.4420   31.3760 N.3    29  GLU29      -0.1245
     33  CA       -25.9920  -78.0070   29.9820 C.3    29  GLU29       0.1567
     34  C        -26.2800  -76.5210   29.8180 C.2    29  GLU29       0.2260
     35  O        -25.6630  -75.8690   28.9810 O.2    29  GLU29      -0.2867
     36  CB       -26.9170  -78.8670   29.1050 C.3    29  GLU29       0.0388
     37  CG       -26.4610  -80.3150   28.9420 C.3    29  GLU29       0.1160
     38  CD       -25.1310  -80.5490   28.2420 C.2    29  GLU29       0.3649
     39  OE1      -25.0600  -80.3620   27.0060 O.co2  29  GLU29      -0.2457
     40  OE2      -24.1640  -80.9510   28.9300 O.co2  29  GLU29      -0.2457
     41  N        -21.3300  -73.8170   34.0450 N.3    33  ASP33      -0.1239
     42  CA       -20.1710  -72.9630   34.3080 C.3    33  ASP33       0.1674
     43  C        -20.6080  -71.5000   34.1430 C.2    33  ASP33       0.2266
     44  O        -21.8120  -71.2790   33.9580 O.2    33  ASP33      -0.2867
     45  CB       -18.9470  -73.3530   33.4550 C.3    33  ASP33       0.1410
     46  CG       -19.1950  -73.6160   31.9750 C.2    33  ASP33       0.3668
     47  OD1      -19.7150  -72.7040   31.2870 O.co2  33  ASP33      -0.2456
     48  OD2      -18.7650  -74.6940   31.4770 O.co2  33  ASP33      -0.2456
     49  N        -19.8600  -69.1950   31.7320 N.3    35  SER35      -0.1202
     50  CA       -20.1920  -68.9450   30.3330 C.3    35  SER35       0.2020
     51  C        -21.4950  -69.6340   29.9230 C.2    35  SER35       0.2618
     52  O        -22.4010  -68.9440   29.4330 O.2    35  SER35      -0.2717
     53  CB       -19.0290  -69.2690   29.3930 C.3    35  SER35       0.2103
     54  OG       -18.1190  -70.2480   29.8670 O.3    35  SER35      -0.2182
     55  N        -21.6390  -70.9590   30.2020 N.am   36  LYS36      -0.1979
     56  CA       -22.8710  -71.6840   29.8630 C.3    36  LYS36       0.1596
     57  C        -24.0820  -70.8830   30.2810 C.2    36  LYS36       0.2287
     58  O        -24.9770  -70.6880   29.4600 O.2    36  LYS36      -0.2864
     59  CB       -22.9000  -73.0870   30.4580 C.3    36  LYS36       0.0298
     60  CG       -22.1530  -74.1030   29.6200 C.3    36  LYS36       0.0038
     61  CD       -22.3410  -75.4360   30.2480 C.3    36  LYS36       0.0206
     62  CE       -21.3750  -76.4930   29.8160 C.3    36  LYS36       0.1093
     63  NZ       -21.5900  -77.7300   30.6240 N.3    36  LYS36      -0.1314
     64  N        -24.1010  -67.4050   31.0450 N.3    38  LEU38      -0.1231
     65  CA       -24.0830  -66.1310   30.2990 C.3    38  LEU38       0.1693
     66  C        -24.8330  -66.2620   28.9690 C.2    38  LEU38       0.2592
     67  O        -25.6040  -65.3710   28.5820 O.2    38  LEU38      -0.2718
     68  CB       -22.6420  -65.6570   30.0460 C.3    38  LEU38       0.0284
     69  CG       -21.9540  -64.9020   31.1790 C.3    38  LEU38       0.0019
     70  CD1      -20.4500  -64.9990   31.0640 C.3    38  LEU38       0.0001
     71  CD2      -22.4030  -63.4420   31.2320 C.3    38  LEU38       0.0001
     72  N        -24.6200  -67.4040   28.2910 N.am   39  TYR39      -0.1976
     73  CA       -25.2790  -67.7590   27.0420 C.3    39  TYR39       0.1639
     74  C        -26.7870  -68.0170   27.2870 C.2    39  TYR39       0.2290
     75  O        -27.6130  -67.4890   26.5370 O.2    39  TYR39      -0.2864
     76  CB       -24.6090  -68.9930   26.4120 C.3    39  TYR39       0.0560
     77  CG       -25.2890  -69.4490   25.1420 C.ar   39  TYR39      -0.0198
     78  CD1      -24.9140  -68.9350   23.9050 C.ar   39  TYR39      -0.0009
     79  CD2      -26.3220  -70.3830   25.1770 C.ar   39  TYR39      -0.0009
     80  CE1      -25.5620  -69.3230   22.7350 C.ar   39  TYR39       0.0417
     81  CE2      -26.9750  -70.7790   24.0120 C.ar   39  TYR39       0.0417
     82  CZ       -26.5860  -70.2510   22.7930 C.ar   39  TYR39       0.1957
     83  OH       -27.2310  -70.6540   21.6540 O.3    39  TYR39      -0.2866
     84  N        -28.5820  -64.8720   28.1020 N.3    42  PHE42      -0.1241
     85  CA       -28.7490  -64.0640   26.9030 C.3    42  PHE42       0.1605
     86  C        -29.9540  -64.6130   26.1060 C.2    42  PHE42       0.2264
     87  O        -30.8070  -63.8200   25.6920 O.2    42  PHE42      -0.2867
     88  CB       -27.4520  -64.0210   26.0700 C.3    42  PHE42       0.0534
     89  CG       -27.5960  -63.2300   24.7920 C.ar   42  PHE42      -0.0203
     90  CD1      -27.4830  -61.8460   24.7960 C.ar   42  PHE42      -0.0042
     91  CD2      -27.8760  -63.8700   23.5860 C.ar   42  PHE42      -0.0042
     92  CE1      -27.6360  -61.1140   23.6160 C.ar   42  PHE42      -0.0003
     93  CE2      -28.0370  -63.1370   22.4090 C.ar   42  PHE42      -0.0003
     94  CZ       -27.9120  -61.7640   22.4310 C.ar   42  PHE42      -0.0000
@<TRIPOS>BOND
     1    83    82    1
     2    93    94   ar
     3    93    91   ar
     4    94    92   ar
     5    80    82   ar
     6    80    78   ar
     7    82    81   ar
     8    91    89   ar
     9    92    90   ar
    10    78    77   ar
    11    81    79   ar
    12    89    90   ar
    13    89    88    1
    14    77    79   ar
    15    77    76    1
    16    87    86    2
    17    88    85    1
    18    86    85    1
    19    76    73    1
    20    75    74    2
    21    85    84    1
    22    39    38   ar
    23    73    74    1
    24    73    72    1
    25    38    40   ar
    26    38    37    1
    27    72    66   am
    28    67    66    2
    29     8     6    1
    30    37    36    1
    31    66    65    1
    32    35    34    2
    33    36    33    1
    34    19    18   ar
    35    19    17   ar
    36    53    54    1
    37    53    50    1
    38    52    51    2
    39    58    57    2
    40    18    16   ar
    41    60    61    1
    42    60    59    1
    43    17    15   ar
    44    62    61    1
    45    62    63    1
    46    34    33    1
    47    56    55    1
    48    56    57    1
    49    56    59    1
    50    51    55   am
    51    51    50    1
    52     7     6    1
    53    33    32    1
    54     6     5    1
    55    68    65    1
    56    68    69    1
    57    65    64    1
    58    50    49    1
    59    16    14   ar
    60    31    30    1
    61     5     2    1
    62    15    14   ar
    63    70    69    1
    64    14    13    1
    65    69    71    1
    66    47    46   ar
    67    48    46   ar
    68    28    30   ar
    69    28    26   ar
    70    30    29   ar
    71    46    45    1
    72    13    10    1
    73     2     3    1
    74     2     1    1
    75     3     4    2
    76    26    25   ar
    77    29    27   ar
    78    45    42    1
    79    10    11    1
    80    10     9    1
    81    44    43    2
    82    41    42    1
    83    25    27   ar
    84    25    24    1
    85    43    42    1
    86    11    12    2
    87    11    20   am
    88    20    21    1
    89    21    24    1
    90    21    22    1
    91    22    23    2
