@<TRIPOS>MOLECULE
tmp/4p37A05.pdb
 118 114 0 0 0
SMALL
GASTEIGER

@<TRIPOS>ATOM
      1  N         -7.2220   35.3880   52.8820 N.3   171  ARG171     -0.1245
      2  CA        -6.2580   36.3920   52.3820 C.3   171  ARG171      0.1563
      3  C         -5.0480   36.4960   53.3150 C.2   171  ARG171      0.2260
      4  O         -3.9270   36.5600   52.8400 O.2   171  ARG171     -0.2867
      5  CB        -6.8900   37.7740   52.1900 C.3   171  ARG171      0.0307
      6  CG        -7.7480   37.8990   50.9460 C.3   171  ARG171      0.0489
      7  CD        -7.9250   39.2920   50.3850 C.3   171  ARG171      0.2205
      8  NE        -8.1820   40.3070   51.3940 N.pl3 171  ARG171     -0.0865
      9  CZ        -7.5500   41.4720   51.4330 C.cat 171  ARG171      0.5346
     10  NH1       -6.6040   41.7520   50.5430 N.pl3 171  ARG171      0.1354
     11  NH2       -7.8440   42.3620   52.3710 N.pl3 171  ARG171      0.1354
     12  N         -2.9870   33.3000   53.1120 N.3   173  ASN173     -0.1225
     13  CA        -2.3080   33.2870   51.8200 C.3   173  ASN173      0.1785
     14  C         -1.2280   34.3710   51.6440 C.2   173  ASN173      0.2597
     15  O         -0.7080   34.5060   50.5470 O.2   173  ASN173     -0.2718
     16  CB        -3.3210   33.3040   50.6770 C.3   173  ASN173      0.1169
     17  CG        -4.1490   32.0270   50.6410 C.2   173  ASN173      0.2627
     18  OD1       -3.6700   30.9430   50.9980 O.2   173  ASN173     -0.2716
     19  ND2       -5.4230   32.1280   50.2880 N.am  173  ASN173     -0.0877
     20  N         -0.8260   35.0670   52.7290 N.am  174  GLN174     -0.1979
     21  CA         0.2570   36.0580   52.7070 C.3   174  GLN174      0.1601
     22  C          1.2330   35.6620   53.8120 C.2   174  GLN174      0.2287
     23  O          1.2680   36.3180   54.8510 O.2   174  GLN174     -0.2864
     24  CB        -0.2920   37.4830   52.9170 C.3   174  GLN174      0.0394
     25  CG        -1.0730   38.0130   51.7320 C.3   174  GLN174      0.0908
     26  CD        -1.7870   39.2850   52.0860 C.2   174  GLN174      0.2608
     27  OE1       -1.2260   40.3680   52.0220 O.2   174  GLN174     -0.2717
     28  NE2       -3.0370   39.1830   52.4730 N.am  174  GLN174     -0.0878
     29  N         -1.5090   33.5010   37.5750 N.3   263  ILE263     -0.1245
     30  CA        -1.2300   34.5800   38.5060 C.3   263  ILE263      0.1561
     31  C          0.2570   34.9100   38.3370 C.2   263  ILE263      0.2260
     32  O          1.0920   34.0300   38.4810 O.2   263  ILE263     -0.2867
     33  CB        -1.6440   34.2280   39.9610 C.3   263  ILE263      0.0252
     34  CG1       -3.1970   34.1250   40.0550 C.3   263  ILE263      0.0019
     35  CG2       -1.0960   35.2780   40.9410 C.3   263  ILE263      0.0019
     36  CD1       -3.6900   33.4250   41.2530 C.3   263  ILE263      0.0001
     37  N        -10.7730   44.2260   47.1340 N.3   298  GLN298     -0.1231
     38  CA        -9.4910   43.9850   47.7840 C.3   298  GLN298      0.1698
     39  C         -9.0490   42.5740   47.4150 C.2   298  GLN298      0.2592
     40  O         -8.1240   42.0350   48.0400 O.2   298  GLN298     -0.2718
     41  CB        -9.7060   44.0020   49.3140 C.3   298  GLN298      0.0381
     42  CG       -10.4790   45.1940   49.8690 C.3   298  GLN298      0.0905
     43  CD       -10.8150   45.0780   51.3390 C.2   298  GLN298      0.2608
     44  OE1      -10.9420   43.9910   51.9120 O.2   298  GLN298     -0.2717
     45  NE2      -11.0730   46.2050   51.9580 N.am  298  GLN298     -0.0878
     46  N         -9.7530   41.9440   46.4530 N.am  299  PHE299     -0.1962
     47  CA        -9.5540   40.5250   46.1300 C.3   299  PHE299      0.1771
     48  C         -8.5560   40.2290   45.0120 C.2   299  PHE299      0.2620
     49  O         -7.8390   39.2320   45.0970 O.2   299  PHE299     -0.2715
     50  CB       -10.9160   39.8700   45.8160 C.3   299  PHE299      0.0574
     51  CG       -11.9100   39.8250   46.9580 C.ar  299  PHE299     -0.0200
     52  CD1      -11.4890   39.9600   48.2780 C.ar  299  PHE299     -0.0042
     53  CD2      -13.2670   39.6030   46.7160 C.ar  299  PHE299     -0.0042
     54  CE1      -12.4110   39.9290   49.3320 C.ar  299  PHE299     -0.0003
     55  CE2      -14.1890   39.5450   47.7740 C.ar  299  PHE299     -0.0003
     56  CZ       -13.7520   39.6970   49.0730 C.ar  299  PHE299     -0.0000
     57  N         -8.5730   41.0300   43.9290 N.am  300  THR300     -0.1937
     58  CA        -7.7050   40.7900   42.7720 C.3   300  THR300      0.2028
     59  C         -7.0500   42.0700   42.3360 C.2   300  THR300      0.2642
     60  O         -7.5580   43.1530   42.6240 O.2   300  THR300     -0.2714
     61  CB        -8.5220   40.2550   41.5510 C.3   300  THR300      0.1808
     62  OG1       -9.2920   41.3160   40.9880 O.3   300  THR300     -0.2208
     63  CG2       -9.4240   39.0970   41.8750 C.3   300  THR300      0.0379
     64  N         -5.9650   41.9320   41.5800 N.am  301  GLY301     -0.1954
     65  CA        -5.2950   43.0440   40.9380 C.3   301  GLY301      0.1869
     66  C         -5.8470   43.2070   39.5330 C.2   301  GLY301      0.2309
     67  O         -6.9030   42.6560   39.2080 O.2   301  GLY301     -0.2863
     68  N         -2.6560   40.0980   37.9820 N.3   318  GLU318     -0.1231
     69  CA        -1.5330   40.8290   38.5740 C.3   318  GLU318      0.1699
     70  C         -1.3610   40.5170   40.0690 C.2   318  GLU318      0.2592
     71  O         -2.3150   40.6490   40.8430 O.2   318  GLU318     -0.2718
     72  CB        -1.7550   42.3200   38.3660 C.3   318  GLU318      0.0402
     73  CG        -0.6750   43.2140   38.9480 C.3   318  GLU318      0.1161
     74  CD        -1.1320   44.6570   39.0530 C.2   318  GLU318      0.3649
     75  OE1       -2.2380   44.9030   39.5910 O.co2 318  GLU318     -0.2457
     76  OE2       -0.4050   45.5380   38.5410 O.co2 318  GLU318     -0.2457
     77  N         -0.1350   40.1430   40.4720 N.am  319  ALA319     -0.1980
     78  CA         0.1810   39.8650   41.8780 C.3   319  ALA319      0.1597
     79  C          1.5310   40.4770   42.2960 C.2   319  ALA319      0.2287
     80  O          2.0760   40.0910   43.3320 O.2   319  ALA319     -0.2864
     81  CB         0.1660   38.3560   42.1470 C.3   319  ALA319      0.0319
     82  N          3.3860   40.8260   45.9280 N.3   322  TYR322     -0.1227
     83  CA         3.0080   39.7270   46.8150 C.3   322  TYR322      0.1736
     84  C          3.9050   38.5490   46.6130 C.2   322  TYR322      0.2596
     85  O          4.3490   38.3190   45.4860 O.2   322  TYR322     -0.2718
     86  CB         1.5530   39.2890   46.5680 C.3   322  TYR322      0.0548
     87  CG         0.5320   40.3470   46.9000 C.ar  322  TYR322     -0.0200
     88  CD1        0.2070   41.3450   45.9800 C.ar  322  TYR322     -0.0009
     89  CD2       -0.1420   40.3350   48.1180 C.ar  322  TYR322     -0.0009
     90  CE1       -0.7380   42.3250   46.2780 C.ar  322  TYR322      0.0417
     91  CE2       -1.0910   41.3130   48.4280 C.ar  322  TYR322      0.0417
     92  CZ        -1.3840   42.3070   47.5020 C.ar  322  TYR322      0.1957
     93  OH        -2.3110   43.2820   47.7720 O.3   322  TYR322     -0.2866
     94  N          4.1640   37.7940   47.6910 N.am  323  CYS323     -0.1956
     95  CA         4.8880   36.5270   47.6230 C.3   323  CYS323      0.1843
     96  C          3.7550   35.4900   47.6730 C.2   323  CYS323      0.2625
     97  O          3.1200   35.3200   48.7170 O.2   323  CYS323     -0.2714
     98  CB         5.8760   36.3600   48.7750 C.3   323  CYS323      0.0997
     99  SG         6.9950   34.9400   48.5940 S.3   323  CYS323     -0.0797
    100  N          3.4300   34.8870   46.5020 N.am  324  VAL324     -0.1977
    101  CA         2.3020   33.9730   46.3250 C.3   324  VAL324      0.1596
    102  C          2.6170   32.4950   46.6830 C.2   324  VAL324      0.2287
    103  O          3.5450   31.9190   46.1060 O.2   324  VAL324     -0.2864
    104  CB         1.6950   34.1140   44.9040 C.3   324  VAL324      0.0276
    105  CG1        0.4910   33.1760   44.7200 C.3   324  VAL324      0.0022
    106  CG2        1.2860   35.5640   44.6360 C.3   324  VAL324      0.0022
    107  N         -4.8210   28.6520   48.6980 N.3   340  TYR340     -0.1241
    108  CA        -4.8420   29.7090   47.6860 C.3   340  TYR340      0.1605
    109  C         -5.9370   29.4480   46.6660 C.2   340  TYR340      0.2264
    110  O         -6.7480   30.3410   46.4320 O.2   340  TYR340     -0.2867
    111  CB        -3.4710   29.9150   47.0220 C.3   340  TYR340      0.0534
    112  CG        -3.2950   31.3220   46.4940 C.ar  340  TYR340     -0.0201
    113  CD1       -3.7840   31.6850   45.2480 C.ar  340  TYR340     -0.0009
    114  CD2       -2.6890   32.3050   47.2670 C.ar  340  TYR340     -0.0009
    115  CE1       -3.6700   32.9890   44.7760 C.ar  340  TYR340      0.0417
    116  CE2       -2.5640   33.6140   46.8040 C.ar  340  TYR340      0.0417
    117  CZ        -3.0540   33.9490   45.5530 C.ar  340  TYR340      0.1957
    118  OH        -2.9160   35.2170   45.0600 O.3   340  TYR340     -0.2866
@<TRIPOS>BOND
     1    29    30    1
     2    68    69    1
     3    31    32    2
     4    31    30    1
     5    72    69    1
     6    72    73    1
     7    30    33    1
     8    76    74   ar
     9    69    70    1
    10    73    74    1
    11    74    75   ar
    12    67    66    2
    13    66    65    1
    14    33    34    1
    15    33    35    1
    16    34    36    1
    17    70    77   am
    18    70    71    2
    19    77    78    1
    20    65    64    1
    21    62    61    1
    22    61    63    1
    23    61    58    1
    24    64    59   am
    25    78    81    1
    26    78    79    1
    27    79    80    2
    28    59    60    2
    29    59    58    1
    30    58    57    1
    31    57    48   am
    32   106   104    1
    33   105   104    1
    34   115   113   ar
    35   115   117   ar
    36   104   101    1
    37    48    49    2
    38    48    47    1
    39   118   117    1
    40   113   112   ar
    41    85    84    2
    42   117   116   ar
    43    50    47    1
    44    50    51    1
    45    82    83    1
    46    88    90   ar
    47    88    87   ar
    48   103   102    2
    49    47    46    1
    50    90    92   ar
    51   101   100    1
    52   101   102    1
    53   110   109    2
    54    46    39   am
    55   112   111    1
    56   112   114   ar
    57   100    96   am
    58    86    83    1
    59    86    87    1
    60    84    83    1
    61    84    94   am
    62   109   108    1
    63    53    51   ar
    64    53    55   ar
    65   116   114   ar
    66    87    89   ar
    67    51    52   ar
    68   111   108    1
    69    37    38    1
    70    39    38    1
    71    39    40    2
    72    92    93    1
    73    92    91   ar
    74    95    96    1
    75    95    94    1
    76    95    98    1
    77    96    97    2
    78   108   107    1
    79    55    56   ar
    80    38    41    1
    81    89    91   ar
    82    52    54   ar
    83    99    98    1
    84    56    54   ar
    85    41    42    1
    86    42    43    1
    87    19    17   am
    88     7     6    1
    89     7     8    1
    90    10     9    1
    91    15    14    2
    92    17    16    1
    93    17    18    2
    94    16    13    1
    95     6     5    1
    96    43    44    2
    97    43    45   am
    98     8     9    2
    99     9    11    1
   100    14    13    1
   101    14    20   am
   102    25    26    1
   103    25    24    1
   104    13    12    1
   105    27    26    2
   106    26    28   am
   107     5     2    1
   108     2     1    1
   109     2     3    1
   110    21    20    1
   111    21    24    1
   112    21    22    1
   113     4     3    2
   114    22    23    2
