@<TRIPOS>MOLECULE
tmp/4p37A00.pdb
 105 95 0 0 0
SMALL
GASTEIGER

@<TRIPOS>ATOM
      1  N        -25.0010   53.3850   70.1890 N.3    49  GLU49      -0.1245
      2  CA       -26.3940   53.2460   69.7610 C.3    49  GLU49       0.1567
      3  C        -26.7510   54.2230   68.6560 C.2    49  GLU49       0.2260
      4  O        -27.4940   53.8570   67.7540 O.2    49  GLU49      -0.2867
      5  CB       -27.3670   53.3190   70.9520 C.3    49  GLU49       0.0388
      6  CG       -27.3300   52.0620   71.8190 C.3    49  GLU49       0.1160
      7  CD       -27.4860   50.7300   71.1040 C.2    49  GLU49       0.3649
      8  OE1      -28.4200   50.5960   70.2810 O.co2  49  GLU49      -0.2457
      9  OE2      -26.6960   49.8030   71.3960 O.co2  49  GLU49      -0.2457
     10  N        -25.1750   52.7550   65.4730 N.3    52  LYS52      -0.1245
     11  CA       -26.0270   51.6320   65.1070 C.3    52  LYS52       0.1561
     12  C        -27.3400   52.0680   64.4570 C.2    52  LYS52       0.2260
     13  O        -27.8090   51.3930   63.5380 O.2    52  LYS52      -0.2867
     14  CB       -26.2770   50.7350   66.3140 C.3    52  LYS52       0.0271
     15  CG       -25.0530   49.9000   66.6890 C.3    52  LYS52       0.0035
     16  CD       -25.4490   48.6170   67.3620 C.3    52  LYS52       0.0206
     17  CE       -25.4050   48.7190   68.8550 C.3    52  LYS52       0.1093
     18  NZ       -26.2080   47.6360   69.4890 N.3    52  LYS52      -0.1314
     19  N        -28.3890   51.0480   60.7110 N.3    56  ARG56      -0.1245
     20  CA       -29.7220   50.4700   60.5040 C.3    56  ARG56       0.1563
     21  C        -30.5510   51.2770   59.4820 C.2    56  ARG56       0.2260
     22  O        -31.1340   50.6680   58.5920 O.2    56  ARG56      -0.2867
     23  CB       -30.4470   50.3590   61.8500 C.3    56  ARG56       0.0307
     24  CG       -31.4790   49.2580   61.9380 C.3    56  ARG56       0.0489
     25  CD       -32.1560   49.3190   63.2860 C.3    56  ARG56       0.2205
     26  NE       -31.5030   48.4720   64.2850 N.pl3  56  ARG56      -0.0865
     27  CZ       -30.7690   48.9190   65.2910 C.cat  56  ARG56       0.5346
     28  NH1      -30.5640   50.2180   65.4450 N.pl3  56  ARG56       0.1354
     29  NH2      -30.2460   48.0700   66.1650 N.pl3  56  ARG56       0.1354
     30  N        -17.3790   42.2970   64.8680 N.3    66  THR66      -0.1218
     31  CA       -18.7730   42.4950   65.2440 C.3    66  THR66       0.1862
     32  C        -19.6830   41.6010   64.4230 C.2    66  THR66       0.2287
     33  O        -20.5430   40.9450   65.0070 O.2    66  THR66      -0.2866
     34  CB       -19.1820   43.9700   65.1670 C.3    66  THR66       0.1770
     35  OG1      -18.1530   44.7960   65.7340 O.3    66  THR66      -0.2211
     36  CG2      -20.5270   44.2360   65.8500 C.3    66  THR66       0.0375
     37  N        -21.8130   38.4370   65.9070 N.3    70  GLU70      -0.1245
     38  CA       -23.2790   38.4210   65.7830 C.3    70  GLU70       0.1567
     39  C        -23.8410   37.2600   64.9730 C.2    70  GLU70       0.2260
     40  O        -24.8770   36.7090   65.3630 O.2    70  GLU70      -0.2867
     41  CB       -23.8180   39.7500   65.2280 C.3    70  GLU70       0.0388
     42  CG       -23.6630   40.9190   66.1850 C.3    70  GLU70       0.1160
     43  CD       -24.2990   40.7700   67.5520 C.2    70  GLU70       0.3649
     44  OE1      -25.5120   40.4700   67.6270 O.co2  70  GLU70      -0.2457
     45  OE2      -23.5790   40.9740   68.5520 O.co2  70  GLU70      -0.2457
     46  N        -16.1910   37.1670   71.7540 N.3    82  TYR82      -0.1241
     47  CA       -16.0280   38.1220   72.8510 C.3    82  TYR82       0.1605
     48  C        -17.3830   38.4360   73.5020 C.2    82  TYR82       0.2264
     49  O        -18.4160   38.3770   72.8190 O.2    82  TYR82      -0.2867
     50  CB       -15.2680   39.4090   72.4270 C.3    82  TYR82       0.0534
     51  CG       -15.9570   40.2420   71.3640 C.ar   82  TYR82      -0.0201
     52  CD1      -16.9690   41.1380   71.6990 C.ar   82  TYR82      -0.0009
     53  CD2      -15.5650   40.1680   70.0290 C.ar   82  TYR82      -0.0009
     54  CE1      -17.6060   41.9030   70.7280 C.ar   82  TYR82       0.0417
     55  CE2      -16.2010   40.9240   69.0490 C.ar   82  TYR82       0.0417
     56  CZ       -17.2170   41.7960   69.4040 C.ar   82  TYR82       0.1957
     57  OH       -17.8460   42.5600   68.4550 O.3    82  TYR82      -0.2866
     58  N        -20.3550   40.7050   74.8370 N.3    84  SER84      -0.1217
     59  CA       -20.9200   41.9750   74.4060 C.3    84  SER84       0.1889
     60  C        -21.0830   43.0040   75.5400 C.2    84  SER84       0.2288
     61  O        -21.4770   44.1380   75.2520 O.2    84  SER84      -0.2866
     62  CB       -22.2210   41.7560   73.6390 C.3    84  SER84       0.2089
     63  OG       -21.9510   41.1190   72.3990 O.3    84  SER84      -0.2183
     64  N        -16.3460   47.0970   71.9810 N.3    88  SER88      -0.1217
     65  CA       -15.7060   46.7170   70.7230 C.3    88  SER88       0.1889
     66  C        -16.1650   47.7090   69.6290 C.2    88  SER88       0.2288
     67  O        -17.3550   48.0140   69.5470 O.2    88  SER88      -0.2866
     68  CB       -16.0570   45.2830   70.3350 C.3    88  SER88       0.2089
     69  OG       -15.4870   44.9510   69.0800 O.3    88  SER88      -0.2183
     70  N        -17.0760   49.0960   65.8010 N.3    90  ILE90      -0.1245
     71  CA       -17.8370   48.5290   64.6920 C.3    90  ILE90       0.1561
     72  C        -17.2510   48.9640   63.3440 C.2    90  ILE90       0.2260
     73  O        -16.7830   50.0930   63.1850 O.2    90  ILE90      -0.2867
     74  CB       -19.3450   48.8510   64.8660 C.3    90  ILE90       0.0252
     75  CG1      -20.2270   47.9700   63.9730 C.3    90  ILE90       0.0019
     76  CG2      -19.6460   50.3450   64.6860 C.3    90  ILE90       0.0019
     77  CD1      -21.5920   47.7930   64.4670 C.3    90  ILE90       0.0001
     78  N        -31.5350   41.9740   64.1170 N.3   156  ASP156     -0.1239
     79  CA       -32.0430   43.1580   64.8300 C.3   156  ASP156      0.1674
     80  C        -32.0150   44.4390   63.9550 C.2   156  ASP156      0.2266
     81  O        -31.6860   45.5270   64.4300 O.2   156  ASP156     -0.2867
     82  CB       -31.3110   43.3330   66.1820 C.3   156  ASP156      0.1410
     83  CG       -31.8510   44.4100   67.1200 C.2   156  ASP156      0.3668
     84  OD1      -33.0660   44.7390   67.0260 O.co2 156  ASP156     -0.2456
     85  OD2      -31.0560   44.9410   67.9340 O.co2 156  ASP156     -0.2456
     86  N        -29.9640   45.1020   61.4860 N.3   158  ILE158     -0.1245
     87  CA       -28.6360   45.3880   60.9330 C.3   158  ILE158      0.1561
     88  C        -28.1790   44.2740   59.9820 C.2   158  ILE158      0.2260
     89  O        -28.3180   43.0960   60.3000 O.2   158  ILE158     -0.2867
     90  CB       -27.5990   45.7110   62.0470 C.3   158  ILE158      0.0252
     91  CG1      -27.9820   47.0270   62.7690 C.3   158  ILE158      0.0019
     92  CG2      -26.1640   45.8180   61.4710 C.3   158  ILE158      0.0019
     93  CD1      -27.4870   47.1450   64.1830 C.3   158  ILE158      0.0001
     94  N        -25.4310   42.1470   58.4550 N.3   160  TYR160     -0.1241
     95  CA       -24.1020   41.6570   58.7760 C.3   160  TYR160      0.1605
     96  C        -23.5590   40.8540   57.6170 C.2   160  TYR160      0.2264
     97  O        -24.2240   39.9300   57.1470 O.2   160  TYR160     -0.2867
     98  CB       -24.1200   40.8160   60.0690 C.3   160  TYR160      0.0534
     99  CG       -24.4560   41.6210   61.3080 C.ar  160  TYR160     -0.0201
    100  CD1      -23.4960   42.4290   61.9230 C.ar  160  TYR160     -0.0009
    101  CD2      -25.7400   41.6000   61.8530 C.ar  160  TYR160     -0.0009
    102  CE1      -23.8090   43.2040   63.0400 C.ar  160  TYR160      0.0417
    103  CE2      -26.0550   42.3480   62.9930 C.ar  160  TYR160      0.0417
    104  CZ       -25.0800   43.1370   63.5890 C.ar  160  TYR160      0.1957
    105  OH       -25.3730   43.8830   64.6950 O.3   160  TYR160     -0.2866
@<TRIPOS>BOND
     1    97    96    2
     2    96    95    1
     3    94    95    1
     4    22    21    2
     5    95    98    1
     6    21    20    1
     7    88    89    2
     8    88    87    1
     9    98    99    1
    10    20    19    1
    11    20    23    1
    12    87    86    1
    13    87    90    1
    14    99   101   ar
    15    99   100   ar
    16    92    90    1
    17    23    24    1
    18   101   103   ar
    19   100   102   ar
    20    24    25    1
    21    90    91    1
    22    91    93    1
    23   103   104   ar
    24   102   104   ar
    25    73    72    2
    26    25    26    1
    27    72    71    1
    28    13    12    2
    29   104   105    1
    30    80    81    2
    31    80    79    1
    32    75    77    1
    33    75    74    1
    34    78    79    1
    35    26    27    2
    36    32    33    2
    37    32    31    1
    38    12    11    1
    39    76    74    1
    40    71    74    1
    41    71    70    1
    42    79    82    1
    43    30    31    1
    44    39    40    2
    45    39    38    1
    46    11    10    1
    47    11    14    1
    48    34    31    1
    49    34    35    1
    50    34    36    1
    51    41    38    1
    52    41    42    1
    53    27    28    1
    54    27    29    1
    55    38    37    1
    56    82    83    1
    57    42    43    1
    58    14    15    1
    59    15    16    1
    60    84    83   ar
    61    83    85   ar
    62    16    17    1
    63    43    44   ar
    64    43    45   ar
    65     4     3    2
    66    57    56    1
    67     3     2    1
    68    17    18    1
    69    55    56   ar
    70    55    53   ar
    71    69    68    1
    72    56    54   ar
    73    67    66    2
    74    66    65    1
    75     2     1    1
    76     2     5    1
    77    53    51   ar
    78     8     7   ar
    79    68    65    1
    80    65    64    1
    81    54    52   ar
    82     5     6    1
    83     7     9   ar
    84     7     6    1
    85    51    52   ar
    86    51    50    1
    87    46    47    1
    88    63    62    1
    89    50    47    1
    90    49    48    2
    91    47    48    1
    92    62    59    1
    93    59    58    1
    94    59    60    1
    95    61    60    2
