@<TRIPOS>MOLECULE
tmp/4p37A06.pdb
 101 98 0 0 0
SMALL
GASTEIGER

@<TRIPOS>ATOM
      1  N         -5.0990   52.4430   56.7250 N.3   123  HIS123     -0.1226
      2  CA        -5.3890   51.8180   55.4420 C.3   123  HIS123      0.1752
      3  C         -6.2810   52.7490   54.6640 C.2   123  HIS123      0.2596
      4  O         -7.3470   53.1440   55.1380 O.2   123  HIS123     -0.2718
      5  CB        -5.9860   50.4140   55.6040 C.3   123  HIS123      0.0759
      6  CG        -4.9800   49.4830   56.1910 C.ar  123  HIS123      0.0818
      7  ND1       -4.8800   49.3050   57.5620 N.ar  123  HIS123     -0.2268
      8  CD2       -3.9520   48.8360   55.5910 C.ar  123  HIS123      0.1154
      9  CE1       -3.8400   48.5050   57.7460 C.ar  123  HIS123      0.1986
     10  NE2       -3.2440   48.2020   56.5900 N.ar  123  HIS123     -0.2212
     11  N         -5.7930   53.1590   53.4960 N.am  124  GLU124     -0.1965
     12  CA        -6.4590   54.0600   52.5590 C.3   124  GLU124      0.1733
     13  C         -7.8260   53.4720   52.1660 C.2   124  GLU124      0.2616
     14  O         -7.9550   52.2470   52.0020 O.2   124  GLU124     -0.2715
     15  CB        -5.5820   54.2360   51.3050 C.3   124  GLU124      0.0429
     16  CG        -5.3830   55.6810   50.8640 C.3   124  GLU124      0.1163
     17  CD        -4.3220   55.8520   49.7920 C.2   124  GLU124      0.3649
     18  OE1       -4.5450   55.4030   48.6440 O.co2 124  GLU124     -0.2457
     19  OE2       -3.2580   56.4280   50.1090 O.co2 124  GLU124     -0.2457
     20  N         -8.8400   54.3570   52.0280 N.am  125  GLU125     -0.1963
     21  CA       -10.2400   54.0450   51.6630 C.3   125  GLU125      0.1733
     22  C        -11.0780   53.6020   52.8890 C.2   125  GLU125      0.2617
     23  O        -12.2610   53.2950   52.7460 O.2   125  GLU125     -0.2715
     24  CB       -10.3550   53.0660   50.4730 C.3   125  GLU125      0.0429
     25  CG        -9.5540   53.5320   49.2620 C.3   125  GLU125      0.1163
     26  CD        -9.8890   52.9900   47.8900 C.2   125  GLU125      0.3649
     27  OE1      -10.5710   51.9450   47.8030 O.co2 125  GLU125     -0.2457
     28  OE2       -9.4410   53.6020   46.8940 O.co2 125  GLU125     -0.2457
     29  N        -10.4690   53.6370   54.0940 N.am  126  THR126     -0.1951
     30  CA       -11.1000   53.4100   55.3990 C.3   126  THR126      0.1897
     31  C        -11.0100   54.7190   56.2110 C.2   126  THR126      0.2313
     32  O         -9.9710   55.3860   56.2030 O.2   126  THR126     -0.2863
     33  CB       -10.5310   52.1800   56.1460 C.3   126  THR126      0.1794
     34  OG1      -10.8260   50.9990   55.3930 O.3   126  THR126     -0.2208
     35  CG2      -11.1300   52.0120   57.5460 C.3   126  THR126      0.0378
     36  N        -15.4590   51.7240   55.4320 N.3   140  THR140     -0.1203
     37  CA       -14.6620   51.3090   54.2790 C.3   140  THR140      0.1994
     38  C        -15.4190   51.4320   52.9450 C.2   140  THR140      0.2617
     39  O        -16.5440   50.9530   52.8120 O.2   140  THR140     -0.2717
     40  CB       -14.1150   49.9070   54.5260 C.3   140  THR140      0.1784
     41  OG1      -13.2960   49.9660   55.6850 O.3   140  THR140     -0.2211
     42  CG2      -13.2760   49.3820   53.3700 C.3   140  THR140      0.0376
     43  N        -14.7530   52.0180   51.9570 N.am  141  TYR141     -0.1975
     44  CA       -15.2850   52.1670   50.6180 C.3   141  TYR141      0.1639
     45  C        -15.4040   50.8480   49.9070 C.2   141  TYR141      0.2290
     46  O        -14.4620   50.0640   49.8950 O.2   141  TYR141     -0.2864
     47  CB       -14.3840   53.1020   49.7700 C.3   141  TYR141      0.0560
     48  CG       -14.7760   53.1610   48.3030 C.ar  141  TYR141     -0.0198
     49  CD1      -15.9950   53.7100   47.9060 C.ar  141  TYR141     -0.0009
     50  CD2      -13.9240   52.6810   47.3140 C.ar  141  TYR141     -0.0009
     51  CE1      -16.3490   53.7930   46.5600 C.ar  141  TYR141      0.0417
     52  CE2      -14.2690   52.7570   45.9650 C.ar  141  TYR141      0.0417
     53  CZ       -15.4850   53.3070   45.5940 C.ar  141  TYR141      0.1957
     54  OH       -15.8300   53.3690   44.2680 O.3   141  TYR141     -0.2866
     55  N         -7.2220   35.3880   52.8820 N.3   171  ARG171     -0.1245
     56  CA        -6.2580   36.3920   52.3820 C.3   171  ARG171      0.1563
     57  C         -5.0480   36.4960   53.3150 C.2   171  ARG171      0.2260
     58  O         -3.9270   36.5600   52.8400 O.2   171  ARG171     -0.2867
     59  CB        -6.8900   37.7740   52.1900 C.3   171  ARG171      0.0307
     60  CG        -7.7480   37.8990   50.9460 C.3   171  ARG171      0.0489
     61  CD        -7.9250   39.2920   50.3850 C.3   171  ARG171      0.2205
     62  NE        -8.1820   40.3070   51.3940 N.pl3 171  ARG171     -0.0865
     63  CZ        -7.5500   41.4720   51.4330 C.cat 171  ARG171      0.5346
     64  NH1       -6.6040   41.7520   50.5430 N.pl3 171  ARG171      0.1354
     65  NH2       -7.8440   42.3620   52.3710 N.pl3 171  ARG171      0.1354
     66  N        -12.3780   44.8170   44.0470 N.3   297  PHE297     -0.1227
     67  CA       -12.3860   45.1210   45.4770 C.3   297  PHE297      0.1736
     68  C        -10.9530   44.9970   46.0540 C.2   297  PHE297      0.2595
     69  O        -10.0200   45.5270   45.4510 O.2   297  PHE297     -0.2718
     70  CB       -13.4550   44.2510   46.1960 C.3   297  PHE297      0.0547
     71  CG       -13.7340   44.5200   47.6630 C.ar  297  PHE297     -0.0202
     72  CD1      -13.8320   45.8170   48.1440 C.ar  297  PHE297     -0.0042
     73  CD2      -13.9260   43.4720   48.5540 C.ar  297  PHE297     -0.0042
     74  CE1      -14.0850   46.0610   49.5020 C.ar  297  PHE297     -0.0003
     75  CE2      -14.1980   43.7150   49.9100 C.ar  297  PHE297     -0.0003
     76  CZ       -14.2850   45.0080   50.3750 C.ar  297  PHE297     -0.0000
     77  N        -10.7730   44.2260   47.1340 N.am  298  GLN298     -0.1979
     78  CA        -9.4910   43.9850   47.7840 C.3   298  GLN298      0.1601
     79  C         -9.0490   42.5740   47.4150 C.2   298  GLN298      0.2287
     80  O         -8.1240   42.0350   48.0400 O.2   298  GLN298     -0.2864
     81  CB        -9.7060   44.0020   49.3140 C.3   298  GLN298      0.0394
     82  CG       -10.4790   45.1940   49.8690 C.3   298  GLN298      0.0908
     83  CD       -10.8150   45.0780   51.3390 C.2   298  GLN298      0.2608
     84  OE1      -10.9420   43.9910   51.9120 O.2   298  GLN298     -0.2717
     85  NE2      -11.0730   46.2050   51.9580 N.am  298  GLN298     -0.0878
     86  N         -9.6680   54.6320   44.0110 N.3   448  LYS448     -0.1245
     87  CA        -9.1390   53.7840   42.9290 C.3   448  LYS448      0.1561
     88  C        -10.2790   52.9690   42.3170 C.2   448  LYS448      0.2260
     89  O        -11.2600   52.6860   43.0030 O.2   448  LYS448     -0.2867
     90  CB        -8.0530   52.8460   43.4490 C.3   448  LYS448      0.0271
     91  CG        -6.7440   53.5620   43.7650 C.3   448  LYS448      0.0035
     92  CD        -5.9310   52.7950   44.7920 C.3   448  LYS448      0.0206
     93  CE        -5.2460   53.7350   45.7540 C.3   448  LYS448      0.1093
     94  NZ        -4.8950   53.0770   47.0420 N.3   448  LYS448     -0.1314
     95  N        -11.8030   49.8340   41.6210 N.3   450  THR450     -0.1218
     96  CA       -11.7570   48.4380   42.0650 C.3   450  THR450      0.1862
     97  C        -13.1270   47.7800   41.7860 C.2   450  THR450      0.2287
     98  O        -13.5800   46.9190   42.5500 O.2   450  THR450     -0.2866
     99  CB       -11.2370   48.2980   43.5370 C.3   450  THR450      0.1770
    100  OG1      -12.0660   49.0530   44.4200 O.3   450  THR450     -0.2211
    101  CG2       -9.7610   48.7090   43.7090 C.3   450  THR450      0.0375
@<TRIPOS>BOND
     1    95    96    1
     2    97    96    1
     3    97    98    2
     4    96    99    1
     5    88    87    1
     6    88    89    2
     7    87    90    1
     8    87    86    1
     9    90    91    1
    10    99   101    1
    11    99   100    1
    12    91    92    1
    13    66    67    1
    14    54    53    1
    15    92    93    1
    16    69    68    2
    17    67    68    1
    18    67    70    1
    19    53    52   ar
    20    53    51   ar
    21    93    94    1
    22    52    50   ar
    23    68    77   am
    24    70    71    1
    25    51    49   ar
    26    28    26   ar
    27    77    78    1
    28    50    48   ar
    29    79    78    1
    30    79    80    2
    31    71    72   ar
    32    71    73   ar
    33    78    81    1
    34    27    26   ar
    35    26    25    1
    36    49    48   ar
    37    72    74   ar
    38    48    47    1
    39    73    75   ar
    40    18    17   ar
    41    25    24    1
    42    81    82    1
    43    74    76   ar
    44    47    44    1
    45    17    19   ar
    46    17    16    1
    47    82    83    1
    48    46    45    2
    49    45    44    1
    50    75    76   ar
    51    61    60    1
    52    61    62    1
    53    24    21    1
    54    64    63    1
    55    44    43    1
    56    16    15    1
    57    60    59    1
    58    15    12    1
    59    83    84    2
    60    83    85   am
    61    62    63    2
    62    63    65    1
    63    21    20    1
    64    21    22    1
    65    43    38   am
    66    14    13    2
    67    20    13   am
    68    13    12    1
    69    59    56    1
    70    56    55    1
    71    56    57    1
    72    12    11    1
    73    23    22    2
    74    39    38    2
    75    58    57    2
    76    22    29   am
    77    38    37    1
    78    42    40    1
    79    11     3   am
    80    29    30    1
    81    37    40    1
    82    37    36    1
    83    40    41    1
    84     3     4    2
    85     3     2    1
    86    34    33    1
    87    30    33    1
    88    30    31    1
    89     2     5    1
    90     2     1    1
    91     8     6   ar
    92     8    10   ar
    93     5     6    1
    94    33    35    1
    95     6     7   ar
    96    32    31    2
    97    10     9   ar
    98     7     9   ar
