@<TRIPOS>MOLECULE
tmp/4p37B03.pdb
 113 110 0 0 0
SMALL
GASTEIGER

@<TRIPOS>ATOM
      1  N          6.3780   47.8860   87.8460 N.3   170  ARG170     -0.1245
      2  CA         5.6020   49.0890   87.5420 C.3   170  ARG170      0.1563
      3  C          4.3430   48.7480   86.7450 C.2   170  ARG170      0.2260
      4  O          3.2900   49.2900   87.0350 O.2   170  ARG170     -0.2867
      5  CB         6.4400   50.1500   86.7710 C.3   170  ARG170      0.0307
      6  CG         7.4180   50.9440   87.6370 C.3   170  ARG170      0.0489
      7  CD         7.8760   52.3110   87.0790 C.3   170  ARG170      0.2205
      8  NE         6.9980   52.9330   86.0680 N.pl3 170  ARG170     -0.0865
      9  CZ         6.1920   53.9800   86.2810 C.cat 170  ARG170      0.5346
     10  NH1        6.1570   54.5730   87.4690 N.pl3 170  ARG170      0.1354
     11  NH2        5.4410   54.4570   85.2980 N.pl3 170  ARG170      0.1354
     12  N          1.7160   57.3750  100.3950 N.3   260  ILE260     -0.1245
     13  CA         1.5040   57.6060   98.9710 C.3   260  ILE260      0.1561
     14  C          0.0820   58.1800   98.8460 C.2   260  ILE260      0.2260
     15  O         -0.8660   57.5610   99.3270 O.2   260  ILE260     -0.2867
     16  CB         1.7520   56.3380   98.1220 C.3   260  ILE260      0.0252
     17  CG1        3.2540   55.9730   98.1630 C.3   260  ILE260      0.0019
     18  CG2        1.2690   56.5590   96.6850 C.3   260  ILE260      0.0019
     19  CD1        3.5800   54.6010   97.7480 C.3   260  ILE260      0.0001
     20  N         10.6490   64.6370   91.2200 N.3   292  PRO292     -0.2116
     21  CA        10.4710   63.2050   90.9300 C.3   292  PRO292      0.1372
     22  C         11.8110   62.5020   90.6850 C.2   292  PRO292      0.2244
     23  O         12.7800   63.1400   90.2840 O.2   292  PRO292     -0.2868
     24  CB         9.6420   63.2230   89.6330 C.3   292  PRO292      0.0268
     25  CG         8.9100   64.5180   89.6760 C.3   292  PRO292      0.0207
     26  CD         9.9380   65.4610   90.2250 C.3   292  PRO292      0.0892
     27  N         13.6210   59.8550   88.3850 N.3   294  PHE294     -0.1227
     28  CA        13.5870   59.1300   87.1150 C.3   294  PHE294      0.1736
     29  C         12.1050   58.8780   86.7050 C.2   294  PHE294      0.2595
     30  O         11.3120   59.8170   86.7370 O.2   294  PHE294     -0.2718
     31  CB        14.4570   57.8390   87.1930 C.3   294  PHE294      0.0547
     32  CG        14.6550   57.0350   85.9170 C.ar  294  PHE294     -0.0202
     33  CD1       14.9300   57.6720   84.6980 C.ar  294  PHE294     -0.0042
     34  CD2       14.6230   55.6430   85.9400 C.ar  294  PHE294     -0.0042
     35  CE1       15.1220   56.9320   83.5230 C.ar  294  PHE294     -0.0003
     36  CE2       14.8380   54.9040   84.7700 C.ar  294  PHE294     -0.0003
     37  CZ        15.0890   55.5520   83.5700 C.ar  294  PHE294     -0.0000
     38  N         11.7340   57.6280   86.4120 N.am  295  GLN295     -0.1965
     39  CA        10.3870   57.2070   86.0220 C.3   295  GLN295      0.1733
     40  C          9.7720   56.4920   87.2110 C.2   295  GLN295      0.2616
     41  O          8.7340   55.8560   87.0700 O.2   295  GLN295     -0.2715
     42  CB        10.5090   56.1900   84.8650 C.3   295  GLN295      0.0408
     43  CG        11.3830   56.6360   83.6800 C.3   295  GLN295      0.0908
     44  CD        11.6240   55.5300   82.6580 C.2   295  GLN295      0.2608
     45  OE1       11.5320   54.3160   82.9510 O.2   295  GLN295     -0.2717
     46  NE2       12.0120   55.9290   81.4400 N.am  295  GLN295     -0.0878
     47  N         10.4390   56.5560   88.3840 N.am  296  PHE296     -0.1960
     48  CA        10.0780   55.7520   89.5560 C.3   296  PHE296      0.1771
     49  C          9.1440   56.4040   90.5570 C.2   296  PHE296      0.2620
     50  O          8.3010   55.7130   91.1210 O.2   296  PHE296     -0.2715
     51  CB        11.3500   55.2600   90.2680 C.3   296  PHE296      0.0574
     52  CG        12.2140   54.2980   89.4740 C.ar  296  PHE296     -0.0200
     53  CD1       11.6920   53.5900   88.3850 C.ar  296  PHE296     -0.0042
     54  CD2       13.5340   54.0610   89.8410 C.ar  296  PHE296     -0.0042
     55  CE1       12.5000   52.7240   87.6340 C.ar  296  PHE296     -0.0003
     56  CE2       14.3290   53.1600   89.1110 C.ar  296  PHE296     -0.0003
     57  CZ        13.8040   52.5010   88.0140 C.ar  296  PHE296     -0.0000
     58  N          9.3240   57.6970   90.8330 N.am  297  THR297     -0.1937
     59  CA         8.5030   58.3930   91.8370 C.3   297  THR297      0.2028
     60  C          8.0310   59.7180   91.2880 C.2   297  THR297      0.2642
     61  O          8.6570   60.2540   90.3630 O.2   297  THR297     -0.2714
     62  CB         9.3270   58.7030   93.1340 C.3   297  THR297      0.1808
     63  OG1       10.2490   59.7660   92.8680 O.3   297  THR297     -0.2208
     64  CG2       10.0710   57.4990   93.6920 C.3   297  THR297      0.0379
     65  N          6.9690   60.2560   91.8930 N.am  298  GLY298     -0.1954
     66  CA         6.4700   61.5930   91.5980 C.3   298  GLY298      0.1869
     67  C          7.1300   62.5670   92.5470 C.2   298  GLY298      0.2309
     68  O          8.1390   62.2330   93.1940 O.2   298  GLY298     -0.2863
     69  N          3.6650   61.7800   95.7060 N.3   315  GLU315     -0.1231
     70  CA         2.6090   62.0940   94.7600 C.3   315  GLU315      0.1699
     71  C          2.2740   60.9100   93.8510 C.2   315  GLU315      0.2592
     72  O          3.1670   60.3610   93.1830 O.2   315  GLU315     -0.2718
     73  CB         3.0370   63.3060   93.9310 C.3   315  GLU315      0.0402
     74  CG         2.0320   63.7430   92.8880 C.3   315  GLU315      0.1161
     75  CD         2.6550   64.6440   91.8440 C.2   315  GLU315      0.3649
     76  OE1        3.7290   64.2910   91.2940 O.co2 315  GLU315     -0.2457
     77  OE2        2.0860   65.7340   91.6120 O.co2 315  GLU315     -0.2457
     78  N          0.9730   60.5660   93.7730 N.am  316  ALA316     -0.1980
     79  CA         0.4800   59.5050   92.8970 C.3   316  ALA316      0.1597
     80  C         -0.8020   59.9030   92.1440 C.2   316  ALA316      0.2287
     81  O         -1.4790   59.0320   91.5970 O.2   316  ALA316     -0.2864
     82  CB         0.2700   58.2180   93.6820 C.3   316  ALA316      0.0319
     83  N         -2.8830   58.0690   89.1270 N.3   319  TYR319     -0.1241
     84  CA        -2.7180   56.6200   89.1960 C.3   319  TYR319      0.1605
     85  C         -3.7550   56.0200   90.1240 C.2   319  TYR319      0.2264
     86  O         -4.1370   56.6590   91.1110 O.2   319  TYR319     -0.2867
     87  CB        -1.3170   56.2500   89.7090 C.3   319  TYR319      0.0534
     88  CG        -0.2020   56.6710   88.7810 C.ar  319  TYR319     -0.0201
     89  CD1        0.3290   57.9590   88.8350 C.ar  319  TYR319     -0.0009
     90  CD2        0.3660   55.7680   87.8880 C.ar  319  TYR319     -0.0009
     91  CE1        1.3690   58.3500   87.9930 C.ar  319  TYR319      0.0417
     92  CE2        1.4150   56.1460   87.0450 C.ar  319  TYR319      0.0417
     93  CZ         1.9140   57.4360   87.1060 C.ar  319  TYR319      0.1957
     94  OH         2.9660   57.7910   86.3050 O.3   319  TYR319     -0.2866
     95  N         -3.7560   53.3130   92.6480 N.3   321  VAL321     -0.1245
     96  CA        -2.7350   52.5950   93.4200 C.3   321  VAL321      0.1561
     97  C         -3.2720   51.3240   94.1330 C.2   321  VAL321      0.2260
     98  O         -4.2210   51.4250   94.9210 O.2   321  VAL321     -0.2867
     99  CB        -1.9860   53.5470   94.3980 C.3   321  VAL321      0.0252
    100  CG1       -0.8880   52.8070   95.1680 C.3   321  VAL321      0.0019
    101  CG2       -1.3780   54.7220   93.6420 C.3   321  VAL321      0.0019
    102  N          3.4030   46.0310   95.4110 N.3   337  TYR337     -0.1241
    103  CA         3.6570   47.4670   95.4600 C.3   337  TYR337      0.1605
    104  C          4.7930   47.7730   96.4240 C.2   337  TYR337      0.2264
    105  O          5.7390   48.4510   96.0230 O.2   337  TYR337     -0.2867
    106  CB         2.3910   48.2740   95.7820 C.3   337  TYR337      0.0534
    107  CG         2.4490   49.6820   95.2400 C.ar  337  TYR337     -0.0201
    108  CD1        3.0890   50.6930   95.9440 C.ar  337  TYR337     -0.0009
    109  CD2        1.9200   49.9930   93.9900 C.ar  337  TYR337     -0.0009
    110  CE1        3.2040   51.9770   95.4190 C.ar  337  TYR337      0.0417
    111  CE2        2.0100   51.2810   93.4650 C.ar  337  TYR337      0.0417
    112  CZ         2.6510   52.2710   94.1880 C.ar  337  TYR337      0.1957
    113  OH         2.7340   53.5540   93.7180 O.3   337  TYR337     -0.2866
@<TRIPOS>BOND
     1    46    44   am
     2    44    45    2
     3    44    43    1
     4    35    37   ar
     5    35    33   ar
     6    37    36   ar
     7    43    42    1
     8    33    32   ar
     9    36    34   ar
    10    42    39    1
    11    11     9    1
    12    32    34   ar
    13    32    31    1
    14    39    38    1
    15    39    40    1
    16     8     9    2
    17     8     7    1
    18     9    10    1
    19    94    93    1
    20    38    29   am
    21    29    30    2
    22    29    28    1
    23     3     4    2
    24     3     2    1
    25     5     2    1
    26     5     6    1
    27    92    93   ar
    28    92    90   ar
    29    41    40    2
    30     7     6    1
    31    93    91   ar
    32    28    31    1
    33    28    27    1
    34    40    47   am
    35     2     1    1
    36    55    57   ar
    37    55    53   ar
    38    90    88   ar
    39    91    89   ar
    40    57    56   ar
    41    47    48    1
    42    53    52   ar
    43    88    89   ar
    44    88    87    1
    45    56    54   ar
    46    83    84    1
    47    84    87    1
    48    84    85    1
    49    52    54   ar
    50    52    51    1
    51    48    51    1
    52    48    49    1
    53    24    25    1
    54    24    21    1
    55    25    26    1
    56    85    86    2
    57    26    20    1
    58    23    22    2
    59    61    60    2
    60    49    58   am
    61    49    50    2
    62    22    21    1
    63    58    59    1
    64    21    20    1
    65    60    59    1
    66    60    65   am
    67    76    75   ar
    68    81    80    2
    69    66    65    1
    70    66    67    1
    71    77    75   ar
    72    59    62    1
    73    75    74    1
    74    80    79    1
    75    67    68    2
    76    95    96    1
    77    63    62    1
    78    74    73    1
    79    79    82    1
    80    79    78    1
    81    62    64    1
    82    72    71    2
    83    96    97    1
    84    96    99    1
    85   111   109   ar
    86   111   112   ar
    87   101    99    1
    88   113   112    1
    89    78    71   am
    90    71    70    1
    91    73    70    1
    92   109   107   ar
    93    97    98    2
    94   112   110   ar
    95    99   100    1
    96    70    69    1
    97   107   106    1
    98   107   108   ar
    99   102   103    1
   100   110   108   ar
   101   103   106    1
   102   103   104    1
   103   105   104    2
   104    18    16    1
   105    19    17    1
   106    16    17    1
   107    16    13    1
   108    14    13    1
   109    14    15    2
   110    13    12    1
