@<TRIPOS>MOLECULE
tmp/4p37A04.pdb
 116 110 0 0 0
SMALL
GASTEIGER

@<TRIPOS>ATOM
      1  N         -5.5660   29.9330   33.3120 N.3   261  GLU261     -0.1245
      2  CA        -5.6310   31.0580   34.2390 C.3   261  GLU261      0.1567
      3  C         -4.3430   31.1140   35.0390 C.2   261  GLU261      0.2260
      4  O         -3.9480   30.1340   35.6510 O.2   261  GLU261     -0.2867
      5  CB        -6.8800   30.9730   35.1170 C.3   261  GLU261      0.0388
      6  CG        -7.1590   32.2180   35.9310 C.3   261  GLU261      0.1160
      7  CD        -8.4760   32.1800   36.6790 C.2   261  GLU261      0.3649
      8  OE1       -9.5330   32.1860   36.0100 O.co2 261  GLU261     -0.2457
      9  OE2       -8.4530   32.1510   37.9310 O.co2 261  GLU261     -0.2457
     10  N         -1.5090   33.5010   37.5750 N.3   263  ILE263     -0.1245
     11  CA        -1.2300   34.5800   38.5060 C.3   263  ILE263      0.1561
     12  C          0.2570   34.9100   38.3370 C.2   263  ILE263      0.2260
     13  O          1.0920   34.0300   38.4810 O.2   263  ILE263     -0.2867
     14  CB        -1.6440   34.2280   39.9610 C.3   263  ILE263      0.0252
     15  CG1       -3.1970   34.1250   40.0550 C.3   263  ILE263      0.0019
     16  CG2       -1.0960   35.2780   40.9410 C.3   263  ILE263      0.0019
     17  CD1       -3.6900   33.4250   41.2530 C.3   263  ILE263      0.0001
     18  N        -10.6100   43.8610   41.3500 N.3   296  LEU296     -0.1245
     19  CA       -11.9150   43.6320   41.9650 C.3   296  LEU296      0.1561
     20  C        -11.7800   43.7510   43.4710 C.2   296  LEU296      0.2260
     21  O        -11.1320   42.9030   44.0970 O.2   296  LEU296     -0.2867
     22  CB       -12.4980   42.2610   41.5670 C.3   296  LEU296      0.0270
     23  CG       -13.8510   41.9010   42.2000 C.3   296  LEU296      0.0019
     24  CD1      -14.9820   42.7860   41.6460 C.3   296  LEU296      0.0001
     25  CD2      -14.1600   40.4400   41.9850 C.3   296  LEU296      0.0001
     26  N         -9.7530   41.9440   46.4530 N.3   299  PHE299     -0.1227
     27  CA        -9.5540   40.5250   46.1300 C.3   299  PHE299      0.1736
     28  C         -8.5560   40.2290   45.0120 C.2   299  PHE299      0.2596
     29  O         -7.8390   39.2320   45.0970 O.2   299  PHE299     -0.2718
     30  CB       -10.9160   39.8700   45.8160 C.3   299  PHE299      0.0547
     31  CG       -11.9100   39.8250   46.9580 C.ar  299  PHE299     -0.0202
     32  CD1      -11.4890   39.9600   48.2780 C.ar  299  PHE299     -0.0042
     33  CD2      -13.2670   39.6030   46.7160 C.ar  299  PHE299     -0.0042
     34  CE1      -12.4110   39.9290   49.3320 C.ar  299  PHE299     -0.0003
     35  CE2      -14.1890   39.5450   47.7740 C.ar  299  PHE299     -0.0003
     36  CZ       -13.7520   39.6970   49.0730 C.ar  299  PHE299     -0.0000
     37  N         -8.5730   41.0300   43.9290 N.am  300  THR300     -0.1939
     38  CA        -7.7050   40.7900   42.7720 C.3   300  THR300      0.2028
     39  C         -7.0500   42.0700   42.3360 C.2   300  THR300      0.2642
     40  O         -7.5580   43.1530   42.6240 O.2   300  THR300     -0.2714
     41  CB        -8.5220   40.2550   41.5510 C.3   300  THR300      0.1808
     42  OG1       -9.2920   41.3160   40.9880 O.3   300  THR300     -0.2208
     43  CG2       -9.4240   39.0970   41.8750 C.3   300  THR300      0.0379
     44  N         -5.9650   41.9320   41.5800 N.am  301  GLY301     -0.1954
     45  CA        -5.2950   43.0440   40.9380 C.3   301  GLY301      0.1869
     46  C         -5.8470   43.2070   39.5330 C.2   301  GLY301      0.2309
     47  O         -6.9030   42.6560   39.2080 O.2   301  GLY301     -0.2863
     48  N         -3.5920   37.3810   35.9510 N.3   317  TYR317     -0.1227
     49  CA        -3.8780   38.2240   37.1170 C.3   317  TYR317      0.1736
     50  C         -2.6140   38.8080   37.6820 C.2   317  TYR317      0.2595
     51  O         -1.6180   38.1050   37.8520 O.2   317  TYR317     -0.2718
     52  CB        -4.6480   37.4270   38.2030 C.3   317  TYR317      0.0548
     53  CG        -6.0810   37.1670   37.7890 C.ar  317  TYR317     -0.0200
     54  CD1       -6.4160   36.0590   37.0090 C.ar  317  TYR317     -0.0009
     55  CD2       -7.0910   38.0650   38.1110 C.ar  317  TYR317     -0.0009
     56  CE1       -7.7190   35.8730   36.5360 C.ar  317  TYR317      0.0417
     57  CE2       -8.4010   37.8810   37.6600 C.ar  317  TYR317      0.0417
     58  CZ        -8.7080   36.7880   36.8670 C.ar  317  TYR317      0.1957
     59  OH       -10.0080   36.6010   36.4640 O.3   317  TYR317     -0.2866
     60  N         -2.6560   40.0980   37.9820 N.am  318  GLU318     -0.1965
     61  CA        -1.5330   40.8290   38.5740 C.3   318  GLU318      0.1733
     62  C         -1.3610   40.5170   40.0690 C.2   318  GLU318      0.2616
     63  O         -2.3150   40.6490   40.8430 O.2   318  GLU318     -0.2715
     64  CB        -1.7550   42.3200   38.3660 C.3   318  GLU318      0.0429
     65  CG        -0.6750   43.2140   38.9480 C.3   318  GLU318      0.1163
     66  CD        -1.1320   44.6570   39.0530 C.2   318  GLU318      0.3649
     67  OE1       -2.2380   44.9030   39.5910 O.co2 318  GLU318     -0.2457
     68  OE2       -0.4050   45.5380   38.5410 O.co2 318  GLU318     -0.2457
     69  N         -0.1350   40.1430   40.4720 N.am  319  ALA319     -0.1977
     70  CA         0.1810   39.8650   41.8780 C.3   319  ALA319      0.1597
     71  C          1.5310   40.4770   42.2960 C.2   319  ALA319      0.2287
     72  O          2.0760   40.0910   43.3320 O.2   319  ALA319     -0.2864
     73  CB         0.1660   38.3560   42.1470 C.3   319  ALA319      0.0319
     74  N         -4.8210   28.6520   48.6980 N.3   340  TYR340     -0.1241
     75  CA        -4.8420   29.7090   47.6860 C.3   340  TYR340      0.1605
     76  C         -5.9370   29.4480   46.6660 C.2   340  TYR340      0.2264
     77  O         -6.7480   30.3410   46.4320 O.2   340  TYR340     -0.2867
     78  CB        -3.4710   29.9150   47.0220 C.3   340  TYR340      0.0534
     79  CG        -3.2950   31.3220   46.4940 C.ar  340  TYR340     -0.0201
     80  CD1       -3.7840   31.6850   45.2480 C.ar  340  TYR340     -0.0009
     81  CD2       -2.6890   32.3050   47.2670 C.ar  340  TYR340     -0.0009
     82  CE1       -3.6700   32.9890   44.7760 C.ar  340  TYR340      0.0417
     83  CE2       -2.5640   33.6140   46.8040 C.ar  340  TYR340      0.0417
     84  CZ        -3.0540   33.9490   45.5530 C.ar  340  TYR340      0.1957
     85  OH        -2.9160   35.2170   45.0600 O.3   340  TYR340     -0.2866
     86  N         -9.3360   31.4850   45.6260 N.3   343  ILE343     -0.1245
     87  CA        -9.5930   31.8330   44.2160 C.3   343  ILE343      0.1561
     88  C        -10.9970   31.4110   43.7830 C.2   343  ILE343      0.2260
     89  O        -11.6630   32.1680   43.1000 O.2   343  ILE343     -0.2867
     90  CB        -8.4860   31.2550   43.2610 C.3   343  ILE343      0.0252
     91  CG1       -7.0920   31.8880   43.5330 C.3   343  ILE343      0.0019
     92  CG2       -8.8640   31.3420   41.7620 C.3   343  ILE343      0.0019
     93  CD1       -7.0420   33.3790   43.5660 C.3   343  ILE343      0.0001
     94  N        -13.5060   33.8440   45.3270 N.3   345  ILE345     -0.1231
     95  CA       -13.4620   35.1380   44.6160 C.3   345  ILE345      0.1692
     96  C        -14.1630   35.0050   43.2420 C.2   345  ILE345      0.2592
     97  O        -14.9820   35.8550   42.8820 O.2   345  ILE345     -0.2718
     98  CB       -11.9960   35.6840   44.5010 C.3   345  ILE345      0.0266
     99  CG1      -11.3830   35.9820   45.8850 C.3   345  ILE345      0.0019
    100  CG2      -11.9170   36.8990   43.5590 C.3   345  ILE345      0.0020
    101  CD1       -9.8920   36.0470   45.8910 C.3   345  ILE345      0.0001
    102  N        -13.8270   33.9380   42.4960 N.am  346  SER346     -0.1952
    103  CA       -14.4110   33.6470   41.1840 C.3   346  SER346      0.1924
    104  C        -15.9390   33.4380   41.2340 C.2   346  SER346      0.2314
    105  O        -16.6530   33.9250   40.3550 O.2   346  SER346     -0.2863
    106  CB       -13.7070   32.4560   40.5490 C.3   346  SER346      0.2116
    107  OG       -12.3760   32.8280   40.2320 O.3   346  SER346     -0.2180
    108  N        -17.3880   36.9570   41.8070 N.3   349  LYS349     -0.1245
    109  CA       -17.3490   37.6710   40.5290 C.3   349  LYS349      0.1561
    110  C        -18.4730   37.2140   39.5760 C.2   349  LYS349      0.2260
    111  O        -19.1190   38.0620   38.9530 O.2   349  LYS349     -0.2867
    112  CB       -15.9710   37.5410   39.8550 C.3   349  LYS349      0.0271
    113  CG       -15.7830   38.3730   38.5830 C.3   349  LYS349      0.0035
    114  CD       -16.0630   39.8830   38.7510 C.3   349  LYS349      0.0206
    115  CE       -15.5710   40.7310   37.6020 C.3   349  LYS349      0.1093
    116  NZ       -16.6600   41.5990   37.1000 N.3   349  LYS349     -0.1314
@<TRIPOS>BOND
     1     1     2    1
     2     2     3    1
     3     2     5    1
     4     3     4    2
     5     5     6    1
     6     6     7    1
     7    48    49    1
     8     8     7   ar
     9    59    58    1
    10    56    58   ar
    11    56    54   ar
    12     7     9   ar
    13    58    57   ar
    14    54    53   ar
    15   116   115    1
    16    49    50    1
    17    49    52    1
    18    10    11    1
    19   115   114    1
    20    57    55   ar
    21    50    51    2
    22    50    60   am
    23    53    55   ar
    24    53    52    1
    25    60    61    1
    26    12    13    2
    27    12    11    1
    28    64    61    1
    29    64    65    1
    30    11    14    1
    31    68    66   ar
    32    61    62    1
    33   113   114    1
    34   113   112    1
    35    65    66    1
    36   111   110    2
    37    66    67   ar
    38    47    46    2
    39    46    45    1
    40   110   109    1
    41   112   109    1
    42    14    15    1
    43    14    16    1
    44    15    17    1
    45    62    69   am
    46    62    63    2
    47   107   106    1
    48   105   104    2
    49    69    70    1
    50   109   108    1
    51   106   103    1
    52    45    44    1
    53    42    41    1
    54   103   104    1
    55   103   102    1
    56    18    19    1
    57    41    43    1
    58    41    38    1
    59    22    19    1
    60    22    23    1
    61    44    39   am
    62    24    23    1
    63    92    90    1
    64    70    73    1
    65    70    71    1
    66    19    20    1
    67    25    23    1
    68    71    72    2
    69    39    40    2
    70    39    38    1
    71   102    96   am
    72    38    37    1
    73    97    96    2
    74    89    88    2
    75    96    95    1
    76    90    91    1
    77    90    87    1
    78    20    21    2
    79    91    93    1
    80   100    98    1
    81    88    87    1
    82    37    28   am
    83    87    86    1
    84    98    95    1
    85    98    99    1
    86    95    94    1
    87    82    80   ar
    88    82    84   ar
    89    28    29    2
    90    28    27    1
    91    85    84    1
    92    80    79   ar
    93    84    83   ar
    94    30    27    1
    95    30    31    1
    96    99   101    1
    97    27    26    1
    98    77    76    2
    99    79    78    1
   100    79    81   ar
   101    76    75    1
   102    33    31   ar
   103    33    35   ar
   104    83    81   ar
   105    31    32   ar
   106    78    75    1
   107    75    74    1
   108    35    36   ar
   109    32    34   ar
   110    36    34   ar
