@<TRIPOS>MOLECULE
tmp/4p38A01.pdb
 172 164 0 0 0
SMALL
GASTEIGER

@<TRIPOS>ATOM
      1  N         -4.0720   65.6070   28.9910 N.3    96  ILE96      -0.1245
      2  CA        -3.4030   64.3140   28.9870 C.3    96  ILE96       0.1561
      3  C         -1.9270   64.5600   28.7900 C.2    96  ILE96       0.2260
      4  O         -1.5720   65.5410   28.1520 O.2    96  ILE96      -0.2867
      5  CB        -3.9440   63.2710   27.9380 C.3    96  ILE96       0.0252
      6  CG1       -3.9960   63.7840   26.4780 C.3    96  ILE96       0.0019
      7  CG2       -5.2290   62.6100   28.3780 C.3    96  ILE96       0.0019
      8  CD1       -3.7460   62.6990   25.3930 C.3    96  ILE96       0.0001
      9  N          1.4770   61.3810   24.4630 N.3    99  THR99      -0.1203
     10  CA         1.4430   59.9630   24.1100 C.3    99  THR99       0.1994
     11  C          1.5280   59.8620   22.5790 C.2    99  THR99       0.2619
     12  O          1.0790   60.7640   21.8460 O.2    99  THR99      -0.2717
     13  CB         0.0940   59.3460   24.5930 C.3    99  THR99       0.1784
     14  OG1       -0.1450   59.6820   25.9630 O.3    99  THR99      -0.2211
     15  CG2        0.0120   57.8310   24.4050 C.3    99  THR99       0.0376
     16  N          2.0800   58.7390   22.1100 N.am  100  SER100     -0.1937
     17  CA         2.1770   58.3860   20.7010 C.3   100  SER100      0.2055
     18  C          1.8200   56.9040   20.5890 C.2   100  SER100      0.2642
     19  O          1.8430   56.1980   21.6020 O.2   100  SER100     -0.2714
     20  CB         3.6000   58.6150   20.2070 C.3   100  SER100      0.2130
     21  OG         4.5020   57.7600   20.8900 O.3   100  SER100     -0.2179
     22  N          1.5030   56.4210   19.3820 N.am  101  LEU101     -0.1977
     23  CA         1.2310   54.9970   19.1680 C.3   101  LEU101      0.1596
     24  C          2.5750   54.2820   19.1760 C.2   101  LEU101      0.2287
     25  O          3.4590   54.6400   18.3900 O.2   101  LEU101     -0.2864
     26  CB         0.4850   54.7290   17.8350 C.3   101  LEU101      0.0297
     27  CG        -0.7910   55.5370   17.5530 C.3   101  LEU101      0.0022
     28  CD1       -1.3900   55.1410   16.2300 C.3   101  LEU101      0.0001
     29  CD2       -1.8420   55.3320   18.6340 C.3   101  LEU101      0.0001
     30  N        -12.0010   58.0540   26.1550 N.3   145  SER145     -0.1202
     31  CA       -11.8210   57.5840   24.7870 C.3   145  SER145      0.2020
     32  C        -12.4950   56.2350   24.5760 C.2   145  SER145      0.2619
     33  O        -12.9070   55.5890   25.5430 O.2   145  SER145     -0.2717
     34  CB       -10.3250   57.4210   24.5530 C.3   145  SER145      0.2103
     35  OG       -10.0580   56.8740   23.2780 O.3   145  SER145     -0.2182
     36  N        -12.5790   55.7920   23.3120 N.am  146  LEU146     -0.1965
     37  CA       -13.0510   54.4510   22.9300 C.3   146  LEU146      0.1728
     38  C        -12.0250   53.4990   23.5720 C.2   146  LEU146      0.2616
     39  O        -12.4130   52.5150   24.1870 O.2   146  LEU146     -0.2715
     40  CB       -13.0010   54.3080   21.4050 C.3   146  LEU146      0.0311
     41  CG       -14.2870   54.1660   20.5970 C.3   146  LEU146      0.0022
     42  CD1      -15.3720   55.0600   21.0870 C.3   146  LEU146      0.0001
     43  CD2      -14.0220   54.5220   19.1960 C.3   146  LEU146      0.0001
     44  N        -10.7130   53.8880   23.5270 N.am  147  ALA147     -0.1977
     45  CA        -9.5780   53.2160   24.1750 C.3   147  ALA147      0.1597
     46  C         -9.7040   53.1660   25.7600 C.2   147  ALA147      0.2287
     47  O         -8.9030   52.5080   26.4190 O.2   147  ALA147     -0.2864
     48  CB        -8.2710   53.8650   23.7420 C.3   147  ALA147      0.0319
     49  N         -7.2690   48.5290   22.5660 N.3   152  TYR152     -0.1228
     50  CA        -6.5570   48.7450   21.3090 C.3   152  TYR152      0.1721
     51  C         -5.0410   48.5690   21.5310 C.2   152  TYR152      0.2437
     52  O         -4.5330   48.9880   22.5860 O.2   152  TYR152     -0.2733
     53  CB        -6.8580   50.1560   20.7560 C.3   152  TYR152      0.0547
     54  CG        -8.3250   50.4180   20.4780 C.ar  152  TYR152     -0.0200
     55  CD1       -8.9010   50.0530   19.2650 C.ar  152  TYR152     -0.0009
     56  CD2       -9.1290   51.0490   21.4140 C.ar  152  TYR152     -0.0009
     57  CE1      -10.2510   50.2910   19.0000 C.ar  152  TYR152      0.0417
     58  CE2      -10.4740   51.3100   21.1530 C.ar  152  TYR152      0.0417
     59  CZ       -11.0350   50.9190   19.9470 C.ar  152  TYR152      0.1957
     60  OH       -12.3700   51.1310   19.6860 O.3   152  TYR152     -0.2866
     61  N         -4.2830   47.9900   20.5630 N.am  153  PRO153     -0.2729
     62  CA        -2.8190   47.8960   20.7510 C.3   153  PRO153      0.1401
     63  C         -2.1680   49.2820   20.6310 C.2   153  PRO153      0.2269
     64  O         -2.8030   50.2030   20.1270 O.2   153  PRO153     -0.2865
     65  CB        -2.3870   46.9820   19.5960 C.3   153  PRO153      0.0296
     66  CG        -3.3880   47.2250   18.5420 C.3   153  PRO153      0.0237
     67  CD        -4.6890   47.4890   19.2310 C.3   153  PRO153      0.0939
     68  N         -1.4340   51.7700   22.7160 N.3   155  VAL155     -0.1245
     69  CA        -1.8340   52.8040   23.7000 C.3   155  VAL155      0.1561
     70  C         -2.1800   52.1450   25.0700 C.2   155  VAL155      0.2260
     71  O         -3.1860   52.4940   25.6920 O.2   155  VAL155     -0.2867
     72  CB        -2.9720   53.7650   23.2080 C.3   155  VAL155      0.0252
     73  CG1       -2.4500   54.8140   22.2230 C.3   155  VAL155      0.0019
     74  CG2       -4.1920   53.0100   22.6510 C.3   155  VAL155      0.0019
     75  N         -2.0360   54.6840   28.0710 N.3   158  TYR158     -0.1241
     76  CA        -3.1440   55.5800   27.8050 C.3   158  TYR158      0.1605
     77  C         -4.4600   54.8940   28.1420 C.2   158  TYR158      0.2264
     78  O         -5.2210   55.4420   28.9270 O.2   158  TYR158     -0.2867
     79  CB        -3.0800   56.0130   26.3390 C.3   158  TYR158      0.0534
     80  CG        -4.2190   56.9040   25.8810 C.ar  158  TYR158     -0.0201
     81  CD1       -4.2340   58.2630   26.1830 C.ar  158  TYR158     -0.0009
     82  CD2       -5.2370   56.4050   25.0740 C.ar  158  TYR158     -0.0009
     83  CE1       -5.2630   59.0880   25.7460 C.ar  158  TYR158      0.0417
     84  CE2       -6.2640   57.2220   24.6240 C.ar  158  TYR158      0.0417
     85  CZ        -6.2640   58.5680   24.9480 C.ar  158  TYR158      0.1957
     86  OH        -7.2330   59.3930   24.4440 O.3   158  TYR158     -0.2866
     87  N        -14.8830   59.3370   23.3800 N.3   190  LEU190     -0.1231
     88  CA       -14.6160   59.8450   22.0360 C.3   190  LEU190      0.1693
     89  C        -13.8360   58.9110   21.1690 C.2   190  LEU190      0.2593
     90  O        -12.9110   58.2650   21.6300 O.2   190  LEU190     -0.2718
     91  CB       -13.8130   61.1600   22.1210 C.3   190  LEU190      0.0284
     92  CG       -14.1820   62.2110   23.1510 C.3   190  LEU190      0.0019
     93  CD1      -13.1960   63.3200   23.0970 C.3   190  LEU190      0.0001
     94  CD2      -15.5880   62.7470   22.9080 C.3   190  LEU190      0.0001
     95  N        -14.1580   58.9310   19.8900 N.am  191  GLY191     -0.1942
     96  CA       -13.4200   58.2270   18.8520 C.3   191  GLY191      0.2014
     97  C        -12.2990   59.1460   18.3820 C.2   191  GLY191      0.2638
     98  O        -12.0480   60.1800   19.0140 O.2   191  GLY191     -0.2714
     99  N        -11.6330   58.8100   17.3010 N.am  192  LEU192     -0.1977
    100  CA       -10.5760   59.6560   16.8150 C.3   192  LEU192      0.1596
    101  C        -11.1410   60.9750   16.3840 C.2   192  LEU192      0.2287
    102  O        -12.1640   61.0280   15.7530 O.2   192  LEU192     -0.2864
    103  CB        -9.9020   58.9960   15.6470 C.3   192  LEU192      0.0297
    104  CG        -8.6030   59.6230   15.2370 C.3   192  LEU192      0.0022
    105  CD1       -7.5530   59.2880   16.2560 C.3   192  LEU192      0.0001
    106  CD2       -8.2170   59.1140   13.8780 C.3   192  LEU192      0.0001
    107  N         -2.4840   67.0810   17.2850 N.3   197  THR197     -0.1203
    108  CA        -1.8640   65.9890   18.0450 C.3   197  THR197      0.1994
    109  C         -2.2280   64.5990   17.5060 C.2   197  THR197      0.2617
    110  O         -1.3260   63.7780   17.2940 O.2   197  THR197     -0.2717
    111  CB        -2.2370   66.1310   19.5280 C.3   197  THR197      0.1784
    112  OG1       -1.7700   67.3910   19.9780 O.3   197  THR197     -0.2211
    113  CG2       -1.6510   65.0450   20.4120 C.3   197  THR197      0.0376
    114  N         -3.5380   64.3260   17.3130 N.am  198  ALA198     -0.1979
    115  CA        -4.0260   63.0270   16.8350 C.3   198  ALA198      0.1597
    116  C         -3.6540   62.7940   15.4010 C.2   198  ALA198      0.2287
    117  O         -3.1860   61.7230   15.0540 O.2   198  ALA198     -0.2864
    118  CB        -5.5360   62.9560   16.9800 C.3   198  ALA198      0.0319
    119  N         -0.1810   61.8710   15.0820 N.3   201  ALA201     -0.1231
    120  CA        -0.0160   60.5330   15.6540 C.3   201  ALA201      0.1694
    121  C         -0.4350   59.4440   14.6800 C.2   201  ALA201      0.2591
    122  O          0.1010   58.3360   14.7120 O.2   201  ALA201     -0.2718
    123  CB        -0.8310   60.4220   16.9370 C.3   201  ALA201      0.0304
    124  N         -1.3830   59.7870   13.8130 N.am  202  VAL202     -0.1980
    125  CA        -2.0520   58.9180   12.8510 C.3   202  VAL202      0.1595
    126  C         -1.5880   59.0870   11.3650 C.2   202  VAL202      0.2287
    127  O         -1.9900   58.3030   10.5040 O.2   202  VAL202     -0.2864
    128  CB        -3.5740   59.1020   13.0910 C.3   202  VAL202      0.0276
    129  CG1       -4.4260   58.7600   11.8720 C.3   202  VAL202      0.0022
    130  CG2       -4.0180   58.3150   14.3140 C.3   202  VAL202      0.0022
    131  N         -6.8040   54.7600    6.1770 N.3   207  HIS207     -0.1226
    132  CA        -8.0880   54.1140    6.3930 C.3   207  HIS207      0.1752
    133  C         -8.7540   54.5740    7.6760 C.2   207  HIS207      0.2596
    134  O         -9.9630   54.3790    7.8310 O.2   207  HIS207     -0.2718
    135  CB        -7.8960   52.6040    6.3780 C.3   207  HIS207      0.0759
    136  CG        -7.8990   52.0410    4.9940 C.ar  207  HIS207      0.0818
    137  ND1       -6.8270   52.2270    4.1340 N.ar  207  HIS207     -0.2268
    138  CD2       -8.8560   51.3260    4.3510 C.ar  207  HIS207      0.1154
    139  CE1       -7.1570   51.6100    3.0070 C.ar  207  HIS207      0.1986
    140  NE2       -8.3700   51.0540    3.0870 N.ar  207  HIS207     -0.2212
    141  N         -7.9540   55.1680    8.6110 N.am  208  MET208     -0.1965
    142  CA        -8.3770   55.7180    9.9130 C.3   208  MET208      0.1736
    143  C         -8.9640   57.0850    9.6370 C.2   208  MET208      0.2616
    144  O         -8.3270   57.9110    8.9800 O.2   208  MET208     -0.2715
    145  CB        -7.1890   55.8010   10.8770 C.3   208  MET208      0.0427
    146  CG        -7.5630   55.6340   12.3040 C.3   208  MET208      0.0599
    147  SD        -6.1300   55.4340   13.3790 S.3   208  MET208     -0.1393
    148  CE        -6.0830   53.6460   13.5450 C.3   208  MET208      0.0692
    149  N        -10.2180   57.2900   10.0340 N.am  209  GLN209     -0.1977
    150  CA       -10.9530   58.5110    9.7090 C.3   209  GLN209      0.1601
    151  C        -11.4520   59.3220   10.8960 C.2   209  GLN209      0.2287
    152  O        -12.3650   58.8900   11.5930 O.2   209  GLN209     -0.2864
    153  CB       -12.0620   58.1770    8.7120 C.3   209  GLN209      0.0394
    154  CG       -11.4600   57.8270    7.3290 C.3   209  GLN209      0.0908
    155  CD       -12.3990   57.1790    6.3430 C.2   209  GLN209      0.2608
    156  OE1      -13.5760   56.8990    6.6420 O.2   209  GLN209     -0.2717
    157  NE2      -11.8840   56.9580    5.1220 N.am  209  GLN209     -0.0878
    158  N        -17.9820   59.2040   17.7920 N.3   234  ASP234     -0.1239
    159  CA       -17.0900   58.5730   16.8030 C.3   234  ASP234      0.1674
    160  C        -17.6390   58.9280   15.4380 C.2   234  ASP234      0.2266
    161  O        -18.8100   59.3080   15.3420 O.2   234  ASP234     -0.2867
    162  CB       -17.0220   57.0390   16.9700 C.3   234  ASP234      0.1410
    163  CG       -15.9420   56.3490   16.1380 C.2   234  ASP234      0.3668
    164  OD1      -14.7760   56.3120   16.5810 O.co2 234  ASP234     -0.2456
    165  OD2      -16.2600   55.8660   15.0500 O.co2 234  ASP234     -0.2456
    166  N        -19.7370   52.0480   15.3710 N.3   239  THR239     -0.1218
    167  CA       -19.1680   52.2330   16.6920 C.3   239  THR239      0.1862
    168  C        -20.1690   52.7980   17.6960 C.2   239  THR239      0.2287
    169  O        -20.3550   52.2180   18.7660 O.2   239  THR239     -0.2866
    170  CB       -17.8680   53.0080   16.5780 C.3   239  THR239      0.1770
    171  OG1      -17.0350   52.3010   15.6610 O.3   239  THR239     -0.2211
    172  CG2      -17.1550   53.1280   17.8910 C.3   239  THR239      0.0375
@<TRIPOS>BOND
     1   139   140   ar
     2   139   137   ar
     3   140   138   ar
     4   137   136   ar
     5   138   136   ar
     6   136   135    1
     7   157   155   am
     8   131   132    1
     9   155   156    2
    10   155   154    1
    11   135   132    1
    12   132   133    1
    13   154   153    1
    14   133   134    2
    15   133   141   am
    16   141   142    1
    17   153   150    1
    18   144   143    2
    19   143   142    1
    20   143   149   am
    21   150   149    1
    22   150   151    1
    23   142   145    1
    24   127   126    2
    25   145   146    1
    26   151   152    2
    27   126   125    1
    28   129   128    1
    29   146   147    1
    30   125   128    1
    31   125   124    1
    32   128   130    1
    33   147   148    1
    34   124   121   am
    35   106   104    1
    36   121   122    2
    37   121   120    1
    38   165   163   ar
    39   117   116    2
    40   119   120    1
    41   104   103    1
    42   104   105    1
    43   161   160    2
    44   166   167    1
    45   116   115    1
    46   160   159    1
    47   103   100    1
    48   120   123    1
    49   171   170    1
    50   102   101    2
    51   163   164   ar
    52   163   162    1
    53    28    27    1
    54   101   100    1
    55   170   167    1
    56   170   172    1
    57   167   168    1
    58   159   162    1
    59   159   158    1
    60   100    99    1
    61   115   118    1
    62   115   114    1
    63   107   108    1
    64   110   109    2
    65    99    97   am
    66   114   109   am
    67   109   108    1
    68    27    26    1
    69    27    29    1
    70   168   169    2
    71    26    23    1
    72   108   111    1
    73    97    96    1
    74    97    98    2
    75    25    24    2
    76    66    67    1
    77    66    65    1
    78    96    95    1
    79    57    55   ar
    80    57    59   ar
    81    23    24    1
    82    23    22    1
    83    43    41    1
    84    67    61    1
    85    55    54   ar
    86    22    18   am
    87   111   112    1
    88   111   113    1
    89    65    62    1
    90    60    59    1
    91    95    89   am
    92    59    58   ar
    93    64    63    2
    94    20    17    1
    95    20    21    1
    96    54    53    1
    97    54    56   ar
    98    61    62    1
    99    61    51   am
   100    18    17    1
   101    18    19    2
   102    41    42    1
   103    41    40    1
   104    63    62    1
   105    17    16    1
   106    53    50    1
   107    58    56   ar
   108    89    90    2
   109    89    88    1
   110    50    51    1
   111    50    49    1
   112    40    37    1
   113    51    52    2
   114    12    11    2
   115    88    91    1
   116    88    87    1
   117    16    11   am
   118    91    92    1
   119    73    72    1
   120    11    10    1
   121    74    72    1
   122    68    69    1
   123    94    92    1
   124    37    36    1
   125    37    38    1
   126    93    92    1
   127    72    69    1
   128    35    34    1
   129    36    32   am
   130    44    38   am
   131    44    45    1
   132    38    39    2
   133    69    70    1
   134    48    45    1
   135    10     9    1
   136    10    13    1
   137    45    46    1
   138    15    13    1
   139    86    85    1
   140    34    31    1
   141    32    31    1
   142    32    33    2
   143    13    14    1
   144    84    85   ar
   145    84    82   ar
   146    31    30    1
   147    85    83   ar
   148    70    71    2
   149    82    80   ar
   150     8     6    1
   151    83    81   ar
   152    46    47    2
   153    80    81   ar
   154    80    79    1
   155    79    76    1
   156     6     5    1
   157    76    75    1
   158    76    77    1
   159     5     7    1
   160     5     2    1
   161    77    78    2
   162     4     3    2
   163     3     2    1
   164     2     1    1
