@<TRIPOS>MOLECULE
tmp/4p3hA00.pdb
 130 124 0 0 0
SMALL
GASTEIGER

@<TRIPOS>ATOM
      1  N        -23.2480  -16.1310  -34.4890 N.3    41  ILE41      -0.1231
      2  CA       -24.2200  -15.5590  -35.4170 C.3    41  ILE41       0.1692
      3  C        -25.5360  -15.3340  -34.6810 C.2    41  ILE41       0.2591
      4  O        -26.1010  -16.2790  -34.0960 O.2    41  ILE41      -0.2718
      5  CB       -24.4600  -16.4930  -36.6220 C.3    41  ILE41       0.0266
      6  CG1      -23.1390  -16.7300  -37.3780 C.3    41  ILE41       0.0019
      7  CG2      -25.5590  -15.9230  -37.5530 C.3    41  ILE41       0.0020
      8  CD1      -23.2470  -17.7690  -38.5000 C.3    41  ILE41       0.0001
      9  N        -26.0360  -14.0910  -34.6620 N.am   42  GLU42      -0.1979
     10  CA       -27.3720  -13.7770  -34.1140 C.3    42  GLU42       0.1602
     11  C        -27.5400  -14.2580  -32.6740 C.2    42  GLU42       0.2287
     12  O        -28.6230  -14.6280  -32.2440 O.2    42  GLU42      -0.2864
     13  CB       -28.4390  -14.3520  -35.0370 C.3    42  GLU42       0.0415
     14  CG       -28.6970  -13.4680  -36.2210 C.3    42  GLU42       0.1163
     15  CD       -29.3330  -12.1190  -35.8620 C.2    42  GLU42       0.3649
     16  OE1      -29.7220  -11.9080  -34.6680 O.co2  42  GLU42      -0.2457
     17  OE2      -29.4310  -11.2370  -36.7100 O.co2  42  GLU42      -0.2457
     18  N        -23.3080  -21.3950  -32.7940 N.3    47  THR47      -0.1218
     19  CA       -22.8140  -20.8930  -34.0840 C.3    47  THR47       0.1862
     20  C        -21.4910  -20.0980  -33.9450 C.2    47  THR47       0.2287
     21  O        -21.2800  -19.1350  -34.6860 O.2    47  THR47      -0.2866
     22  CB       -23.8620  -20.0140  -34.7940 C.3    47  THR47       0.1770
     23  OG1      -24.1010  -18.8170  -34.0490 O.3    47  THR47      -0.2211
     24  CG2      -25.1750  -20.7970  -35.0400 C.3    47  THR47       0.0375
     25  N        -17.3730  -23.2650  -41.2020 N.3    73  PHE73      -0.1241
     26  CA       -18.0580  -22.0600  -41.6220 C.3    73  PHE73       0.1605
     27  C        -17.4280  -21.5000  -42.8930 C.2    73  PHE73       0.2264
     28  O        -18.1400  -21.1640  -43.8400 O.2    73  PHE73      -0.2867
     29  CB       -18.0780  -20.9830  -40.5100 C.3    73  PHE73       0.0534
     30  CG       -18.7340  -19.6910  -40.9590 C.ar   73  PHE73      -0.0203
     31  CD1      -20.1180  -19.5850  -41.0530 C.ar   73  PHE73      -0.0042
     32  CD2      -17.9680  -18.6000  -41.3240 C.ar   73  PHE73      -0.0042
     33  CE1      -20.7010  -18.4180  -41.5100 C.ar   73  PHE73      -0.0003
     34  CE2      -18.5540  -17.4330  -41.7750 C.ar   73  PHE73      -0.0003
     35  CZ       -19.9330  -17.3510  -41.8670 C.ar   73  PHE73      -0.0000
     36  N        -18.2870  -23.6430  -45.9250 N.3    76  LEU76      -0.1231
     37  CA       -19.6960  -23.5840  -46.2710 C.3    76  LEU76       0.1693
     38  C        -20.0160  -22.2350  -46.9020 C.2    76  LEU76       0.2591
     39  O        -20.6420  -22.1700  -47.9930 O.2    76  LEU76      -0.2718
     40  CB       -20.5820  -23.8310  -45.0160 C.3    76  LEU76       0.0284
     41  CG       -22.0790  -23.6350  -45.2660 C.3    76  LEU76       0.0019
     42  CD1      -22.6020  -24.5630  -46.3410 C.3    76  LEU76       0.0001
     43  CD2      -22.8250  -23.8460  -43.9850 C.3    76  LEU76       0.0001
     44  N        -19.6030  -21.1460  -46.2760 N.am   77  ALA77      -0.1980
     45  CA       -19.9070  -19.7980  -46.7360 C.3    77  ALA77       0.1597
     46  C        -19.3020  -19.5880  -48.1450 C.2    77  ALA77       0.2287
     47  O        -19.9400  -19.0080  -49.0100 O.2    77  ALA77      -0.2864
     48  CB       -19.3420  -18.7780  -45.7690 C.3    77  ALA77       0.0319
     49  N        -21.3800  -21.4240  -50.6870 N.3    80  LEU80      -0.1245
     50  CA       -22.6330  -20.7340  -50.9620 C.3    80  LEU80       0.1561
     51  C        -22.3870  -19.4920  -51.7950 C.2    80  LEU80       0.2260
     52  O        -23.1900  -19.1660  -52.6890 O.2    80  LEU80      -0.2867
     53  CB       -23.3740  -20.3680  -49.6540 C.3    80  LEU80       0.0270
     54  CG       -23.8040  -21.5710  -48.8070 C.3    80  LEU80       0.0019
     55  CD1      -24.5420  -21.0920  -47.5290 C.3    80  LEU80       0.0001
     56  CD2      -24.6900  -22.5630  -49.4840 C.3    80  LEU80       0.0001
     57  N        -28.0460  -16.5780  -51.8960 N.3    87  ALA87      -0.1245
     58  CA       -26.9930  -15.8090  -51.2420 C.3    87  ALA87       0.1562
     59  C        -26.5800  -14.6290  -52.1260 C.2    87  ALA87       0.2260
     60  O        -26.2720  -13.5460  -51.6310 O.2    87  ALA87      -0.2867
     61  CB       -25.7860  -16.7060  -51.0000 C.3    87  ALA87       0.0290
     62  N        -20.9590  -11.2350  -49.7790 N.3   102  ILE102     -0.1231
     63  CA       -22.1040  -11.9240  -49.2120 C.3   102  ILE102      0.1692
     64  C        -22.1340  -11.7370  -47.7080 C.2   102  ILE102      0.2591
     65  O        -23.2010  -11.5000  -47.1450 O.2   102  ILE102     -0.2718
     66  CB       -22.1000  -13.3880  -49.6390 C.3   102  ILE102      0.0266
     67  CG1      -22.6560  -13.4600  -51.0640 C.3   102  ILE102      0.0019
     68  CG2      -22.9060  -14.2500  -48.7130 C.3   102  ILE102      0.0020
     69  CD1      -22.3370  -14.6980  -51.7650 C.3   102  ILE102      0.0001
     70  N        -20.9780  -11.8370  -47.0490 N.am  103  LEU103     -0.1980
     71  CA       -20.9390  -11.6360  -45.6120 C.3   103  LEU103      0.1596
     72  C        -21.3070  -10.1910  -45.2540 C.2   103  LEU103      0.2287
     73  O        -22.0890   -9.9660  -44.3200 O.2   103  LEU103     -0.2864
     74  CB       -19.5760  -12.0270  -45.0330 C.3   103  LEU103      0.0297
     75  CG       -19.2600  -13.5170  -45.1250 C.3   103  LEU103      0.0022
     76  CD1      -17.8320  -13.7940  -44.7160 C.3   103  LEU103      0.0001
     77  CD2      -20.1950  -14.3510  -44.2510 C.3   103  LEU103      0.0001
     78  N        -25.2590   -9.9540  -45.9140 N.3   106  TRP106     -0.1227
     79  CA       -26.1620  -10.7640  -45.0810 C.3   106  TRP106      0.1737
     80  C        -25.9480  -10.6110  -43.5780 C.2   106  TRP106      0.2595
     81  O        -26.9070  -10.8060  -42.8090 O.2   106  TRP106     -0.2718
     82  CB       -26.0590  -12.2400  -45.4510 C.3   106  TRP106      0.0564
     83  CG       -26.7210  -12.5680  -46.7470 C.ar  106  TRP106      0.0003
     84  CD1      -26.1570  -12.5240  -47.9960 C.ar  106  TRP106      0.0946
     85  CD2      -28.0540  -13.0320  -46.9290 C.ar  106  TRP106      0.0152
     86  NE1      -27.0670  -12.9140  -48.9200 N.ar  106  TRP106     -0.2442
     87  CE2      -28.2570  -13.2170  -48.3050 C.ar  106  TRP106      0.0810
     88  CE3      -29.1310  -13.2830  -46.0530 C.ar  106  TRP106      0.0012
     89  CZ2      -29.4490  -13.6650  -48.8150 C.ar  106  TRP106      0.0191
     90  CZ3      -30.2860  -13.7020  -46.5560 C.ar  106  TRP106      0.0001
     91  CH2      -30.4690  -13.8920  -47.9180 C.ar  106  TRP106      0.0015
     92  N        -24.7230  -10.2860  -43.1650 N.am  107  LEU107     -0.1980
     93  CA       -24.3700  -10.1500  -41.7400 C.3   107  LEU107      0.1596
     94  C        -23.6860   -8.7820  -41.5360 C.2   107  LEU107      0.2287
     95  O        -22.4870   -8.6900  -41.2260 O.2   107  LEU107     -0.2864
     96  CB       -23.4750  -11.3110  -41.3240 C.3   107  LEU107      0.0297
     97  CG       -24.1240  -12.6940  -41.2840 C.3   107  LEU107      0.0022
     98  CD1      -23.1070  -13.7870  -41.0620 C.3   107  LEU107      0.0001
     99  CD2      -25.2620  -12.7610  -40.2720 C.3   107  LEU107      0.0001
    100  N        -27.9430  -10.2010  -38.7470 N.3   136  ALA136     -0.1245
    101  CA       -28.7260   -9.8050  -39.8850 C.3   136  ALA136      0.1562
    102  C        -29.6800   -8.6600  -39.5490 C.2   136  ALA136      0.2260
    103  O        -30.0280   -7.8710  -40.4060 O.2   136  ALA136     -0.2867
    104  CB       -29.4970  -10.9890  -40.3630 C.3   136  ALA136      0.0290
    105  N        -18.9950  -24.0640  -34.5120 N.3   186  PHE186     -0.1241
    106  CA       -19.9500  -24.1420  -35.6340 C.3   186  PHE186      0.1605
    107  C        -19.8570  -25.4980  -36.3490 C.2   186  PHE186      0.2264
    108  O        -18.7680  -26.0010  -36.6490 O.2   186  PHE186     -0.2867
    109  CB       -19.7090  -23.0300  -36.6260 C.3   186  PHE186      0.0534
    110  CG       -20.6100  -23.0780  -37.8420 C.ar  186  PHE186     -0.0203
    111  CD1      -21.8480  -22.4810  -37.7960 C.ar  186  PHE186     -0.0042
    112  CD2      -20.2190  -23.6990  -39.0190 C.ar  186  PHE186     -0.0042
    113  CE1      -22.6980  -22.5080  -38.8940 C.ar  186  PHE186     -0.0003
    114  CE2      -21.0500  -23.7020  -40.1280 C.ar  186  PHE186     -0.0003
    115  CZ       -22.2790  -23.1120  -40.0650 C.ar  186  PHE186     -0.0000
    116  N        -24.5110  -27.5570  -41.4510 N.3   189  PRO189     -0.2102
    117  CA       -25.7170  -28.3730  -41.5440 C.3   189  PRO189      0.1504
    118  C        -25.7720  -29.1780  -42.8440 C.2   189  PRO189      0.2575
    119  O        -26.6880  -29.9810  -43.0160 O.2   189  PRO189     -0.2718
    120  CB       -26.8280  -27.3230  -41.5270 C.3   189  PRO189      0.0282
    121  CG       -26.2170  -26.1310  -42.1670 C.3   189  PRO189      0.0208
    122  CD       -24.8040  -26.1320  -41.6470 C.3   189  PRO189      0.0893
    123  N        -24.8090  -28.9500  -43.7390 N.am  190  LEU190     -0.1980
    124  CA       -24.7060  -29.6770  -45.0060 C.3   190  LEU190      0.1596
    125  C        -23.8350  -30.9270  -44.8980 C.2   190  LEU190      0.2287
    126  O        -23.2110  -31.1790  -43.8680 O.2   190  LEU190     -0.2864
    127  CB       -24.1450  -28.7590  -46.0990 C.3   190  LEU190      0.0297
    128  CG       -25.1850  -27.9200  -46.8440 C.3   190  LEU190      0.0022
    129  CD1      -25.9100  -26.9750  -45.9070 C.3   190  LEU190      0.0001
    130  CD2      -24.5350  -27.1530  -47.9860 C.3   190  LEU190      0.0001
@<TRIPOS>BOND
     1    52    51    2
     2    59    60    2
     3    59    58    1
     4    57    58    1
     5    51    50    1
     6    69    67    1
     7    58    61    1
     8    67    66    1
     9    50    49    1
    10    50    53    1
    11    62    63    1
    12    53    54    1
    13    66    63    1
    14    66    68    1
    15    56    54    1
    16    63    64    1
    17    47    46    2
    18    86    87   ar
    19    86    84   ar
    20    89    87   ar
    21    89    91   ar
    22    54    55    1
    23    87    85   ar
    24    46    45    1
    25    84    83   ar
    26    39    38    2
    27   130   128    1
    28    91    90   ar
    29    64    65    2
    30    64    70   am
    31    70    71    1
    32    85    83   ar
    33    85    88   ar
    34    38    44   am
    35    38    37    1
    36   128   127    1
    37   128   129    1
    38    83    82    1
    39    45    44    1
    40    45    48    1
    41    90    88   ar
    42    42    41    1
    43    37    36    1
    44    37    40    1
    45   127   124    1
    46    78    79    1
    47    71    72    1
    48    71    74    1
    49    82    79    1
    50    41    40    1
    51    41    43    1
    52    72    73    2
    53    75    74    1
    54    75    76    1
    55    75    77    1
    56    79    80    1
    57   124   125    1
    58   124   123    1
    59   125   126    2
    60    28    27    2
    61   123   118   am
    62    80    92   am
    63    80    81    2
    64    92    93    1
    65   119   118    2
    66    27    26    1
    67   118   117    1
    68   121   122    1
    69   121   120    1
    70    35    34   ar
    71    35    33   ar
    72    34    32   ar
    73    93    94    1
    74    93    96    1
    75   122   116    1
    76    26    25    1
    77    26    29    1
    78   117   120    1
    79   117   116    1
    80    94    95    2
    81    33    31   ar
    82    32    30   ar
    83    96    97    1
    84    97    98    1
    85    97    99    1
    86    31    30   ar
    87    30    29    1
    88   103   102    2
    89   104   101    1
    90   114   115   ar
    91   114   112   ar
    92   115   113   ar
    93   101   102    1
    94   101   100    1
    95   112   110   ar
    96   113   111   ar
    97     8     6    1
    98   110   111   ar
    99   110   109    1
   100     7     5    1
   101     6     5    1
   102    17    15   ar
   103   108   107    2
   104   109   106    1
   105     5     2    1
   106   107   106    1
   107    14    15    1
   108    14    13    1
   109    15    16   ar
   110   106   105    1
   111     2     3    1
   112     2     1    1
   113    24    22    1
   114    13    10    1
   115    22    19    1
   116    22    23    1
   117    21    20    2
   118     3     9   am
   119     3     4    2
   120     9    10    1
   121    10    11    1
   122    19    20    1
   123    19    18    1
   124    11    12    2
