@<TRIPOS>MOLECULE
tmp/4p3iC00.pdb
 110 105 0 0 0
SMALL
GASTEIGER

@<TRIPOS>ATOM
      1  N         94.2760   59.0460   20.3260 N.3    99  ASP99      -0.1239
      2  CA        95.4330   58.1850   20.0850 C.3    99  ASP99       0.1674
      3  C         94.9590   56.7900   19.6520 C.2    99  ASP99       0.2266
      4  O         93.9620   56.2670   20.1760 O.2    99  ASP99      -0.2867
      5  CB        96.3020   58.0540   21.3430 C.3    99  ASP99       0.1410
      6  CG        97.2900   59.2080   21.5180 C.2    99  ASP99       0.3668
      7  OD1       97.1150   60.2800   20.8990 O.co2  99  ASP99      -0.2456
      8  OD2       98.2440   59.0410   22.3100 O.co2  99  ASP99      -0.2456
      9  N         96.2270   52.6980   19.0790 N.3   101  HIS101     -0.1241
     10  CA        97.1940   51.6950   19.4690 C.3   101  HIS101      0.1621
     11  C         96.9610   50.5090   18.5590 C.2   101  HIS101      0.2264
     12  O         95.9280   49.8470   18.6450 O.2   101  HIS101     -0.2867
     13  CB        97.0170   51.3710   20.9500 C.3   101  HIS101      0.0745
     14  CG        97.0720   52.5960   21.8020 C.ar  101  HIS101      0.0817
     15  ND1       98.2620   53.1890   22.1610 N.ar  101  HIS101     -0.2268
     16  CD2       96.0890   53.3980   22.2770 C.ar  101  HIS101      0.1154
     17  CE1       98.0100   54.2800   22.8620 C.ar  101  HIS101      0.1986
     18  NE2       96.7000   54.4290   22.9470 N.ar  101  HIS101     -0.2212
     19  N        103.2320   47.0520   19.2450 N.3   118  ARG118     -0.1245
     20  CA       102.1220   47.9760   19.4060 C.3   118  ARG118      0.1563
     21  C        102.5740   49.3520   18.9400 C.2   118  ARG118      0.2260
     22  O        103.4840   49.9300   19.5190 O.2   118  ARG118     -0.2867
     23  CB       101.6690   48.0510   20.8670 C.3   118  ARG118      0.0307
     24  CG       100.2470   48.6090   21.0250 C.3   118  ARG118      0.0489
     25  CD        99.8800   48.8900   22.4880 C.3   118  ARG118      0.2205
     26  NE       100.6060   50.0330   23.0330 N.pl3 118  ARG118     -0.0865
     27  CZ       100.7810   50.2480   24.3350 C.cat 118  ARG118      0.5346
     28  NH1      100.2800   49.3930   25.2170 N.pl3 118  ARG118      0.1354
     29  NH2      101.4590   51.3070   24.7580 N.pl3 118  ARG118      0.1354
     30  N        101.9220   53.1730   18.6820 N.3   120  ASP120     -0.1239
     31  CA       101.1290   54.1890   19.3460 C.3   120  ASP120      0.1674
     32  C        101.1480   55.4590   18.5130 C.2   120  ASP120      0.2266
     33  O        102.1940   56.0720   18.3120 O.2   120  ASP120     -0.2867
     34  CB       101.6530   54.4050   20.7630 C.3   120  ASP120      0.1410
     35  CG       101.6910   53.1120   21.5490 C.2   120  ASP120      0.3668
     36  OD1      100.7070   52.3420   21.4530 O.co2 120  ASP120     -0.2456
     37  OD2      102.7030   52.8400   22.2320 O.co2 120  ASP120     -0.2456
     38  N         99.5990   59.1980   17.4050 N.3   122  LYS122     -0.1245
     39  CA        98.8720   60.4120   17.7430 C.3   122  LYS122      0.1561
     40  C         98.3390   61.0930   16.4810 C.2   122  LYS122      0.2260
     41  O         99.0040   61.1170   15.4490 O.2   122  LYS122     -0.2867
     42  CB        99.7980   61.3850   18.4790 C.3   122  LYS122      0.0271
     43  CG       100.4420   60.8100   19.7360 C.3   122  LYS122      0.0035
     44  CD       100.9320   61.9220   20.6670 C.3   122  LYS122      0.0206
     45  CE        99.7730   62.6970   21.3050 C.3   122  LYS122      0.1093
     46  NZ        98.9980   61.9080   22.3070 N.3   122  LYS122     -0.1314
     47  N        105.1120   55.9940   18.1500 N.3   137  THR137     -0.1218
     48  CA       106.1050   55.5700   19.1230 C.3   137  THR137      0.1862
     49  C        105.7850   54.1240   19.4340 C.2   137  THR137      0.2287
     50  O        104.6680   53.6720   19.2100 O.2   137  THR137     -0.2866
     51  CB       106.0950   56.4140   20.4190 C.3   137  THR137      0.1770
     52  OG1      104.7910   56.3980   21.0120 O.3   137  THR137     -0.2211
     53  CG2      106.5160   57.8450   20.1220 C.3   137  THR137      0.0375
     54  N         93.0430   49.3710   20.2600 N.3   152  TRP152     -0.1241
     55  CA        92.2820   50.2160   21.1780 C.3   152  TRP152      0.1605
     56  C         92.6190   51.6770   20.9370 C.2   152  TRP152      0.2264
     57  O         93.5730   51.9910   20.2280 O.2   152  TRP152     -0.2867
     58  CB        92.5240   49.8400   22.6550 C.3   152  TRP152      0.0550
     59  CG        93.9750   49.8140   23.1440 C.ar  152  TRP152      0.0003
     60  CD1       94.9260   48.8770   22.8510 C.ar  152  TRP152      0.0946
     61  CD2       94.5960   50.7430   24.0470 C.ar  152  TRP152      0.0152
     62  NE1       96.1050   49.1720   23.5030 N.ar  152  TRP152     -0.2442
     63  CE2       95.9280   50.3100   24.2470 C.ar  152  TRP152      0.0810
     64  CE3       94.1580   51.9020   24.7040 C.ar  152  TRP152      0.0012
     65  CZ2       96.8200   50.9950   25.0680 C.ar  152  TRP152      0.0191
     66  CZ3       95.0510   52.5770   25.5230 C.ar  152  TRP152      0.0001
     67  CH2       96.3630   52.1220   25.6950 C.ar  152  TRP152      0.0015
     68  N         92.6000   55.8410   22.8450 N.3   154  SER154     -0.1203
     69  CA        92.7170   56.5440   24.1200 C.3   154  SER154      0.2005
     70  C         92.7770   58.0570   23.8700 C.2   154  SER154      0.2461
     71  O         92.9340   58.4760   22.7200 O.2   154  SER154     -0.2732
     72  CB        93.9600   56.0540   24.8740 C.3   154  SER154      0.2103
     73  OG        95.1430   56.3420   24.1500 O.3   154  SER154     -0.2182
     74  N         92.6420   58.8780   24.9320 N.am  155  PRO155     -0.2717
     75  CA        92.6030   60.3310   24.7110 C.3   155  PRO155      0.1536
     76  C         93.8710   60.9060   24.0860 C.2   155  PRO155      0.2599
     77  O         94.9730   60.4430   24.3750 O.2   155  PRO155     -0.2715
     78  CB        92.4190   60.8890   26.1310 C.3   155  PRO155      0.0310
     79  CG        91.7210   59.8000   26.8670 C.3   155  PRO155      0.0237
     80  CD        92.3440   58.5400   26.3400 C.3   155  PRO155      0.0939
     81  N         93.7010   61.9210   23.2400 N.am  156  SER156     -0.1936
     82  CA        94.8340   62.6190   22.6220 C.3   156  SER156      0.2055
     83  C         95.6840   63.3620   23.6370 C.2   156  SER156      0.2644
     84  O         96.9070   63.4290   23.5130 O.2   156  SER156     -0.2714
     85  CB        94.3240   63.6110   21.5740 C.3   156  SER156      0.2130
     86  OG        93.7510   62.9210   20.4800 O.3   156  SER156     -0.2179
     87  N         95.0220   63.9150   24.6480 N.am  157  THR157     -0.1936
     88  CA        95.6990   64.6250   25.7250 C.3   157  THR157      0.2028
     89  C         95.1220   64.2060   27.0740 C.2   157  THR157      0.2643
     90  O         94.0080   63.6880   27.1470 O.2   157  THR157     -0.2714
     91  CB        95.5650   66.1510   25.5690 C.3   157  THR157      0.1808
     92  OG1       94.1810   66.5180   25.5980 O.3   157  THR157     -0.2208
     93  CG2       96.1790   66.6070   24.2540 C.3   157  THR157      0.0379
     94  N         95.9070   64.3670   28.1380 N.am  158  SER158     -0.1935
     95  CA        95.4790   63.9890   29.4800 C.3   158  SER158      0.2055
     96  C         94.1880   64.6950   29.8840 C.2   158  SER158      0.2643
     97  O         94.1670   65.9120   30.0690 O.2   158  SER158     -0.2714
     98  CB        96.5810   64.2890   30.4970 C.3   158  SER158      0.2130
     99  OG        96.2360   63.8020   31.7820 O.3   158  SER158     -0.2179
    100  N         93.0930   63.9870   30.0220 N.am  159  GLY159     -0.1954
    101  CA        91.8120   64.5300   30.4380 C.3   159  GLY159      0.1869
    102  C         90.8200   64.6840   29.3070 C.2   159  GLY159      0.2309
    103  O         89.6390   64.9310   29.5470 O.2   159  GLY159     -0.2863
    104  N         89.2780   54.0260   25.8170 N.3   196  VAL196     -0.1245
    105  CA        89.6590   54.5180   27.1230 C.3   196  VAL196      0.1561
    106  C         89.3390   56.0110   27.2370 C.2   196  VAL196      0.2260
    107  O         88.4290   56.4040   27.9830 O.2   196  VAL196     -0.2867
    108  CB        91.1530   54.2730   27.3890 C.3   196  VAL196      0.0252
    109  CG1       91.5140   54.7480   28.7680 C.3   196  VAL196      0.0019
    110  CG2       91.4720   52.7850   27.2300 C.3   196  VAL196      0.0019
@<TRIPOS>BOND
     1    41    40    2
     2    40    39    1
     3    38    39    1
     4    39    42    1
     5    47    48    1
     6    33    32    2
     7    42    43    1
     8    32    31    1
     9    11    12    2
    10    11    10    1
    11    30    31    1
    12    21    20    1
    13    21    22    2
    14     9    10    1
    15    48    49    1
    16    48    51    1
    17    50    49    2
    18    19    20    1
    19    31    34    1
    20    20    23    1
    21    10    13    1
    22     3     2    1
    23     3     4    2
    24    43    44    1
    25     2     1    1
    26     2     5    1
    27    53    51    1
    28    57    56    2
    29    54    55    1
    30    51    52    1
    31    86    85    1
    32    44    45    1
    33    34    35    1
    34    23    24    1
    35     7     6   ar
    36    56    55    1
    37    13    14    1
    38    24    25    1
    39    55    58    1
    40    45    46    1
    41     5     6    1
    42    36    35   ar
    43     6     8   ar
    44    35    37   ar
    45    85    82    1
    46    14    15   ar
    47    14    16   ar
    48    15    17   ar
    49    16    18   ar
    50    25    26    1
    51    82    81    1
    52    82    83    1
    53    58    59    1
    54    71    70    2
    55    68    69    1
    56    60    59   ar
    57    60    62   ar
    58    17    18   ar
    59    26    27    2
    60    59    61   ar
    61    81    76   am
    62    62    63   ar
    63    84    83    2
    64    83    87   am
    65    70    69    1
    66    70    74   am
    67    61    63   ar
    68    61    64   ar
    69    76    77    2
    70    76    75    1
    71    69    72    1
    72    73    72    1
    73    63    65   ar
    74    93    91    1
    75    27    29    1
    76    27    28    1
    77    87    88    1
    78    64    66   ar
    79    75    74    1
    80    75    78    1
    81    74    80    1
    82    65    67   ar
    83    66    67   ar
    84    91    92    1
    85    91    88    1
    86    88    89    1
    87   104   105    1
    88    78    79    1
    89    80    79    1
    90    89    90    2
    91    89    94   am
    92   105   106    1
    93   105   108    1
    94   110   108    1
    95   106   107    2
    96   108   109    1
    97    94    95    1
    98   102   103    2
    99   102   101    1
   100    95    96    1
   101    95    98    1
   102    96   100   am
   103    96    97    2
   104   100   101    1
   105    98    99    1
