@<TRIPOS>MOLECULE
tmp/4p3lA00.pdb
 141 131 0 0 0
SMALL
GASTEIGER

@<TRIPOS>ATOM
      1  N         54.1560  -50.5400   10.9270 N.3     8  ILE8       -0.1231
      2  CA        53.3590  -50.0980    9.7930 C.3     8  ILE8        0.1692
      3  C         54.0120  -48.9340    9.0640 C.2     8  ILE8        0.2592
      4  O         53.7380  -48.7040    7.8740 O.2     8  ILE8       -0.2718
      5  CB        51.8950  -49.7400   10.2090 C.3     8  ILE8        0.0266
      6  CG1       51.0070  -49.5450    8.9890 C.3     8  ILE8        0.0019
      7  CG2       51.8440  -48.5050   11.0870 C.3     8  ILE8        0.0020
      8  CD1       49.5410  -49.8530    9.2980 C.3     8  ILE8        0.0001
      9  N         54.8700  -48.1980    9.7710 N.am    9  HIS9       -0.1976
     10  CA        55.4730  -46.9900    9.2210 C.3     9  HIS9        0.1656
     11  C         56.7620  -47.2550    8.4470 C.2     9  HIS9        0.2291
     12  O         57.3240  -48.3430    8.5020 O.2     9  HIS9       -0.2864
     13  CB        55.7920  -46.0100   10.3450 C.3     9  HIS9        0.0771
     14  CG        54.6000  -45.6060   11.1350 C.ar    9  HIS9        0.0820
     15  ND1       53.6800  -44.7000   10.6670 N.ar    9  HIS9       -0.2267
     16  CD2       54.1430  -46.0310   12.3350 C.ar    9  HIS9        0.1154
     17  CE1       52.7290  -44.5370   11.5720 C.ar    9  HIS9        0.1986
     18  NE2       52.9830  -45.3410   12.5890 N.ar    9  HIS9       -0.2212
     19  N         60.6900  -43.2720   10.0760 N.3    13  TYR13      -0.1241
     20  CA        59.7050  -42.7120   10.9870 C.3    13  TYR13       0.1605
     21  C         60.2420  -42.8770   12.4260 C.2    13  TYR13       0.2264
     22  O         61.0090  -43.8090   12.6990 O.2    13  TYR13      -0.2867
     23  CB        58.3940  -43.4910   10.8030 C.3    13  TYR13       0.0534
     24  CG        57.1250  -42.8940   11.3810 C.ar   13  TYR13      -0.0201
     25  CD1       56.4300  -41.8990   10.6980 C.ar   13  TYR13      -0.0009
     26  CD2       56.5810  -43.3700   12.5550 C.ar   13  TYR13      -0.0009
     27  CE1       55.2350  -41.3760   11.1950 C.ar   13  TYR13       0.0417
     28  CE2       55.3900  -42.8500   13.0620 C.ar   13  TYR13       0.0417
     29  CZ        54.7320  -41.8450   12.3700 C.ar   13  TYR13       0.1957
     30  OH        53.5540  -41.3480   12.8570 O.3    13  TYR13      -0.2866
     31  N         59.0480  -44.1870   15.1510 N.3    15  ASN15      -0.1240
     32  CA        58.8610  -45.5590   15.6240 C.3    15  ASN15       0.1653
     33  C         59.7920  -46.5580   14.9240 C.2    15  ASN15       0.2266
     34  O         60.2280  -47.5390   15.5280 O.2    15  ASN15      -0.2867
     35  CB        57.4310  -46.0470   15.3830 C.3    15  ASN15       0.1155
     36  CG        56.3820  -45.1670   15.9940 C.2    15  ASN15       0.2627
     37  OD1       56.5710  -43.9650   16.1940 O.2    15  ASN15      -0.2716
     38  ND2       55.2440  -45.7640   16.2900 N.am   15  ASN15      -0.0877
     39  N         47.1370  -53.8510   10.0710 N.3    47  GLN47      -0.1245
     40  CA        47.3390  -53.8370   11.5190 C.3    47  GLN47       0.1566
     41  C         46.4990  -54.9130   12.2500 C.2    47  GLN47       0.2260
     42  O         47.0340  -55.6540   13.0620 O.2    47  GLN47      -0.2867
     43  CB        47.1690  -52.4220   12.1070 C.3    47  GLN47       0.0367
     44  CG        47.5170  -52.3660   13.5930 C.3    47  GLN47       0.0905
     45  CD        48.1850  -51.1050   14.0850 C.2    47  GLN47       0.2608
     46  OE1       48.8500  -51.1380   15.1250 O.2    47  GLN47      -0.2717
     47  NE2       47.9890  -49.9880   13.4010 N.am   47  GLN47      -0.0878
     48  N         55.1300  -53.1100   17.0660 N.3    63  ASN63      -0.1240
     49  CA        54.6700  -51.8460   17.6080 C.3    63  ASN63       0.1653
     50  C         53.2200  -51.6630   17.1190 C.2    63  ASN63       0.2266
     51  O         52.9940  -51.4740   15.9280 O.2    63  ASN63      -0.2867
     52  CB        55.6410  -50.7540   17.1330 C.3    63  ASN63       0.1155
     53  CG        55.0490  -49.3610   17.1040 C.2    63  ASN63       0.2627
     54  OD1       55.3740  -48.5570   16.2070 O.2    63  ASN63      -0.2716
     55  ND2       54.2100  -49.0430   18.0790 N.am   63  ASN63      -0.0877
     56  N         49.3980  -49.6750   17.5330 N.3    65  ASN65      -0.1240
     57  CA        48.5540  -48.6140   18.0710 C.3    65  ASN65       0.1653
     58  C         47.4200  -49.2470   18.8880 C.2    65  ASN65       0.2266
     59  O         46.8620  -50.2930   18.5290 O.2    65  ASN65      -0.2867
     60  CB        48.0290  -47.7950   16.8910 C.3    65  ASN65       0.1155
     61  CG        47.2740  -46.5650   17.3140 C.2    65  ASN65       0.2627
     62  OD1       46.0600  -46.6210   17.5810 O.2    65  ASN65      -0.2716
     63  ND2       47.9720  -45.4540   17.3970 N.am   65  ASN65      -0.0877
     64  N         43.2900  -49.9980   17.1090 N.3    67  PRO67      -0.2116
     65  CA        42.8490  -51.2750   16.5350 C.3    67  PRO67       0.1372
     66  C         42.9070  -52.4300   17.5380 C.2    67  PRO67       0.2244
     67  O         42.3720  -53.5010   17.2570 O.2    67  PRO67      -0.2868
     68  CB        43.8380  -51.5190   15.3910 C.3    67  PRO67       0.0268
     69  CG        44.5280  -50.2390   15.1580 C.3    67  PRO67       0.0207
     70  CD        44.4290  -49.4100   16.3800 C.3    67  PRO67       0.0892
     71  N         51.9830  -41.3680   20.2200 N.3   116  SER116     -0.1217
     72  CA        51.5070  -41.1030   18.8570 C.3   116  SER116      0.1889
     73  C         50.7540  -39.7750   18.7950 C.2   116  SER116      0.2288
     74  O         49.7820  -39.6250   18.0540 O.2   116  SER116     -0.2866
     75  CB        50.6590  -42.2540   18.2900 C.3   116  SER116      0.2089
     76  OG        49.3500  -42.3030   18.8230 O.3   116  SER116     -0.2183
     77  N         45.5700  -37.0500   17.3780 N.3   119  ARG119     -0.1245
     78  CA        44.9380  -37.1700   16.0600 C.3   119  ARG119      0.1563
     79  C         43.9600  -36.0190   15.8150 C.2   119  ARG119      0.2260
     80  O         43.1280  -35.7130   16.6670 O.2   119  ARG119     -0.2867
     81  CB        44.2280  -38.5320   15.9360 C.3   119  ARG119      0.0307
     82  CG        45.1720  -39.7130   16.1700 C.3   119  ARG119      0.0489
     83  CD        44.4450  -41.0450   16.1920 C.3   119  ARG119      0.2205
     84  NE        43.9960  -41.4660   14.8820 N.pl3 119  ARG119     -0.0865
     85  CZ        44.6720  -42.2590   14.0550 C.cat 119  ARG119      0.5346
     86  NH1       45.8540  -42.7490   14.3920 N.pl3 119  ARG119      0.1354
     87  NH2       44.1300  -42.6180   12.9060 N.pl3 119  ARG119      0.1354
     88  N         37.5790  -41.3390    6.6870 N.3   140  ARG140     -0.1245
     89  CA        38.1300  -42.6420    7.0210 C.3   140  ARG140      0.1563
     90  C         38.5480  -42.7110    8.4900 C.2   140  ARG140      0.2260
     91  O         39.1110  -41.7560    9.0290 O.2   140  ARG140     -0.2867
     92  CB        39.3500  -42.9340    6.1550 C.3   140  ARG140      0.0307
     93  CG        40.0890  -44.2120    6.5260 C.3   140  ARG140      0.0489
     94  CD        41.2100  -43.9660    7.5310 C.3   140  ARG140      0.2205
     95  NE        41.8950  -45.2000    7.8930 N.pl3 140  ARG140     -0.0865
     96  CZ        42.9640  -45.2710    8.6750 C.cat 140  ARG140      0.5346
     97  NH1       43.4580  -44.1850    9.2390 N.pl3 140  ARG140      0.1354
     98  NH2       43.5200  -46.4460    8.9340 N.pl3 140  ARG140      0.1354
     99  N         45.0950  -48.3690    6.6500 N.3   159  TYR159     -0.1241
    100  CA        45.9340  -47.1740    6.5400 C.3   159  TYR159      0.1605
    101  C         46.5590  -47.0060    5.1520 C.2   159  TYR159      0.2264
    102  O         46.5950  -45.8970    4.6110 O.2   159  TYR159     -0.2867
    103  CB        47.0360  -47.2730    7.5780 C.3   159  TYR159      0.0534
    104  CG        47.9190  -46.0460    7.7400 C.ar  159  TYR159     -0.0201
    105  CD1       47.3840  -44.7840    7.9800 C.ar  159  TYR159     -0.0009
    106  CD2       49.2960  -46.1750    7.7370 C.ar  159  TYR159     -0.0009
    107  CE1       48.2210  -43.6480    8.1480 C.ar  159  TYR159      0.0417
    108  CE2       50.1240  -45.0820    7.9330 C.ar  159  TYR159      0.0417
    109  CZ        49.5890  -43.8230    8.1370 C.ar  159  TYR159      0.1957
    110  OH        50.4640  -42.7560    8.3200 O.3   159  TYR159     -0.2866
    111  N         44.6010  -37.9650   11.8850 N.3   176  ASN176     -0.1225
    112  CA        45.8590  -38.4910   12.3470 C.3   176  ASN176      0.1785
    113  C         46.7320  -37.4090   12.9650 C.2   176  ASN176      0.2597
    114  O         46.3980  -36.2010   12.9320 O.2   176  ASN176     -0.2718
    115  CB        46.6130  -39.2250   11.2080 C.3   176  ASN176      0.1169
    116  CG        47.2070  -40.5410   11.6860 C.2   176  ASN176      0.2627
    117  OD1       47.8690  -40.5900   12.7160 O.2   176  ASN176     -0.2716
    118  ND2       46.8700  -41.6270   11.0000 N.am  176  ASN176     -0.0877
    119  N         47.8370  -37.8590   13.5410 N.am  177  ASN177     -0.1974
    120  CA        48.8360  -36.9750   14.1200 C.3   177  ASN177      0.1688
    121  C         49.7070  -36.3200   13.0490 C.2   177  ASN177      0.2292
    122  O         49.6090  -36.6460   11.8640 O.2   177  ASN177     -0.2864
    123  CB        49.6940  -37.7490   15.1350 C.3   177  ASN177      0.1181
    124  CG        50.3310  -39.0180   14.5410 C.2   177  ASN177      0.2629
    125  OD1       50.9530  -38.9760   13.4890 O.2   177  ASN177     -0.2716
    126  ND2       50.1610  -40.1420   15.2200 N.am  177  ASN177     -0.0877
    127  N         52.2320  -38.7360   10.9360 N.3   180  SER180     -0.1217
    128  CA        51.5520  -39.6450   10.0050 C.3   180  SER180      0.1889
    129  C         50.9330  -38.8860    8.8360 C.2   180  SER180      0.2288
    130  O         51.0180  -39.3180    7.6970 O.2   180  SER180     -0.2866
    131  CB        50.4560  -40.4490   10.7000 C.3   180  SER180      0.2089
    132  OG        50.9790  -41.4250   11.5870 O.3   180  SER180     -0.2183
    133  N         50.8750  -46.3930   21.9790 N.3   203  GLU203     -0.1245
    134  CA        51.2090  -47.5670   21.1600 C.3   203  GLU203      0.1567
    135  C         52.1120  -48.4870   21.9850 C.2   203  GLU203      0.2260
    136  O         52.9290  -48.0080   22.7640 O.2   203  GLU203     -0.2867
    137  CB        51.9290  -47.1710   19.8880 C.3   203  GLU203      0.0388
    138  CG        51.2730  -46.0270   19.1360 C.3   203  GLU203      0.1160
    139  CD        51.5400  -46.0500   17.6570 C.2   203  GLU203      0.3649
    140  OE1       52.5340  -46.6950   17.2550 O.co2 203  GLU203     -0.2457
    141  OE2       50.7510  -45.4140   16.8920 O.co2 203  GLU203     -0.2457
@<TRIPOS>BOND
     1   102   101    2
     2   101   100    1
     3    92    93    1
     4    92    89    1
     5    93    94    1
     6   100    99    1
     7   100   103    1
     8    88    89    1
     9    89    90    1
    10    94    95    1
    11   103   104    1
    12   130   129    2
    13   106   104   ar
    14   106   108   ar
    15   104   105   ar
    16     4     3    2
    17    95    96    2
    18   108   109   ar
    19   105   107   ar
    20   109   107   ar
    21   109   110    1
    22    11    12    2
    23    11    10    1
    24    90    91    2
    25    96    98    1
    26    96    97    1
    27   129   128    1
    28     6     8    1
    29     6     5    1
    30     3     9   am
    31     3     2    1
    32    10     9    1
    33    10    13    1
    34     2     5    1
    35     2     1    1
    36   128   131    1
    37   128   127    1
    38    39    40    1
    39    19    20    1
    40     5     7    1
    41    13    14    1
    42    15    14   ar
    43    15    17   ar
    44    25    27   ar
    45    25    24   ar
    46   131   132    1
    47    23    20    1
    48    23    24    1
    49    20    21    1
    50   118   116   am
    51    14    16   ar
    52    27    29   ar
    53   115   116    1
    54   115   112    1
    55    24    26   ar
    56    40    43    1
    57    40    41    1
    58    17    18   ar
    59   116   117    2
    60   122   121    2
    61   111   112    1
    62    43    44    1
    63    41    42    2
    64    16    18   ar
    65   112   113    1
    66    29    30    1
    67    29    28   ar
    68    21    22    2
    69    26    28   ar
    70    87    85    1
    71   114   113    2
    72   113   119   am
    73   121   120    1
    74    47    45   am
    75   125   124    2
    76   119   120    1
    77    44    45    1
    78    85    86    1
    79    85    84    2
    80    45    46    2
    81   120   123    1
    82   124   123    1
    83   124   126   am
    84    84    83    1
    85    33    34    2
    86    33    32    1
    87    31    32    1
    88    69    68    1
    89    69    70    1
    90    35    32    1
    91    35    36    1
    92    68    65    1
    93    79    78    1
    94    79    80    2
    95    51    50    2
    96    81    78    1
    97    81    82    1
    98    36    37    2
    99    36    38   am
   100    78    77    1
   101    82    83    1
   102    54    53    2
   103    70    64    1
   104    65    64    1
   105    65    66    1
   106    60    61    1
   107    60    57    1
   108   141   139   ar
   109    48    49    1
   110    53    52    1
   111    53    55   am
   112    50    49    1
   113    52    49    1
   114   140   139   ar
   115    67    66    2
   116    61    63   am
   117    61    62    2
   118    56    57    1
   119   139   138    1
   120    74    73    2
   121    57    58    1
   122    75    76    1
   123    75    72    1
   124    59    58    2
   125    73    72    1
   126    72    71    1
   127   138   137    1
   128   137   134    1
   129   134   133    1
   130   134   135    1
   131   135   136    2
