@<TRIPOS>MOLECULE
tmp/4p3pA00.pdb
 202 193 0 0 0
SMALL
GASTEIGER

@<TRIPOS>ATOM
      1  N         38.6800   22.8800    1.5300 N.3    66  THR66      -0.1203
      2  CA        38.5550   22.0170    2.7010 C.3    66  THR66       0.1994
      3  C         38.5520   20.5500    2.3000 C.2    66  THR66       0.2618
      4  O         38.9890   19.6900    3.0610 O.2    66  THR66      -0.2717
      5  CB        37.2730   22.3260    3.5000 C.3    66  THR66       0.1784
      6  OG1       36.1290   22.1580    2.6540 O.3    66  THR66      -0.2211
      7  CG2       37.3070   23.7490    4.0170 C.3    66  THR66       0.0376
      8  N         38.0680   20.2680    1.0950 N.am   67  GLY67      -0.1942
      9  CA        37.9670   18.8980    0.6290 C.3    67  GLY67       0.2014
     10  C         36.5460   18.3720    0.5720 C.2    67  GLY67       0.2638
     11  O         36.3100   17.2680    0.0790 O.2    67  GLY67      -0.2714
     12  N         35.5980   19.1590    1.0760 N.am   68  HIS68      -0.1973
     13  CA        34.1910   18.7690    1.0630 C.3    68  HIS68       0.1656
     14  C         33.6650   18.5750   -0.3550 C.2    68  HIS68       0.2291
     15  O         32.8350   17.7060   -0.5970 O.2    68  HIS68      -0.2864
     16  CB        33.3260   19.7980    1.8010 C.3    68  HIS68       0.0771
     17  CG        33.4590   19.7470    3.2940 C.ar   68  HIS68       0.0820
     18  ND1       34.4410   20.4290    3.9750 N.ar   68  HIS68      -0.2267
     19  CD2       32.7240   19.1010    4.2300 C.ar   68  HIS68       0.1154
     20  CE1       34.3090   20.2020    5.2740 C.ar   68  HIS68       0.1986
     21  NE2       33.2780   19.4010    5.4520 N.ar   68  HIS68      -0.2212
     22  N         34.8210   15.0250   -1.1020 N.3    71  ASN71      -0.1225
     23  CA        34.3230   13.9600   -0.2910 C.3    71  ASN71       0.1785
     24  C         32.9590   14.1930    0.2950 C.2    71  ASN71       0.2597
     25  O         32.3770   13.3060    0.7800 O.2    71  ASN71      -0.2718
     26  CB        35.3360   13.6080    0.7920 C.3    71  ASN71       0.1169
     27  CG        36.5810   12.9220    0.2470 C.2    71  ASN71       0.2627
     28  OD1       37.3580   13.4980   -0.4540 O.2    71  ASN71      -0.2716
     29  ND2       36.7370   11.6900    0.5890 N.am   71  ASN71      -0.0877
     30  N         32.4890   15.4140    0.3030 N.am   72  TYR72      -0.1976
     31  CA        31.1430   15.7320    0.8270 C.3    72  TYR72       0.1639
     32  C         30.0380   16.1000   -0.1800 C.2    72  TYR72       0.2290
     33  O         28.8960   16.3350    0.2240 O.2    72  TYR72      -0.2864
     34  CB        31.1980   16.7510    1.9780 C.3    72  TYR72       0.0560
     35  CG        30.5500   16.2330    3.2430 C.ar   72  TYR72      -0.0198
     36  CD1       29.3960   16.8140    3.7560 C.ar   72  TYR72      -0.0009
     37  CD2       31.0760   15.1320    3.9020 C.ar   72  TYR72      -0.0009
     38  CE1       28.8010   16.3200    4.9080 C.ar   72  TYR72       0.0417
     39  CE2       30.4920   14.6340    5.0450 C.ar   72  TYR72       0.0417
     40  CZ        29.3570   15.2300    5.5440 C.ar   72  TYR72       0.1957
     41  OH        28.7880   14.7190    6.6860 O.3    72  TYR72      -0.2866
     42  N         29.3350   21.4700    8.0630 N.3    91  MET91      -0.1245
     43  CA        30.2080   21.4850    9.2370 C.3    91  MET91       0.1570
     44  C         30.6060   22.9070    9.6400 C.2    91  MET91       0.2261
     45  O         30.6080   23.8180    8.8100 O.2    91  MET91      -0.2867
     46  CB        31.4690   20.6490    8.9790 C.3    91  MET91       0.0387
     47  CG        31.2550   19.1440    8.8400 C.3    91  MET91       0.0595
     48  SD        32.8050   18.2780    8.5090 S.3    91  MET91      -0.1393
     49  CE        32.2100   16.6290    8.1300 C.3    91  MET91       0.0692
     50  N         33.6270   23.6060   11.1470 N.3    93  CYS93      -0.1221
     51  CA        35.0890   23.6720   11.2490 C.3    93  CYS93       0.1794
     52  C         35.7760   24.7660   10.4020 C.2    93  CYS93       0.2443
     53  O         36.5690   25.5580   10.9380 O.2    93  CYS93      -0.2733
     54  CB        35.7100   22.2890   10.9890 C.3    93  CYS93       0.0970
     55  SG        34.4990   20.9530   10.7700 S.3    93  CYS93      -0.0800
     56  N         35.4770   24.8200    9.0860 N.am   94  PRO94      -0.2729
     57  CA        36.1400   25.8340    8.2600 C.3    94  PRO94       0.1401
     58  C         35.8420   27.2550    8.7200 C.2    94  PRO94       0.2269
     59  O         36.7390   28.0880    8.6590 O.2    94  PRO94      -0.2865
     60  CB        35.5480   25.5930    6.8710 C.3    94  PRO94       0.0296
     61  CG        35.1230   24.1710    6.8870 C.3    94  PRO94       0.0237
     62  CD        34.6190   23.9410    8.2710 C.3    94  PRO94       0.0939
     63  N         22.8240   18.7720    5.9040 N.3   122  ARG122     -0.1245
     64  CA        23.2900   17.6760    5.1490 C.3   122  ARG122      0.1563
     65  C         22.1420   17.0810    4.3470 C.2   122  ARG122      0.2260
     66  O         21.0940   16.8370    4.8600 O.2   122  ARG122     -0.2867
     67  CB        23.9300   16.6550    6.0520 C.3   122  ARG122      0.0307
     68  CG        25.1950   17.1320    6.7090 C.3   122  ARG122      0.0489
     69  CD        25.7940   16.1750    7.7070 C.3   122  ARG122      0.2205
     70  NE        26.8260   16.8250    8.4950 N.pl3 122  ARG122     -0.0865
     71  CZ        27.6120   16.2430    9.3740 C.cat 122  ARG122      0.5346
     72  NH1       27.5580   14.9780    9.6010 N.pl3 122  ARG122      0.1354
     73  NH2       28.4720   16.9490    9.9940 N.pl3 122  ARG122      0.1354
     74  N         24.9840   20.8600   16.2690 N.3   140  GLN140     -0.1245
     75  CA        26.0660   20.1450   16.9380 C.3   140  GLN140      0.1566
     76  C         26.5460   20.9430   18.1290 C.2   140  GLN140      0.2260
     77  O         26.5780   22.1670   18.0840 O.2   140  GLN140     -0.2867
     78  CB        27.2490   19.9400   15.9850 C.3   140  GLN140      0.0367
     79  CG        27.2460   18.6350   15.2000 C.3   140  GLN140      0.0905
     80  CD        28.4950   18.4720   14.3490 C.2   140  GLN140      0.2608
     81  OE1       29.0510   19.4520   13.8530 O.2   140  GLN140     -0.2717
     82  NE2       28.9460   17.2330   14.1850 N.am  140  GLN140     -0.0878
     83  N         29.5480   21.5910   18.8920 N.3   142  ASP142     -0.1239
     84  CA        30.7730   21.4930   18.1610 C.3   142  ASP142      0.1674
     85  C         31.8330   22.4160   18.7150 C.2   142  ASP142      0.2266
     86  O         31.5240   23.4780   19.1840 O.2   142  ASP142     -0.2867
     87  CB        30.5290   21.8010   16.7090 C.3   142  ASP142      0.1410
     88  CG        31.5750   21.2510   15.7990 C.2   142  ASP142      0.3668
     89  OD1       32.2660   20.3160   16.1180 O.co2 142  ASP142     -0.2456
     90  OD2       31.6830   21.7580   14.7200 O.co2 142  ASP142     -0.2456
     91  N         40.5700    8.2030   10.1810 N.3   219  ALA219     -0.1231
     92  CA        40.4440    8.9540    8.9350 C.3   219  ALA219      0.1694
     93  C         41.8150    9.2570    8.3360 C.2   219  ALA219      0.2592
     94  O         42.8260    9.1950    9.0370 O.2   219  ALA219     -0.2718
     95  CB        39.6720   10.2270    9.1650 C.3   219  ALA219      0.0304
     96  N         41.8550    9.5770    7.0440 N.am  220  PHE220     -0.1962
     97  CA        43.1250    9.9080    6.3970 C.3   220  PHE220      0.1771
     98  C         43.7690   11.1770    6.9600 C.2   220  PHE220      0.2619
     99  O         44.9860   11.3600    6.8650 O.2   220  PHE220     -0.2715
    100  CB        42.9900    9.9790    4.8650 C.3   220  PHE220      0.0574
    101  CG        42.1230   11.1050    4.3610 C.ar  220  PHE220     -0.0200
    102  CD1       42.6150   12.4000    4.2710 C.ar  220  PHE220     -0.0042
    103  CD2       40.8310   10.8540    3.9280 C.ar  220  PHE220     -0.0042
    104  CE1       41.8230   13.4260    3.7930 C.ar  220  PHE220     -0.0003
    105  CE2       40.0350   11.8750    3.4470 C.ar  220  PHE220     -0.0003
    106  CZ        40.5320   13.1620    3.3800 C.ar  220  PHE220     -0.0000
    107  N         42.9460   12.0470    7.5390 N.am  221  TYR221     -0.1974
    108  CA        43.4310   13.3070    8.1000 C.3   221  TYR221      0.1639
    109  C         43.8200   13.2520    9.5840 C.2   221  TYR221      0.2290
    110  O         44.4180   14.1980   10.0970 O.2   221  TYR221     -0.2864
    111  CB        42.4130   14.4310    7.8510 C.3   221  TYR221      0.0560
    112  CG        41.0020   14.1190    8.3030 C.ar  221  TYR221     -0.0198
    113  CD1       40.0700   13.5950    7.4170 C.ar  221  TYR221     -0.0009
    114  CD2       40.5980   14.3670    9.6080 C.ar  221  TYR221     -0.0009
    115  CE1       38.7810   13.3170    7.8190 C.ar  221  TYR221      0.0417
    116  CE2       39.3110   14.0910   10.0190 C.ar  221  TYR221      0.0417
    117  CZ        38.4080   13.5650    9.1200 C.ar  221  TYR221      0.1957
    118  OH        37.1230   13.2870    9.5220 O.3   221  TYR221     -0.2866
    119  N         41.5010    9.1040   15.9180 N.3   224  LYS224     -0.1245
    120  CA        40.3870    9.6180   16.7160 C.3   224  LYS224      0.1561
    121  C         40.0230    8.7220   17.8860 C.2   224  LYS224      0.2260
    122  O         40.4200    7.5680   17.9370 O.2   224  LYS224     -0.2867
    123  CB        39.1480    9.8240   15.8430 C.3   224  LYS224      0.0271
    124  CG        38.4940    8.5220   15.4100 C.3   224  LYS224      0.0035
    125  CD        37.2470    8.7740   14.5860 C.3   224  LYS224      0.0206
    126  CE        36.7640    7.4890   13.9450 C.3   224  LYS224      0.1093
    127  NZ        35.6100    7.7360   13.0430 N.3   224  LYS224     -0.1314
    128  N         32.9830   12.5510   20.1040 N.3   241  THR241     -0.1218
    129  CA        34.2160   12.2930   19.3710 C.3   241  THR241      0.1862
    130  C         35.2900   13.3350   19.6680 C.2   241  THR241      0.2287
    131  O         34.9970   14.5180   19.9010 O.2   241  THR241     -0.2866
    132  CB        33.9950   12.2450   17.8440 C.3   241  THR241      0.1770
    133  OG1       35.2350   11.9430   17.1900 O.3   241  THR241     -0.2211
    134  CG2       33.4970   13.5820   17.3450 C.3   241  THR241      0.0375
    135  N         38.7470   14.1450   17.5350 N.3   243  GLN243     -0.1245
    136  CA        39.3370   13.7860   16.2500 C.3   243  GLN243      0.1566
    137  C         40.4640   14.7370   15.8500 C.2   243  GLN243      0.2260
    138  O         40.2420   15.9280   15.6420 O.2   243  GLN243     -0.2867
    139  CB        38.2420   13.7850   15.1760 C.3   243  GLN243      0.0367
    140  CG        38.7420   13.8180   13.7380 C.3   243  GLN243      0.0905
    141  CD        39.0990   12.4470   13.2090 C.2   243  GLN243      0.2608
    142  OE1       38.2430   11.5710   13.0950 O.2   243  GLN243     -0.2717
    143  NE2       40.3700   12.2540   12.8780 N.am  243  GLN243     -0.0878
    144  N         43.0130   16.4910   13.3710 N.3   245  ASP245     -0.1239
    145  CA        42.9610   16.8190   11.9470 C.3   245  ASP245      0.1674
    146  C         44.2590   17.4850   11.4940 C.2   245  ASP245      0.2266
    147  O         44.5490   18.6080   11.9060 O.2   245  ASP245     -0.2867
    148  CB        41.7730   17.7550   11.6910 C.3   245  ASP245      0.1410
    149  CG        41.3860   17.8440   10.2200 C.2   245  ASP245      0.3668
    150  OD1       40.2040   18.1380    9.9400 O.co2 245  ASP245     -0.2456
    151  OD2       42.2510   17.6360    9.3420 O.co2 245  ASP245     -0.2456
    152  N         44.8120   17.8230    8.1330 N.3   247  SER247     -0.1202
    153  CA        44.4800   18.3330    6.8040 C.3   247  SER247      0.2020
    154  C         43.9680   19.7660    6.8140 C.2   247  SER247      0.2618
    155  O         44.4310   20.6110    6.0480 O.2   247  SER247     -0.2717
    156  CB        43.4470   17.4120    6.1440 C.3   247  SER247      0.2103
    157  OG        42.9480   17.9700    4.9470 O.3   247  SER247     -0.2182
    158  N         43.0160   20.0310    7.7010 N.am  248  LEU248     -0.1979
    159  CA        42.2930   21.3040    7.6960 C.3   248  LEU248      0.1596
    160  C         43.1270   22.5830    7.9020 C.2   248  LEU248      0.2287
    161  O         42.9830   23.5320    7.1280 O.2   248  LEU248     -0.2864
    162  CB        41.1040   21.2690    8.6690 C.3   248  LEU248      0.0297
    163  CG        40.1750   22.4830    8.5820 C.3   248  LEU248      0.0022
    164  CD1       39.6160   22.6320    7.1790 C.3   248  LEU248      0.0001
    165  CD2       39.0430   22.3890    9.5870 C.3   248  LEU248      0.0001
    166  N         45.3290   23.3470    4.7670 N.3   251  ARG251     -0.1245
    167  CA        44.5900   23.7390    3.5730 C.3   251  ARG251      0.1563
    168  C         44.0180   25.1510    3.6900 C.2   251  ARG251      0.2260
    169  O         43.8850   25.8600    2.6940 O.2   251  ARG251     -0.2867
    170  CB        43.4790   22.7260    3.2760 C.3   251  ARG251      0.0307
    171  CG        43.9530   21.4110    2.6560 C.3   251  ARG251      0.0489
    172  CD        42.9280   20.3030    2.8800 C.3   251  ARG251      0.2205
    173  NE        42.5060   19.6320    1.6490 N.pl3 251  ARG251     -0.0865
    174  CZ        42.5050   18.3120    1.4720 C.cat 251  ARG251      0.5346
    175  NH1       42.1000   17.7980    0.3190 N.pl3 251  ARG251      0.1354
    176  NH2       42.9090   17.5080    2.4440 N.pl3 251  ARG251      0.1354
    177  N         38.9470   18.3430   16.5190 N.3   270  HIS270     -0.1226
    178  CA        37.4980   18.4460   16.4790 C.3   270  HIS270      0.1752
    179  C         36.9760   17.7350   17.7110 C.2   270  HIS270      0.2596
    180  O         37.3860   16.6170   17.9910 O.2   270  HIS270     -0.2718
    181  CB        36.9390   17.7350   15.2460 C.3   270  HIS270      0.0759
    182  CG        37.4960   18.2190   13.9510 C.ar  270  HIS270      0.0818
    183  ND1       36.8190   19.1040   13.1290 N.ar  270  HIS270     -0.2268
    184  CD2       38.6490   17.9300   13.3010 C.ar  270  HIS270      0.1154
    185  CE1       37.5330   19.3440   12.0550 C.ar  270  HIS270      0.1986
    186  NE2       38.6560   18.6410   12.1300 N.ar  270  HIS270     -0.2212
    187  N         36.0780   18.3620   18.4570 N.am  271  ARG271     -0.1966
    188  CA        35.4400   17.6440   19.5530 C.3   271  ARG271      0.1729
    189  C         33.9610   17.9600   19.6990 C.2   271  ARG271      0.2616
    190  O         33.5290   19.1150   19.5800 O.2   271  ARG271     -0.2715
    191  CB        36.1990   17.8190   20.8780 C.3   271  ARG271      0.0348
    192  CG        35.3630   18.3300   22.0420 C.3   271  ARG271      0.0492
    193  CD        35.4120   19.8420   22.1110 C.3   271  ARG271      0.2205
    194  NE        34.6050   20.3660   23.2090 N.pl3 271  ARG271     -0.0865
    195  CZ        33.3030   20.6210   23.1310 C.cat 271  ARG271      0.5346
    196  NH1       32.6410   20.4050   22.0030 N.pl3 271  ARG271      0.1354
    197  NH2       32.6580   21.0920   24.1880 N.pl3 271  ARG271      0.1354
    198  N         33.1910   16.9040   19.9360 N.am  272  ALA272     -0.1977
    199  CA        31.7700   17.0420   20.2170 C.3   272  ALA272      0.1597
    200  C         31.4140   16.0470   21.3040 C.2   272  ALA272      0.2287
    201  O         31.9820   14.9600   21.3580 O.2   272  ALA272     -0.2864
    202  CB        30.9500   16.7940   18.9670 C.3   272  ALA272      0.0319
@<TRIPOS>BOND
     1    22    23    1
     2    15    14    2
     3    28    27    2
     4    14    13    1
     5    23    24    1
     6    23    26    1
     7    32    33    2
     8    32    31    1
     9    11    10    2
    10    27    29   am
    11    27    26    1
    12    24    30   am
    13    24    25    2
    14    30    31    1
    15   175   174    1
    16    10     9    1
    17    10    12   am
    18     9     8    1
    19    31    34    1
    20    13    12    1
    21    13    16    1
    22     8     3   am
    23   174   173    2
    24   174   176    1
    25     1     2    1
    26   173   172    1
    27    16    17    1
    28    34    35    1
    29     3     2    1
    30     3     4    2
    31     6     5    1
    32   171   172    1
    33   171   170    1
    34   169   168    2
    35     2     5    1
    36    35    36   ar
    37    35    37   ar
    38   170   167    1
    39    17    18   ar
    40    17    19   ar
    41   106   105   ar
    42   106   104   ar
    43   105   103   ar
    44     5     7    1
    45   167   168    1
    46   167   166    1
    47    36    38   ar
    48   104   102   ar
    49    37    39   ar
    50   103   101   ar
    51    18    20   ar
    52    19    21   ar
    53   102   101   ar
    54    65    66    2
    55    65    64    1
    56   101   100    1
    57   100    97    1
    58    38    40   ar
    59   157   156    1
    60    39    40   ar
    61    64    63    1
    62    64    67    1
    63    20    21   ar
    64    40    41    1
    65   155   154    2
    66    67    68    1
    67   156   153    1
    68    97    98    1
    69    97    96    1
    70    68    69    1
    71   153   154    1
    72   153   152    1
    73   154   158   am
    74    99    98    2
    75    60    61    1
    76    60    57    1
    77    61    62    1
    78    98   107   am
    79    96    93   am
    80   161   160    2
    81   164   163    1
    82   113   115   ar
    83   113   112   ar
    84   107   108    1
    85   159   158    1
    86   159   160    1
    87   159   162    1
    88    69    70    1
    89   115   117   ar
    90   111   108    1
    91   111   112    1
    92    42    43    1
    93   108   109    1
    94    49    48    1
    95    57    58    1
    96    57    56    1
    97    62    56    1
    98   112   114   ar
    99    93    92    1
   100    93    94    2
   101    70    71    2
   102    48    47    1
   103   163   162    1
   104   163   165    1
   105    59    58    2
   106    45    44    2
   107    47    46    1
   108    92    95    1
   109    92    91    1
   110    46    43    1
   111    56    52   am
   112   117   118    1
   113   117   116   ar
   114    43    44    1
   115   151   149   ar
   116    71    72    1
   117    71    73    1
   118   109   110    2
   119   114   116   ar
   120   150   149   ar
   121   149   148    1
   122    52    53    2
   123    52    51    1
   124    55    54    1
   125    54    51    1
   126    50    51    1
   127   146   147    2
   128   146   145    1
   129   148   145    1
   130   145   144    1
   131   185   186   ar
   132   185   183   ar
   133   186   184   ar
   134   143   141   am
   135   127   126    1
   136   142   141    2
   137   183   182   ar
   138   141   140    1
   139   184   182   ar
   140   140   139    1
   141    81    80    2
   142   126   125    1
   143   182   181    1
   144    82    80   am
   145    80    79    1
   146   125   124    1
   147    90    88   ar
   148   139   136    1
   149    79    78    1
   150   181   178    1
   151   124   123    1
   152   138   137    2
   153    88    89   ar
   154    88    87    1
   155   123   120    1
   156   137   136    1
   157   119   120    1
   158    78    75    1
   159   136   135    1
   160    74    75    1
   161   178   177    1
   162   178   179    1
   163    87    84    1
   164   120   121    1
   165    75    76    1
   166   133   132    1
   167   134   132    1
   168   179   180    2
   169   179   187   am
   170   132   129    1
   171   121   122    2
   172    77    76    2
   173    84    85    1
   174    84    83    1
   175   187   188    1
   176    85    86    2
   177   202   199    1
   178   129   130    1
   179   129   128    1
   180   188   189    1
   181   188   191    1
   182   190   189    2
   183   130   131    2
   184   189   198   am
   185   198   199    1
   186   199   200    1
   187   191   192    1
   188   200   201    2
   189   196   195    1
   190   192   193    1
   191   193   194    1
   192   195   194    2
   193   195   197    1
