@<TRIPOS>MOLECULE
tmp/4p3wI00.pdb
 184 179 0 0 0
SMALL
GASTEIGER

@<TRIPOS>ATOM
      1  N         32.2210   -4.3400   54.5630 N.3    20  PRO20      -0.2116
      2  CA        32.2760   -5.8110   54.3570 C.3    20  PRO20       0.1372
      3  C         33.2470   -6.2430   53.2690 C.2    20  PRO20       0.2244
      4  O         33.9630   -7.2500   53.4490 O.2    20  PRO20      -0.2868
      5  CB        30.8640   -6.1470   53.9540 C.3    20  PRO20       0.0268
      6  CG        30.0590   -5.1800   54.7260 C.3    20  PRO20       0.0207
      7  CD        30.8370   -3.8830   54.7080 C.3    20  PRO20       0.0892
      8  N         26.1040   -2.6170   51.9230 N.3    41  MET41      -0.1230
      9  CA        25.2140   -3.0300   52.9840 C.3    41  MET41       0.1702
     10  C         25.9670   -4.0190   53.8450 C.2    41  MET41       0.2593
     11  O         26.9430   -4.6240   53.3960 O.2    41  MET41      -0.2718
     12  CB        23.9160   -3.6470   52.4310 C.3    41  MET41       0.0401
     13  CG        23.0800   -2.6590   51.6190 C.3    41  MET41       0.0596
     14  SD        22.3170   -1.3610   52.6360 S.3    41  MET41      -0.1393
     15  CE        23.3870   -0.0070   52.1840 C.3    41  MET41       0.0692
     16  N         25.5240   -4.1460   55.0920 N.am   42  GLY42      -0.1942
     17  CA        26.1110   -5.0990   56.0780 C.3    42  GLY42       0.2014
     18  C         26.7970   -4.4160   57.2410 C.2    42  GLY42       0.2639
     19  O         26.7480   -3.1560   57.3570 O.2    42  GLY42      -0.2714
     20  N         27.4690   -5.2130   58.0720 N.am   43  THR43      -0.1950
     21  CA        28.0460   -4.7710   59.3080 C.3    43  THR43       0.1897
     22  C         29.4030   -4.1830   59.0570 C.2    43  THR43       0.2313
     23  O         30.2450   -4.7960   58.4050 O.2    43  THR43      -0.2863
     24  CB        28.1540   -5.9040   60.3550 C.3    43  THR43       0.1794
     25  OG1       26.8380   -6.3680   60.6420 O.3    43  THR43      -0.2208
     26  CG2       28.6760   -5.3450   61.6800 C.3    43  THR43       0.0378
     27  N         13.5660  -12.8700   46.0940 N.3    97  THR97      -0.1218
     28  CA        14.3190  -11.6300   46.2160 C.3    97  THR97       0.1862
     29  C         14.4510  -10.8620   44.9150 C.2    97  THR97       0.2287
     30  O         14.9320   -9.7420   44.9890 O.2    97  THR97      -0.2866
     31  CB        15.7630  -11.8500   46.7190 C.3    97  THR97       0.1770
     32  OG1       16.4270  -12.7810   45.8520 O.3    97  THR97      -0.2211
     33  CG2       15.8050  -12.3510   48.1460 C.3    97  THR97       0.0375
     34  N         15.9280   -6.6800   44.1320 N.3   101  GLY101     -0.1210
     35  CA        17.2070   -6.4300   43.5030 C.3   101  GLY101      0.1956
     36  C         18.3760   -6.5810   44.4640 C.2   101  GLY101      0.2612
     37  O         18.3290   -7.3680   45.3860 O.2   101  GLY101     -0.2717
     38  N         19.4360   -5.8170   44.2210 N.am  102  ALA102     -0.1965
     39  CA        20.6780   -5.9140   44.9890 C.3   102  ALA102      0.1728
     40  C         20.5060   -5.3590   46.3810 C.2   102  ALA102      0.2617
     41  O         19.8070   -4.3440   46.5700 O.2   102  ALA102     -0.2715
     42  CB        21.8090   -5.1410   44.2720 C.3   102  ALA102      0.0334
     43  N         21.2260   -5.9530   47.3280 N.am  103  GLY103     -0.1940
     44  CA        21.2230   -5.5000   48.7060 C.3   103  GLY103      0.2014
     45  C         21.7570   -6.5450   49.6460 C.2   103  GLY103      0.2639
     46  O         22.3720   -7.5400   49.2250 O.2   103  GLY103     -0.2714
     47  N         21.4990   -6.3360   50.9240 N.am  104  GLY104     -0.1939
     48  CA        21.9860   -7.1690   51.9860 C.3   104  GLY104      0.2014
     49  C         20.8610   -7.9730   52.6090 C.2   104  GLY104      0.2639
     50  O         19.8990   -7.3880   53.1530 O.2   104  GLY104     -0.2714
     51  N         20.9450   -9.2910   52.4940 N.am  105  LEU105     -0.1963
     52  CA        19.9970  -10.1980   53.1260 C.3   105  LEU105      0.1728
     53  C         20.5590  -10.7190   54.4020 C.2   105  LEU105      0.2616
     54  O         21.6200  -11.3190   54.4090 O.2   105  LEU105     -0.2715
     55  CB        19.6830  -11.3840   52.1460 C.3   105  LEU105      0.0311
     56  CG        18.6330  -12.3960   52.5390 C.3   105  LEU105      0.0022
     57  CD1       17.2590  -11.7350   52.5290 C.3   105  LEU105      0.0001
     58  CD2       18.6770  -13.5060   51.4670 C.3   105  LEU105      0.0001
     59  N         19.8370  -10.5040   55.4970 N.am  106  ALA106     -0.1963
     60  CA        20.1920  -11.1230   56.7630 C.3   106  ALA106      0.1728
     61  C         19.1630  -12.1230   57.2270 C.2   106  ALA106      0.2616
     62  O         17.8900  -11.8630   57.2330 O.2   106  ALA106     -0.2715
     63  CB        20.3330  -10.0550   57.8340 C.3   106  ALA106      0.0334
     64  N         19.6590  -13.2580   57.7030 N.am  107  ILE107     -0.1963
     65  CA        18.7530  -14.2700   58.3150 C.3   107  ILE107      0.1727
     66  C         19.2120  -14.4750   59.7070 C.2   107  ILE107      0.2616
     67  O         20.3970  -14.7320   59.8920 O.2   107  ILE107     -0.2715
     68  CB        18.8100  -15.5940   57.5710 C.3   107  ILE107      0.0290
     69  CG1       18.3170  -15.3470   56.1360 C.3   107  ILE107      0.0022
     70  CG2       17.9470  -16.6840   58.2190 C.3   107  ILE107      0.0023
     71  CD1       19.3120  -15.6320   55.1120 C.3   107  ILE107      0.0001
     72  N         18.3280  -14.3060   60.6650 N.am  108  ALA108     -0.1963
     73  CA        18.6380  -14.5250   62.0670 C.3   108  ALA108      0.1728
     74  C         17.6770  -15.4740   62.6930 C.2   108  ALA108      0.2616
     75  O         16.4750  -15.5420   62.3060 O.2   108  ALA108     -0.2715
     76  CB        18.6520  -13.2200   62.8450 C.3   108  ALA108      0.0334
     77  N         18.1900  -16.2710   63.6290 N.am  109  VAL109     -0.1963
     78  CA        17.3810  -17.2580   64.3650 C.3   109  VAL109      0.1727
     79  C         17.7040  -16.9930   65.8170 C.2   109  VAL109      0.2616
     80  O         18.8970  -17.0310   66.2450 O.2   109  VAL109     -0.2715
     81  CB        17.7150  -18.7350   64.0010 C.3   109  VAL109      0.0290
     82  CG1       16.8220  -19.6790   64.8200 C.3   109  VAL109      0.0023
     83  CG2       17.5020  -18.9570   62.5130 C.3   109  VAL109      0.0023
     84  N         16.6660  -16.7320   66.5820 N.am  110  GLU110     -0.1963
     85  CA        16.7870  -16.5390   68.0020 C.3   110  GLU110      0.1733
     86  C         16.0040  -17.6030   68.7920 C.2   110  GLU110      0.2617
     87  O         14.8360  -17.8630   68.5270 O.2   110  GLU110     -0.2715
     88  CB        16.3360  -15.1130   68.4120 C.3   110  GLU110      0.0429
     89  CG        17.1620  -13.9880   67.7940 C.3   110  GLU110      0.1163
     90  CD        16.6890  -12.5560   68.2400 C.2   110  GLU110      0.3649
     91  OE1       16.7080  -12.1850   69.4100 O.co2 110  GLU110     -0.2457
     92  OE2       16.3020  -11.7400   67.3840 O.co2 110  GLU110     -0.2457
     93  N         16.6220  -18.1160   69.8420 N.am  111  GLY111     -0.1941
     94  CA        15.8920  -19.0470   70.7320 C.3   111  GLY111      0.1998
     95  C         16.8360  -19.8520   71.5930 C.2   111  GLY111      0.2481
     96  O         18.0000  -19.4400   71.7690 O.2   111  GLY111     -0.2729
     97  N         16.3690  -21.0190   72.0980 N.am  112  PRO112     -0.2715
     98  CA        17.1700  -21.6880   73.1290 C.3   112  PRO112      0.1536
     99  C         18.4570  -22.4100   72.7040 C.2   112  PRO112      0.2599
    100  O         19.0900  -23.0180   73.5370 O.2   112  PRO112     -0.2715
    101  CB        16.1730  -22.6500   73.8270 C.3   112  PRO112      0.0310
    102  CG        14.9790  -22.7030   72.9880 C.3   112  PRO112      0.0237
    103  CD        14.9830  -21.5060   72.0770 C.3   112  PRO112      0.0939
    104  N         18.8020  -22.4060   71.4370 N.am  113  SER113     -0.1936
    105  CA        20.1060  -22.9610   71.0260 C.3   113  SER113      0.2055
    106  C         20.5260  -22.1830   69.7990 C.2   113  SER113      0.2643
    107  O         19.6880  -21.4760   69.1960 O.2   113  SER113     -0.2714
    108  CB        20.0530  -24.5230   70.8120 C.3   113  SER113      0.2130
    109  OG        19.0670  -24.8690   69.8540 O.3   113  SER113     -0.2179
    110  N         21.8030  -22.2910   69.4590 N.am  114  LYS114     -0.1963
    111  CA        22.3950  -21.6470   68.2690 C.3   114  LYS114      0.1728
    112  C         21.9870  -22.4250   66.9950 C.2   114  LYS114      0.2616
    113  O         22.0670  -23.6490   66.9360 O.2   114  LYS114     -0.2715
    114  CB        23.9380  -21.5810   68.4290 C.3   114  LYS114      0.0311
    115  CG        24.6810  -20.6810   67.4010 C.3   114  LYS114      0.0038
    116  CD        24.7440  -19.2110   67.7970 C.3   114  LYS114      0.0206
    117  CE        25.5610  -18.3240   66.8420 C.3   114  LYS114      0.1093
    118  NZ        25.7620  -16.8800   67.2420 N.3   114  LYS114     -0.1314
    119  N         21.5670  -21.7180   65.9650 N.am  115  ALA115     -0.1977
    120  CA        21.2040  -22.3030   64.6980 C.3   115  ALA115      0.1597
    121  C         22.4150  -22.3800   63.7770 C.2   115  ALA115      0.2287
    122  O         23.2670  -21.4540   63.7430 O.2   115  ALA115     -0.2864
    123  CB        20.1430  -21.4380   64.0320 C.3   115  ALA115      0.0319
    124  N         22.9170  -22.2820   59.8940 N.3   117  ILE117     -0.1245
    125  CA        22.1380  -21.7340   58.7520 C.3   117  ILE117      0.1561
    126  C         22.8490  -22.0280   57.4260 C.2   117  ILE117      0.2260
    127  O         24.0880  -21.7450   57.2650 O.2   117  ILE117     -0.2867
    128  CB        21.8620  -20.2190   58.9280 C.3   117  ILE117      0.0252
    129  CG1       21.2020  -19.9900   60.2820 C.3   117  ILE117      0.0019
    130  CG2       20.9660  -19.6800   57.8100 C.3   117  ILE117      0.0019
    131  CD1       21.2260  -18.5380   60.7140 C.3   117  ILE117      0.0001
    132  N         22.5430  -21.5080   53.0760 N.3   119  PHE119     -0.1241
    133  CA        22.0370  -20.6340   52.0290 C.3   119  PHE119      0.1605
    134  C         22.2940  -21.2630   50.6580 C.2   119  PHE119      0.2264
    135  O         23.3760  -21.7530   50.3500 O.2   119  PHE119     -0.2867
    136  CB        22.6290  -19.1900   52.1440 C.3   119  PHE119      0.0534
    137  CG        22.3860  -18.3220   50.9210 C.ar  119  PHE119     -0.0203
    138  CD1       21.1910  -17.6000   50.7630 C.ar  119  PHE119     -0.0042
    139  CD2       23.3390  -18.1970   49.9510 C.ar  119  PHE119     -0.0042
    140  CE1       20.9740  -16.8160   49.6500 C.ar  119  PHE119     -0.0003
    141  CE2       23.1380  -17.3960   48.8400 C.ar  119  PHE119     -0.0003
    142  CZ        21.9440  -16.7010   48.6850 C.ar  119  PHE119     -0.0000
    143  N         21.7700  -19.9320   46.6950 N.3   121  ASP121     -0.1239
    144  CA        21.3510  -19.0310   45.6350 C.3   121  ASP121      0.1674
    145  C         20.8710  -19.9420   44.5210 C.2   121  ASP121      0.2266
    146  O         21.6010  -20.8000   44.0610 O.2   121  ASP121     -0.2867
    147  CB        22.4880  -18.1500   45.1130 C.3   121  ASP121      0.1410
    148  CG        21.9980  -17.1050   44.1130 C.2   121  ASP121      0.3668
    149  OD1       21.1550  -16.2730   44.4680 O.co2 121  ASP121     -0.2456
    150  OD2       22.4400  -17.1620   42.9470 O.co2 121  ASP121     -0.2456
    151  N         16.0700  -17.8250   46.6830 N.3   127  CYS127     -0.1235
    152  CA        17.0860  -18.3310   47.5660 C.3   127  CYS127      0.1677
    153  C         16.4560  -19.4620   48.3410 C.2   127  CYS127      0.2270
    154  O         15.3210  -19.3360   48.7280 O.2   127  CYS127     -0.2867
    155  CB        17.4840  -17.2100   48.5460 C.3   127  CYS127      0.0956
    156  SG        18.2120  -15.8640   47.5860 S.3   127  CYS127     -0.0801
    157  N         16.0540   -7.3560   54.6670 N.3   145  PHE145     -0.1227
    158  CA        16.7050   -6.8530   53.4790 C.3   145  PHE145      0.1736
    159  C         17.0950   -5.4170   53.8160 C.2   145  PHE145      0.2595
    160  O         16.2120   -4.5650   54.0790 O.2   145  PHE145     -0.2718
    161  CB        15.7220   -6.9380   52.3000 C.3   145  PHE145      0.0547
    162  CG        16.2860   -6.4390   50.9930 C.ar  145  PHE145     -0.0202
    163  CD1       17.0460   -7.2740   50.1900 C.ar  145  PHE145     -0.0042
    164  CD2       16.0670   -5.1240   50.5780 C.ar  145  PHE145     -0.0042
    165  CE1       17.5970   -6.8200   49.0010 C.ar  145  PHE145     -0.0003
    166  CE2       16.6060   -4.6620   49.3810 C.ar  145  PHE145     -0.0003
    167  CZ        17.3730   -5.5140   48.5990 C.ar  145  PHE145     -0.0000
    168  N         18.3920   -5.1500   53.7850 N.am  146  ASN146     -0.1960
    169  CA        18.9610   -3.9020   54.1770 C.3   146  ASN146      0.1819
    170  C         18.5000   -3.4420   55.5560 C.2   146  ASN146      0.2621
    171  O         18.1800   -2.2530   55.7800 O.2   146  ASN146     -0.2715
    172  CB        18.6640   -2.8720   53.0830 C.3   146  ASN146      0.1195
    173  CG        19.3300   -3.2300   51.7960 C.2   146  ASN146      0.2630
    174  OD1       20.1520   -4.1270   51.7700 O.2   146  ASN146     -0.2716
    175  ND2       19.0160   -2.5580   50.7460 N.am  146  ASN146     -0.0877
    176  N         18.4260   -4.3990   56.4500 N.am  147  GLU147     -0.1977
    177  CA        18.0490   -4.2060   57.8190 C.3   147  GLU147      0.1602
    178  C         16.5930   -3.8050   58.0310 C.2   147  GLU147      0.2287
    179  O         16.2170   -3.4150   59.1120 O.2   147  GLU147     -0.2864
    180  CB        19.0480   -3.2790   58.5320 C.3   147  GLU147      0.0415
    181  CG        20.4390   -3.9590   58.7170 C.3   147  GLU147      0.1163
    182  CD        20.3920   -5.1720   59.6310 C.2   147  GLU147      0.3649
    183  OE1       19.9360   -5.0230   60.7450 O.co2 147  GLU147     -0.2457
    184  OE2       20.7560   -6.2890   59.2460 O.co2 147  GLU147     -0.2457
@<TRIPOS>BOND
     1   150   148   ar
     2    35    34    1
     3    35    36    1
     4   146   145    2
     5   148   149   ar
     6   148   147    1
     7    38    36   am
     8    38    39    1
     9    42    39    1
    10    36    37    2
    11   145   144    1
    12    29    30    2
    13    29    28    1
    14    39    40    1
    15   147   144    1
    16   144   143    1
    17    32    31    1
    18    27    28    1
    19    28    31    1
    20    40    41    2
    21    40    43   am
    22   151   152    1
    23    31    33    1
    24    43    44    1
    25   152   153    1
    26   152   155    1
    27   156   155    1
    28   153   154    2
    29   167   165   ar
    30   167   166   ar
    31   142   141   ar
    32   142   140   ar
    33    44    45    1
    34   141   139   ar
    35   165   163   ar
    36    46    45    2
    37   166   164   ar
    38    45    47   am
    39   140   138   ar
    40   139   137   ar
    41   163   162   ar
    42   135   134    2
    43   164   162   ar
    44   134   133    1
    45   175   173   am
    46   138   137   ar
    47   137   136    1
    48    47    48    1
    49   162   161    1
    50    58    56    1
    51    13    12    1
    52    13    14    1
    53   174   173    2
    54   173   172    1
    55     8     9    1
    56    48    49    1
    57   133   136    1
    58   133   132    1
    59    55    56    1
    60    55    52    1
    61    15    14    1
    62   161   158    1
    63    12     9    1
    64    51    49   am
    65    51    52    1
    66    57    56    1
    67    49    50    2
    68     9    10    1
    69   172   169    1
    70    52    53    1
    71     3     4    2
    72     3     2    1
    73    11    10    2
    74   158   159    1
    75   158   157    1
    76   168   159   am
    77   168   169    1
    78   159   160    2
    79    10    16   am
    80     5     2    1
    81     5     6    1
    82   169   170    1
    83     2     1    1
    84    53    54    2
    85    53    59   am
    86     1     7    1
    87     7     6    1
    88    16    17    1
    89    71    69    1
    90    59    60    1
    91   170   171    2
    92   170   176   am
    93    17    18    1
    94    69    68    1
    95   176   177    1
    96    60    61    1
    97    60    63    1
    98    61    62    2
    99    61    64   am
   100    18    19    2
   101    18    20   am
   102   127   126    2
   103   126   125    1
   104    68    70    1
   105    68    65    1
   106    64    65    1
   107   130   128    1
   108   177   178    1
   109   177   180    1
   110   178   179    2
   111    20    21    1
   112    65    66    1
   113    23    22    2
   114   180   181    1
   115   181   182    1
   116   125   128    1
   117   125   124    1
   118   128   129    1
   119    22    21    1
   120   184   182   ar
   121    21    24    1
   122   182   183   ar
   123    66    67    2
   124    66    72   am
   125   129   131    1
   126    24    25    1
   127    24    26    1
   128    72    73    1
   129    73    74    1
   130    73    76    1
   131    75    74    2
   132    83    81    1
   133    74    77   am
   134    77    78    1
   135   122   121    2
   136   121   120    1
   137    81    78    1
   138    81    82    1
   139   123   120    1
   140    78    79    1
   141   120   119    1
   142    79    80    2
   143    79    84   am
   144   119   112   am
   145    84    85    1
   146   117   118    1
   147   117   116    1
   148   113   112    2
   149   112   111    1
   150    92    90   ar
   151   115   116    1
   152   115   114    1
   153    89    90    1
   154    89    88    1
   155    85    88    1
   156    85    86    1
   157    90    91   ar
   158   111   114    1
   159   111   110    1
   160    87    86    2
   161    86    93   am
   162   107   106    2
   163   110   106   am
   164   106   105    1
   165    93    94    1
   166   109   108    1
   167    94    95    1
   168   108   105    1
   169   105   104    1
   170   104    99   am
   171    95    96    2
   172    95    97   am
   173   103    97    1
   174   103   102    1
   175    97    98    1
   176    99    98    1
   177    99   100    2
   178   102   101    1
   179    98   101    1
