@<TRIPOS>MOLECULE
tmp/4p3wJ00.pdb
 172 175 0 0 0
SMALL
GASTEIGER

@<TRIPOS>ATOM
      1  N         30.3850  -26.5060   64.9710 N.3     3  HIS3       -0.1241
      2  CA        29.4050  -25.6380   64.4210 C.3     3  HIS3        0.1621
      3  C         29.8310  -25.1150   63.0230 C.2     3  HIS3        0.2264
      4  O         30.9200  -24.5390   62.8920 O.2     3  HIS3       -0.2867
      5  CB        29.1420  -24.5100   65.4270 C.3     3  HIS3        0.0745
      6  CG        28.1060  -23.5350   64.9730 C.ar    3  HIS3        0.0817
      7  ND1       28.4290  -22.3310   64.3830 N.ar    3  HIS3       -0.2268
      8  CD2       26.7540  -23.5850   65.0100 C.ar    3  HIS3        0.1154
      9  CE1       27.3210  -21.6800   64.0800 C.ar    3  HIS3        0.1986
     10  NE2       26.2930  -22.4250   64.4330 N.ar    3  HIS3       -0.2212
     11  N         29.7250  -22.3500   60.7400 N.3     5  ASP5       -0.1225
     12  CA        29.4640  -20.9500   60.8740 C.3     5  ASP5        0.1805
     13  C         28.6250  -20.4850   59.7050 C.2     5  ASP5        0.2597
     14  O         27.7890  -19.6110   59.8760 O.2     5  ASP5       -0.2718
     15  CB        30.7780  -20.1710   60.9950 C.3     5  ASP5        0.1424
     16  CG        31.5500  -20.5720   62.2470 C.2     5  ASP5        0.3668
     17  OD1       31.1100  -20.1600   63.3060 O.co2   5  ASP5       -0.2456
     18  OD2       32.5660  -21.2380   62.1700 O.co2   5  ASP5       -0.2456
     19  N         28.8730  -21.0970   58.5400 N.am    6  LEU6       -0.1979
     20  CA        28.0780  -20.8380   57.3590 C.3     6  LEU6        0.1596
     21  C         28.0830  -22.0760   56.4790 C.2     6  LEU6        0.2287
     22  O         29.1440  -22.7110   56.3360 O.2     6  LEU6       -0.2864
     23  CB        28.6970  -19.6300   56.6620 C.3     6  LEU6        0.0297
     24  CG        27.9520  -19.1820   55.4310 C.3     6  LEU6        0.0022
     25  CD1       26.5210  -18.7480   55.7340 C.3     6  LEU6        0.0001
     26  CD2       28.7320  -18.0760   54.7850 C.3     6  LEU6        0.0001
     27  N         28.3230  -16.6500   44.5590 N.3    66  PRO66      -0.2102
     28  CA        27.0760  -15.8960   44.8120 C.3    66  PRO66       0.1504
     29  C         26.7860  -15.7590   46.2840 C.2    66  PRO66       0.2576
     30  O         26.8270  -16.7630   47.0150 O.2    66  PRO66      -0.2718
     31  CB        26.0200  -16.7390   44.1190 C.3    66  PRO66       0.0282
     32  CG        26.7770  -17.3910   42.9820 C.3    66  PRO66       0.0208
     33  CD        28.1000  -17.7030   43.5620 C.3    66  PRO66       0.0893
     34  N         26.6320  -14.5030   46.7170 N.am   67  GLY67      -0.1943
     35  CA        26.4520  -14.1690   48.1220 C.3    67  GLY67       0.2014
     36  C         27.6460  -13.5880   48.8730 C.2    67  GLY67       0.2640
     37  O         27.4490  -12.9440   49.8770 O.2    67  GLY67      -0.2714
     38  N         28.8450  -13.7750   48.3510 N.am   68  SER68      -0.1936
     39  CA        30.0680  -13.3380   49.0000 C.3    68  SER68       0.2040
     40  C         30.2690  -11.8260   48.7930 C.2    68  SER68       0.2485
     41  O         29.9310  -11.3190   47.7440 O.2    68  SER68      -0.2729
     42  CB        31.2400  -14.1280   48.4490 C.3    68  SER68       0.2129
     43  OG        32.4340  -13.7980   49.1270 O.3    68  SER68      -0.2179
     44  N         30.7750  -11.0820   49.7620 N.am   69  PRO69      -0.2715
     45  CA        31.1010  -11.5210   51.1200 C.3    69  PRO69       0.1536
     46  C         29.8900  -11.7960   52.0360 C.2    69  PRO69       0.2599
     47  O         28.8760  -11.0150   52.0360 O.2    69  PRO69      -0.2715
     48  CB        31.9280  -10.3420   51.6530 C.3    69  PRO69       0.0310
     49  CG        31.4030   -9.1400   50.9190 C.3    69  PRO69       0.0237
     50  CD        31.0070   -9.6400   49.5510 C.3    69  PRO69       0.0939
     51  N         30.0330  -12.8430   52.8420 N.am   70  PHE70      -0.1960
     52  CA        29.0710  -13.1820   53.8510 C.3    70  PHE70       0.1771
     53  C         29.5420  -12.6530   55.1650 C.2    70  PHE70       0.2619
     54  O         30.6920  -12.2620   55.3030 O.2    70  PHE70      -0.2715
     55  CB        28.8930  -14.6790   54.0050 C.3    70  PHE70       0.0574
     56  CG        28.5000  -15.3450   52.7460 C.ar   70  PHE70      -0.0200
     57  CD1       27.1770  -15.4960   52.4210 C.ar   70  PHE70      -0.0042
     58  CD2       29.4720  -15.8710   51.8800 C.ar   70  PHE70      -0.0042
     59  CE1       26.8190  -16.1720   51.2710 C.ar   70  PHE70      -0.0003
     60  CE2       29.1010  -16.5320   50.7280 C.ar   70  PHE70      -0.0003
     61  CZ        27.7650  -16.6130   50.4020 C.ar   70  PHE70      -0.0000
     62  N         28.6250  -12.5230   56.1050 N.am   71  GLN71      -0.1963
     63  CA        29.0110  -12.2270   57.4610 C.3    71  GLN71       0.1733
     64  C         28.2600  -13.1570   58.3880 C.2    71  GLN71       0.2616
     65  O         27.2010  -13.6670   58.0440 O.2    71  GLN71      -0.2715
     66  CB        28.7710  -10.7920   57.8560 C.3    71  GLN71       0.0408
     67  CG        29.4150   -9.7600   56.9590 C.3    71  GLN71       0.0908
     68  CD        29.1470   -8.3260   57.4330 C.2    71  GLN71       0.2608
     69  OE1       28.0320   -7.9130   57.5750 O.2    71  GLN71      -0.2717
     70  NE2       30.2180   -7.5370   57.5890 N.am   71  GLN71      -0.0878
     71  N         28.8250  -13.3670   59.5610 N.am   72  PHE72      -0.1960
     72  CA        28.1870  -14.1370   60.5970 C.3    72  PHE72       0.1771
     73  C         28.6630  -13.6260   61.9550 C.2    72  PHE72       0.2620
     74  O         29.7420  -13.0520   62.0840 O.2    72  PHE72      -0.2715
     75  CB        28.4960  -15.6580   60.4340 C.3    72  PHE72       0.0574
     76  CG        29.9760  -15.9910   60.5540 C.ar   72  PHE72      -0.0200
     77  CD1       30.5260  -16.2510   61.7820 C.ar   72  PHE72      -0.0042
     78  CD2       30.8110  -16.0330   59.4290 C.ar   72  PHE72      -0.0042
     79  CE1       31.8970  -16.5290   61.9240 C.ar   72  PHE72      -0.0003
     80  CE2       32.1870  -16.2790   59.5720 C.ar   72  PHE72      -0.0003
     81  CZ        32.7200  -16.5380   60.8180 C.ar   72  PHE72      -0.0000
     82  N         27.8670  -13.8700   62.9790 N.am   73  THR73      -0.1951
     83  CA        28.2060  -13.4240   64.3410 C.3    73  THR73       0.1897
     84  C         28.6670  -14.6620   65.0970 C.2    73  THR73       0.2313
     85  O         28.2340  -15.7880   64.7970 O.2    73  THR73      -0.2863
     86  CB        26.9800  -12.9240   65.0620 C.3    73  THR73       0.1794
     87  OG1       25.9560  -13.9650   64.9980 O.3    73  THR73      -0.2208
     88  CG2       26.5120  -11.6120   64.4420 C.3    73  THR73       0.0378
     89  N         29.6240  -16.7160   68.9370 N.3    75  GLY75      -0.1210
     90  CA        29.2100  -16.8240   70.3470 C.3    75  GLY75       0.1940
     91  C         27.7960  -17.4140   70.4790 C.2    75  GLY75       0.2453
     92  O         27.0280  -17.4340   69.5090 O.2    75  GLY75      -0.2732
     93  N         27.3940  -17.8420   71.6660 N.am   76  PRO76      -0.2728
     94  CA        28.1680  -17.7120   72.8750 C.3    76  PRO76       0.1401
     95  C         29.2220  -18.8040   73.0050 C.2    76  PRO76       0.2269
     96  O         29.2370  -19.7750   72.2470 O.2    76  PRO76      -0.2865
     97  CB        27.1190  -17.8300   73.9750 C.3    76  PRO76       0.0296
     98  CG        26.0500  -18.6940   73.3560 C.3    76  PRO76       0.0237
     99  CD        26.0070  -18.2740   71.9220 C.3    76  PRO76       0.0939
    100  N         22.6390   -8.2020   74.2370 N.3   154  LYS154     -0.1245
    101  CA        23.2680   -9.4950   74.1760 C.3   154  LYS154      0.1561
    102  C         24.7180   -9.4250   74.5410 C.2   154  LYS154      0.2260
    103  O         25.3740   -8.4860   74.1590 O.2   154  LYS154     -0.2867
    104  CB        23.1420  -10.0630   72.7510 C.3   154  LYS154      0.0271
    105  CG        21.7020  -10.3220   72.2710 C.3   154  LYS154      0.0035
    106  CD        21.6260  -10.6540   70.7650 C.3   154  LYS154      0.0206
    107  CE        22.0980   -9.4800   69.8930 C.3   154  LYS154      0.1093
    108  NZ        21.9230   -9.8120   68.4750 N.3   154  LYS154     -0.1314
    109  N         26.2800  -12.7970   71.8740 N.3   157  GLU157     -0.1231
    110  CA        25.1100  -13.2440   71.1210 C.3   157  GLU157      0.1699
    111  C         24.1050  -14.0660   71.8900 C.2   157  GLU157      0.2592
    112  O         23.1870  -14.6280   71.2970 O.2   157  GLU157     -0.2718
    113  CB        25.5290  -13.9540   69.8120 C.3   157  GLU157      0.0402
    114  CG        26.1670  -12.9840   68.8380 C.3   157  GLU157      0.1161
    115  CD        25.1400  -11.9660   68.3530 C.2   157  GLU157      0.3649
    116  OE1       24.0790  -12.3640   67.8580 O.co2 157  GLU157     -0.2457
    117  OE2       25.3360  -10.7720   68.5410 O.co2 157  GLU157     -0.2457
    118  N         24.1980  -14.0480   73.2100 N.am  158  GLU158     -0.1966
    119  CA        23.1390  -14.5300   74.0910 C.3   158  GLU158      0.1733
    120  C         22.4430  -13.3280   74.7680 C.2   158  GLU158      0.2616
    121  O         23.1410  -12.4410   75.3520 O.2   158  GLU158     -0.2715
    122  CB        23.7410  -15.4430   75.1200 C.3   158  GLU158      0.0429
    123  CG        22.7740  -15.9750   76.1430 C.3   158  GLU158      0.1163
    124  CD        23.2550  -17.2510   76.8500 C.2   158  GLU158      0.3649
    125  OE1       24.2520  -17.8740   76.4610 O.co2 158  GLU158     -0.2457
    126  OE2       22.6340  -17.5950   77.8280 O.co2 158  GLU158     -0.2457
    127  N         21.1360  -13.2790   74.7020 N.am  159  HIS159     -0.1959
    128  CA        20.3490  -12.2310   75.4360 C.3   159  HIS159      0.1787
    129  C         20.6360  -12.3290   76.9450 C.2   159  HIS159      0.2620
    130  O         20.6490  -13.4020   77.5680 O.2   159  HIS159     -0.2715
    131  CB        18.8450  -12.3660   75.2420 C.3   159  HIS159      0.0785
    132  CG        18.3600  -11.9710   73.8850 C.ar  159  HIS159      0.0821
    133  ND1       17.8690  -10.7170   73.6140 N.ar  159  HIS159     -0.2267
    134  CD2       18.3460  -12.6380   72.7060 C.ar  159  HIS159      0.1154
    135  CE1       17.4830  -10.6500   72.3550 C.ar  159  HIS159      0.1986
    136  NE2       17.8210  -11.7830   71.7640 N.ar  159  HIS159     -0.2212
    137  N         20.8190  -11.1850   77.5520 N.am  160  ILE160     -0.1964
    138  CA        21.0130  -11.1270   79.0010 C.3   160  ILE160      0.1712
    139  C         19.6350  -11.3230   79.6050 C.2   160  ILE160      0.2458
    140  O         18.6320  -11.2110   78.8970 O.2   160  ILE160     -0.2730
    141  CB        21.6290   -9.7680   79.3940 C.3   160  ILE160      0.0289
    142  CG1       20.6500   -8.5460   79.1620 C.3   160  ILE160      0.0022
    143  CG2       22.9250   -9.6140   78.6300 C.3   160  ILE160      0.0023
    144  CD1       21.0660   -7.2540   79.8830 C.3   160  ILE160      0.0001
    145  N         19.5690  -11.5740   80.9250 N.am  161  PRO161     -0.2716
    146  CA        18.3080  -11.5710   81.6170 C.3   161  PRO161      0.1536
    147  C         17.3730  -10.4110   81.2940 C.2   161  PRO161      0.2599
    148  O         17.7930   -9.2320   81.2580 O.2   161  PRO161     -0.2715
    149  CB        18.7240  -11.5570   83.0980 C.3   161  PRO161      0.0310
    150  CG        20.0420  -12.3020   83.0780 C.3   161  PRO161      0.0237
    151  CD        20.6840  -11.6910   81.8830 C.3   161  PRO161      0.0939
    152  N         16.1200  -10.7460   81.0080 N.am  162  ASP162     -0.1958
    153  CA        15.0380   -9.8100   80.6060 C.3   162  ASP162      0.1840
    154  C         15.1290   -9.1840   79.2060 C.2   162  ASP162      0.2623
    155  O         14.2330   -8.3720   78.8120 O.2   162  ASP162     -0.2715
    156  CB        14.8000   -8.7510   81.6670 C.3   162  ASP162      0.1450
    157  CG        14.3740   -9.3720   83.0010 C.2   162  ASP162      0.3671
    158  OD1       13.4780  -10.2330   83.0300 O.co2 162  ASP162     -0.2456
    159  OD2       14.9700   -9.0070   84.0130 O.co2 162  ASP162     -0.2456
    160  N         16.1430   -9.5320   78.4290 N.am  163  SER163     -0.1936
    161  CA        16.2430   -9.0430   77.0430 C.3   163  SER163      0.2040
    162  C         15.5220  -10.0910   76.1920 C.2   163  SER163      0.2485
    163  O         15.7300  -11.2760   76.4450 O.2   163  SER163     -0.2729
    164  CB        17.7050   -8.9930   76.5830 C.3   163  SER163      0.2129
    165  OG        17.7370   -8.5410   75.2210 O.3   163  SER163     -0.2179
    166  N         14.6660   -9.7140   75.2300 N.am  164  PRO164     -0.2726
    167  CA        14.5220   -8.3640   74.7260 C.3   164  PRO164      0.1402
    168  C         13.5060   -7.5530   75.5140 C.2   164  PRO164      0.2269
    169  O         12.6070   -8.0940   76.0660 O.2   164  PRO164     -0.2865
    170  CB        14.0290   -8.5760   73.2960 C.3   164  PRO164      0.0296
    171  CG        13.3460   -9.9020   73.3060 C.3   164  PRO164      0.0237
    172  CD        14.0640  -10.7230   74.3310 C.3   164  PRO164      0.0939
@<TRIPOS>BOND
     1    32    33    1
     2    32    31    1
     3    33    27    1
     4    31    28    1
     5    27    28    1
     6    28    29    1
     7    29    34   am
     8    29    30    2
     9    34    35    1
    10    41    40    2
    11    35    36    1
    12    38    36   am
    13    38    39    1
    14    42    39    1
    15    42    43    1
    16    40    39    1
    17    40    44   am
    18    36    37    2
    19    50    44    1
    20    50    49    1
    21    44    45    1
    22    61    60   ar
    23    61    59   ar
    24    60    58   ar
    25    49    48    1
    26    45    48    1
    27    45    46    1
    28    59    57   ar
    29    58    56   ar
    30    46    47    2
    31    46    51   am
    32    57    56   ar
    33    56    55    1
    34    51    52    1
    35    52    55    1
    36    52    53    1
    37    26    24    1
    38    53    54    2
    39    53    62   am
    40    24    25    1
    41    24    23    1
    42    62    63    1
    43    22    21    2
    44    21    20    1
    45    23    20    1
    46    67    68    1
    47    67    66    1
    48    20    19    1
    49    68    69    2
    50    68    70   am
    51    63    66    1
    52    63    64    1
    53    65    64    2
    54    64    71   am
    55    19    13   am
    56    78    80   ar
    57    78    76   ar
    58    71    72    1
    59    80    81   ar
    60    13    14    2
    61    13    12    1
    62    75    76    1
    63    75    72    1
    64    76    77   ar
    65    72    73    1
    66    11    12    1
    67    81    79   ar
    68    12    15    1
    69    15    16    1
    70    77    79   ar
    71    73    74    2
    72    73    82   am
    73    18    16   ar
    74    16    17   ar
    75     4     3    2
    76    82    83    1
    77     3     2    1
    78     9     7   ar
    79     9    10   ar
    80    83    86    1
    81    83    84    1
    82     7     6   ar
    83     2     1    1
    84     2     5    1
    85    10     8   ar
    86    88    86    1
    87    85    84    2
    88     6     8   ar
    89     6     5    1
    90    87    86    1
    91   116   115   ar
    92   115   117   ar
    93   115   114    1
    94   108   107    1
    95   114   113    1
    96    89    90    1
    97    92    91    2
    98   113   110    1
    99   107   106    1
   100    90    91    1
   101    91    93   am
   102   106   105    1
   103   110   109    1
   104   110   111    1
   105   112   111    2
   106    93    99    1
   107    93    94    1
   108   136   135   ar
   109   136   134   ar
   110   111   118   am
   111    99    98    1
   112    96    95    2
   113   105   104    1
   114   135   133   ar
   115   134   132   ar
   116   104   101    1
   117    94    95    1
   118    94    97    1
   119   118   119    1
   120   170   171    1
   121   170   167    1
   122   171   172    1
   123    98    97    1
   124   133   132   ar
   125   132   131    1
   126   119   120    1
   127   119   122    1
   128   103   102    2
   129   101   100    1
   130   101   102    1
   131   172   166    1
   132   127   120   am
   133   127   128    1
   134   167   166    1
   135   167   168    1
   136   120   121    2
   137   122   123    1
   138   165   164    1
   139   166   162   am
   140   131   128    1
   141   128   129    1
   142   168   169    2
   143   123   124    1
   144   162   163    2
   145   162   161    1
   146   125   124   ar
   147   164   161    1
   148   124   126   ar
   149   129   137   am
   150   129   130    2
   151   161   160    1
   152   137   138    1
   153   160   154   am
   154   143   141    1
   155   155   154    2
   156   140   139    2
   157   138   141    1
   158   138   139    1
   159   142   141    1
   160   142   144    1
   161   154   153    1
   162   139   145   am
   163   153   152    1
   164   153   156    1
   165   145   146    1
   166   145   151    1
   167   152   147   am
   168   148   147    2
   169   147   146    1
   170   146   149    1
   171   156   157    1
   172   151   150    1
   173   157   158   ar
   174   157   159   ar
   175   150   149    1
