@<TRIPOS>MOLECULE
tmp/4p42A00.pdb
 165 159 0 0 0
SMALL
GASTEIGER

@<TRIPOS>ATOM
      1  N        -72.2280  -78.5240   12.5070 N.3    19  ILE19      -0.1245
      2  CA       -71.2890  -77.7560   13.3140 C.3    19  ILE19       0.1561
      3  C        -70.9900  -76.4140   12.6460 C.2    19  ILE19       0.2260
      4  O        -70.8960  -75.3790   13.3140 O.2    19  ILE19      -0.2867
      5  CB       -69.9800  -78.5380   13.5520 C.3    19  ILE19       0.0252
      6  CG1      -70.2570  -79.7720   14.4140 C.3    19  ILE19       0.0019
      7  CG2      -68.9350  -77.6610   14.2180 C.3    19  ILE19       0.0019
      8  CD1      -69.0230  -80.5770   14.7540 C.3    19  ILE19       0.0001
      9  N        -73.6110  -73.9840   13.3990 N.3    22  PHE22      -0.1227
     10  CA       -73.4700  -73.4140   14.7340 C.3    22  PHE22       0.1736
     11  C        -72.4290  -72.2950   14.7390 C.2    22  PHE22       0.2595
     12  O        -72.6340  -71.2450   15.3480 O.2    22  PHE22      -0.2718
     13  CB       -73.0850  -74.4860   15.7510 C.3    22  PHE22       0.0547
     14  CG       -72.6180  -73.9260   17.0620 C.ar   22  PHE22      -0.0202
     15  CD1      -73.5230  -73.3740   17.9530 C.ar   22  PHE22      -0.0042
     16  CD2      -71.2750  -73.9320   17.3980 C.ar   22  PHE22      -0.0042
     17  CE1      -73.0990  -72.8490   19.1600 C.ar   22  PHE22      -0.0003
     18  CE2      -70.8450  -73.4070   18.6030 C.ar   22  PHE22      -0.0003
     19  CZ       -71.7590  -72.8660   19.4850 C.ar   22  PHE22      -0.0000
     20  N        -71.3150  -72.5280   14.0540 N.am   23  ILE23      -0.1980
     21  CA       -70.2400  -71.5470   13.9730 C.3    23  ILE23       0.1595
     22  C        -70.7310  -70.2540   13.3200 C.2    23  ILE23       0.2287
     23  O        -70.4040  -69.1550   13.7720 O.2    23  ILE23      -0.2864
     24  CB       -69.0310  -72.1070   13.1950 C.3    23  ILE23       0.0276
     25  CG1      -68.4130  -73.2800   13.9600 C.3    23  ILE23       0.0022
     26  CG2      -67.9850  -71.0300   12.9630 C.3    23  ILE23       0.0022
     27  CD1      -67.2060  -73.8860   13.2800 C.3    23  ILE23       0.0001
     28  N        -72.7530  -68.4080   15.7860 N.3    26  LEU26      -0.1245
     29  CA       -71.8490  -67.8470   16.7840 C.3    26  LEU26       0.1561
     30  C        -71.2390  -66.5300   16.3010 C.2    26  LEU26       0.2260
     31  O        -71.1500  -65.5640   17.0560 O.2    26  LEU26      -0.2867
     32  CB       -70.7420  -68.8480   17.1270 C.3    26  LEU26       0.0270
     33  CG       -69.6820  -68.3760   18.1270 C.3    26  LEU26       0.0019
     34  CD1      -70.2900  -68.1900   19.5090 C.3    26  LEU26       0.0001
     35  CD2      -68.5080  -69.3410   18.1850 C.3    26  LEU26       0.0001
     36  N        -73.0270  -63.5830   18.3460 N.3    30  THR30      -0.1218
     37  CA       -72.1780  -63.4580   19.5290 C.3    30  THR30       0.1862
     38  C        -70.9050  -62.6590   19.2580 C.2    30  THR30       0.2287
     39  O        -70.6000  -61.7040   19.9730 O.2    30  THR30      -0.2866
     40  CB       -71.7800  -64.8370   20.0800 C.3    30  THR30       0.1770
     41  OG1      -72.9540  -65.5380   20.5050 O.3    30  THR30      -0.2211
     42  CG2      -70.8200  -64.6890   21.2570 C.3    30  THR30       0.0375
     43  N        -62.8650  -80.4050   12.0900 N.3    57  LEU57      -0.1245
     44  CA       -61.9640  -80.3560   13.2360 C.3    57  LEU57       0.1561
     45  C        -61.3470  -81.7270   13.4710 C.2    57  LEU57       0.2260
     46  O        -61.9380  -82.7450   13.1120 O.2    57  LEU57      -0.2867
     47  CB       -62.7190  -79.9200   14.4960 C.3    57  LEU57       0.0270
     48  CG       -62.5310  -78.5250   15.0850 C.3    57  LEU57       0.0019
     49  CD1      -62.8820  -77.4650   14.0710 C.3    57  LEU57       0.0001
     50  CD2      -63.3920  -78.3720   16.3250 C.3    57  LEU57       0.0001
     51  N        -56.9960  -80.1010   20.0480 N.3    80  ILE80      -0.1245
     52  CA       -57.6480  -79.6950   18.8080 C.3    80  ILE80       0.1561
     53  C        -56.6470  -79.2440   17.7440 C.2    80  ILE80       0.2260
     54  O        -55.6800  -78.5390   18.0370 O.2    80  ILE80      -0.2867
     55  CB       -58.6740  -78.5580   19.0730 C.3    80  ILE80       0.0252
     56  CG1      -60.0810  -79.1330   19.2240 C.3    80  ILE80       0.0019
     57  CG2      -58.6650  -77.5160   17.9620 C.3    80  ILE80       0.0019
     58  CD1      -60.2460  -80.0190   20.4230 C.3    80  ILE80       0.0001
     59  N        -55.4880  -73.6590   13.5920 N.3   106  ILE106     -0.1245
     60  CA       -55.7370  -73.6050   15.0280 C.3   106  ILE106      0.1561
     61  C        -55.2020  -74.8540   15.7180 C.2   106  ILE106      0.2260
     62  O        -55.6210  -75.9700   15.4110 O.2   106  ILE106     -0.2867
     63  CB       -57.2420  -73.4760   15.3470 C.3   106  ILE106      0.0252
     64  CG1      -57.8520  -72.2660   14.6370 C.3   106  ILE106      0.0019
     65  CG2      -57.4640  -73.3980   16.8520 C.3   106  ILE106      0.0019
     66  CD1      -59.3240  -72.0670   14.9250 C.3   106  ILE106      0.0001
     67  N        -58.5780  -77.7110   24.0340 N.3   110  MET110     -0.1245
     68  CA       -59.9230  -77.2220   24.2820 C.3   110  MET110      0.1570
     69  C        -60.5360  -77.9640   25.4660 C.2   110  MET110      0.2261
     70  O        -60.5520  -79.1950   25.5020 O.2   110  MET110     -0.2867
     71  CB       -60.7890  -77.3740   23.0310 C.3   110  MET110      0.0387
     72  CG       -62.2370  -76.9590   23.2130 C.3   110  MET110      0.0595
     73  SD       -63.1660  -77.0820   21.6730 S.3   110  MET110     -0.1393
     74  CE       -63.9710  -78.6660   21.8880 C.3   110  MET110      0.0692
     75  N        -67.6120  -74.8630   27.1990 N.3   129  ILE129     -0.1231
     76  CA       -66.5060  -75.0400   26.2650 C.3   129  ILE129      0.1692
     77  C        -65.6360  -73.7940   26.1200 C.2   129  ILE129      0.2592
     78  O        -66.1290  -72.7020   25.8340 O.2   129  ILE129     -0.2718
     79  CB       -67.0290  -75.4630   24.8750 C.3   129  ILE129      0.0266
     80  CG1      -67.8180  -76.7710   24.9900 C.3   129  ILE129      0.0019
     81  CG2      -65.8800  -75.6290   23.8940 C.3   129  ILE129      0.0020
     82  CD1      -68.5780  -77.1380   23.7380 C.3   129  ILE129      0.0001
     83  N        -64.3360  -73.9790   26.3240 N.am  130  PHE130     -0.1962
     84  CA       -63.3530  -72.9100   26.1910 C.3   130  PHE130      0.1771
     85  C        -61.9630  -73.5110   26.0290 C.2   130  PHE130      0.2619
     86  O        -61.7620  -74.6950   26.3020 O.2   130  PHE130     -0.2715
     87  CB       -63.3920  -71.9720   27.4020 C.3   130  PHE130      0.0574
     88  CG       -63.2090  -72.6710   28.7230 C.ar  130  PHE130     -0.0200
     89  CD1      -64.3070  -73.0900   29.4580 C.ar  130  PHE130     -0.0042
     90  CD2      -61.9390  -72.8970   29.2380 C.ar  130  PHE130     -0.0042
     91  CE1      -64.1460  -73.7280   30.6800 C.ar  130  PHE130     -0.0003
     92  CE2      -61.7680  -73.5320   30.4590 C.ar  130  PHE130     -0.0003
     93  CZ       -62.8730  -73.9500   31.1800 C.ar  130  PHE130     -0.0000
     94  N        -61.0030  -72.7020   25.5900 N.am  131  PHE131     -0.1974
     95  CA       -59.6320  -73.1780   25.4630 C.3   131  PHE131      0.1639
     96  C        -58.9080  -72.9930   26.7920 C.2   131  PHE131      0.2290
     97  O        -59.1040  -71.9950   27.4870 O.2   131  PHE131     -0.2864
     98  CB       -58.8990  -72.4550   24.3310 C.3   131  PHE131      0.0560
     99  CG       -59.1050  -73.0840   22.9790 C.ar  131  PHE131     -0.0200
    100  CD1      -58.2230  -74.0410   22.5060 C.ar  131  PHE131     -0.0042
    101  CD2      -60.1830  -72.7260   22.1870 C.ar  131  PHE131     -0.0042
    102  CE1      -58.4080  -74.6260   21.2660 C.ar  131  PHE131     -0.0003
    103  CE2      -60.3740  -73.3080   20.9450 C.ar  131  PHE131     -0.0003
    104  CZ       -59.4840  -74.2590   20.4840 C.ar  131  PHE131     -0.0000
    105  N        -59.7130  -64.2460   22.7390 N.3   168  TYR168     -0.1227
    106  CA       -61.1660  -64.3740   22.7100 C.3   168  TYR168      0.1736
    107  C        -61.6220  -65.8110   22.9730 C.2   168  TYR168      0.2595
    108  O        -62.7650  -66.0470   23.3620 O.2   168  TYR168     -0.2718
    109  CB       -61.7210  -63.8880   21.3660 C.3   168  TYR168      0.0548
    110  CG       -63.2320  -63.8760   21.3070 C.ar  168  TYR168     -0.0200
    111  CD1      -63.9590  -62.8090   21.8210 C.ar  168  TYR168     -0.0009
    112  CD2      -63.9330  -64.9360   20.7410 C.ar  168  TYR168     -0.0009
    113  CE1      -65.3420  -62.7960   21.7740 C.ar  168  TYR168      0.0417
    114  CE2      -65.3140  -64.9330   20.6910 C.ar  168  TYR168      0.0417
    115  CZ       -66.0140  -63.8620   21.2090 C.ar  168  TYR168      0.1957
    116  OH       -67.3880  -63.8570   21.1570 O.3   168  TYR168     -0.2866
    117  N        -60.7210  -66.7640   22.7730 N.am  169  LEU169     -0.1980
    118  CA       -61.0690  -68.1760   22.8680 C.3   169  LEU169      0.1596
    119  C        -60.9220  -68.7490   24.2800 C.2   169  LEU169      0.2287
    120  O        -61.2730  -69.9020   24.5190 O.2   169  LEU169     -0.2864
    121  CB       -60.2100  -68.9830   21.8890 C.3   169  LEU169      0.0297
    122  CG       -60.4950  -68.7600   20.3980 C.3   169  LEU169      0.0022
    123  CD1      -59.4710  -69.4600   19.5220 C.3   169  LEU169      0.0001
    124  CD2      -61.8960  -69.2290   20.0440 C.3   169  LEU169      0.0001
    125  N        -62.3140  -65.1750   30.5680 N.3   172  PRO172     -0.2102
    126  CA       -63.6340  -65.5690   31.0850 C.3   172  PRO172      0.1504
    127  C        -64.6510  -65.9400   30.0080 C.2   172  PRO172      0.2576
    128  O        -65.7710  -66.3160   30.3470 O.2   172  PRO172     -0.2718
    129  CB       -64.1080  -64.3140   31.8390 C.3   172  PRO172      0.0282
    130  CG       -62.9240  -63.3830   31.8790 C.3   172  PRO172      0.0208
    131  CD       -62.1080  -63.7240   30.6820 C.3   172  PRO172      0.0893
    132  N        -64.2730  -65.8380   28.7380 N.am  173  ASN173     -0.1961
    133  CA       -65.1490  -66.2650   27.6520 C.3   173  ASN173      0.1819
    134  C        -65.3450  -67.7780   27.6490 C.2   173  ASN173      0.2621
    135  O        -64.4130  -68.5320   27.9270 O.2   173  ASN173     -0.2715
    136  CB       -64.5910  -65.8180   26.2960 C.3   173  ASN173      0.1195
    137  CG       -64.7210  -64.3260   26.0700 C.2   173  ASN173      0.2630
    138  OD1      -65.4540  -63.6390   26.7800 O.2   173  ASN173     -0.2716
    139  ND2      -64.0080  -63.8170   25.0740 N.am  173  ASN173     -0.0877
    140  N        -66.5590  -68.2150   27.3310 N.am  174  ARG174     -0.1963
    141  CA       -66.8500  -69.6400   27.2250 C.3   174  ARG174      0.1729
    142  C        -68.1410  -69.8790   26.4500 C.2   174  ARG174      0.2616
    143  O        -69.0290  -69.0260   26.4260 O.2   174  ARG174     -0.2715
    144  CB       -66.9410  -70.2760   28.6170 C.3   174  ARG174      0.0348
    145  CG       -67.9490  -69.6180   29.5510 C.3   174  ARG174      0.0492
    146  CD       -67.7180  -70.0540   30.9970 C.3   174  ARG174      0.2205
    147  NE       -68.8380  -69.7150   31.8740 N.pl3 174  ARG174     -0.0865
    148  CZ       -68.9530  -68.5680   32.5330 C.cat 174  ARG174      0.5346
    149  NH1      -68.0140  -67.6390   32.4150 N.pl3 174  ARG174      0.1354
    150  NH2      -70.0050  -68.3460   33.3100 N.pl3 174  ARG174      0.1354
    151  N        -68.2330  -71.0450   25.8190 N.am  175  ILE175     -0.1963
    152  CA       -69.4580  -71.4770   25.1560 C.3   175  ILE175      0.1727
    153  C        -70.3000  -72.3160   26.1080 C.2   175  ILE175      0.2616
    154  O        -69.8510  -73.3600   26.5830 O.2   175  ILE175     -0.2715
    155  CB       -69.1670  -72.3010   23.8840 C.3   175  ILE175      0.0290
    156  CG1      -68.3110  -71.5000   22.9030 C.3   175  ILE175      0.0022
    157  CG2      -70.4700  -72.7410   23.2260 C.3   175  ILE175      0.0023
    158  CD1      -69.0350  -70.3380   22.2730 C.3   175  ILE175      0.0001
    159  N        -71.5100  -71.8520   26.3990 N.am  176  THR176     -0.1951
    160  CA       -72.4030  -72.5770   27.2960 C.3   176  THR176      0.1897
    161  C        -73.4760  -73.3420   26.5260 C.2   176  THR176      0.2313
    162  O        -74.2000  -72.7680   25.7130 O.2   176  THR176     -0.2863
    163  CB       -73.0800  -71.6290   28.3020 C.3   176  THR176      0.1794
    164  OG1      -72.0900  -71.0790   29.1790 O.3   176  THR176     -0.2208
    165  CG2      -74.1140  -72.3780   29.1260 C.3   176  THR176      0.0378
@<TRIPOS>BOND
     1    43    44    1
     2     1     2    1
     3     3     2    1
     4     3     4    2
     5    26    24    1
     6    46    45    2
     7    24    25    1
     8    24    21    1
     9    44    45    1
    10    44    47    1
    11    27    25    1
    12     2     5    1
    13    22    23    2
    14    22    21    1
    15     9    10    1
    16     5     7    1
    17     5     6    1
    18    59    60    1
    19    21    20    1
    20    20    11   am
    21    49    48    1
    22     6     8    1
    23    47    48    1
    24    64    66    1
    25    64    63    1
    26    10    11    1
    27    10    13    1
    28    11    12    2
    29    60    63    1
    30    60    61    1
    31    48    50    1
    32    63    65    1
    33    62    61    2
    34    13    14    1
    35    28    29    1
    36    30    29    1
    37    30    31    2
    38    29    32    1
    39    14    16   ar
    40    14    15   ar
    41    32    33    1
    42    16    18   ar
    43    53    54    2
    44    53    52    1
    45    15    17   ar
    46    57    55    1
    47    33    35    1
    48    33    34    1
    49    36    37    1
    50    18    19   ar
    51    52    55    1
    52    52    51    1
    53    55    56    1
    54    17    19   ar
    55    56    58    1
    56    38    37    1
    57    38    39    2
    58   123   122    1
    59    37    40    1
    60   124   122    1
    61    40    41    1
    62    40    42    1
    63   122   121    1
    64   104   103   ar
    65   104   102   ar
    66   114   112   ar
    67   114   115   ar
    68   112   110   ar
    69   103   101   ar
    70   116   115    1
    71   115   113   ar
    72   102   100   ar
    73   110   109    1
    74   110   111   ar
    75   109   106    1
    76    73    74    1
    77    73    72    1
    78   113   111   ar
    79   121   118    1
    80   101    99   ar
    81   158   156    1
    82   100    99   ar
    83   106   105    1
    84   106   107    1
    85   117   118    1
    86   117   107   am
    87   118   119    1
    88   156   155    1
    89   107   108    2
    90    99    98    1
    91    71    72    1
    92    71    68    1
    93   157   155    1
    94    82    80    1
    95   155   152    1
    96    81    79    1
    97    67    68    1
    98   119   120    2
    99    68    69    1
   100    98    95    1
   101    79    80    1
   102    79    76    1
   103   139   137   am
   104   152   151    1
   105   152   153    1
   106    95    94    1
   107    95    96    1
   108    69    70    2
   109    94    85   am
   110   162   161    2
   111   151   142   am
   112    78    77    2
   113    85    84    1
   114    85    86    2
   115   137   136    1
   116   137   138    2
   117   153   159   am
   118   153   154    2
   119    77    76    1
   120    77    83   am
   121    84    83    1
   122    84    87    1
   123    76    75    1
   124   136   133    1
   125   159   160    1
   126   143   142    2
   127   142   141    1
   128   161   160    1
   129    96    97    2
   130   141   140    1
   131   141   144    1
   132   160   163    1
   133   140   134   am
   134    87    88    1
   135   134   133    1
   136   134   135    2
   137   133   132    1
   138   163   165    1
   139   163   164    1
   140   144   145    1
   141    88    90   ar
   142    88    89   ar
   143   132   127   am
   144    90    92   ar
   145    89    91   ar
   146   145   146    1
   147   127   128    2
   148   127   126    1
   149    92    93   ar
   150   125   131    1
   151   125   126    1
   152    91    93   ar
   153   131   130    1
   154   146   147    1
   155   126   129    1
   156   129   130    1
   157   147   148    2
   158   149   148    1
   159   148   150    1
