@<TRIPOS>MOLECULE
tmp/4p42B00.pdb
 158 152 0 0 0
SMALL
GASTEIGER

@<TRIPOS>ATOM
      1  N        -76.0470  -92.2000   37.5910 N.3    18  ILE18      -0.1245
      2  CA       -76.5940  -93.2570   36.7540 C.3    18  ILE18       0.1561
      3  C        -77.4850  -94.1680   37.5880 C.2    18  ILE18       0.2260
      4  O        -78.5680  -94.5630   37.1550 O.2    18  ILE18      -0.2867
      5  CB       -75.4730  -94.0890   36.0900 C.3    18  ILE18       0.0252
      6  CG1      -74.6840  -93.2250   35.1030 C.3    18  ILE18       0.0019
      7  CG2      -76.0480  -95.3100   35.3850 C.3    18  ILE18       0.0019
      8  CD1      -73.5990  -93.9700   34.3590 C.3    18  ILE18       0.0001
      9  N        -80.7890  -92.6490   38.1010 N.3    21  PHE21      -0.1227
     10  CA       -81.6200  -92.8040   36.9130 C.3    21  PHE21       0.1736
     11  C        -82.2030  -94.2070   36.8160 C.2    21  PHE21       0.2595
     12  O        -83.3750  -94.3740   36.4840 O.2    21  PHE21      -0.2718
     13  CB       -80.8310  -92.4940   35.6410 C.3    21  PHE21       0.0547
     14  CG       -81.5080  -92.9710   34.3900 C.ar   21  PHE21      -0.0202
     15  CD1      -82.6240  -92.3170   33.8990 C.ar   21  PHE21      -0.0042
     16  CD2      -81.0420  -94.0860   33.7170 C.ar   21  PHE21      -0.0042
     17  CE1      -83.2580  -92.7600   32.7570 C.ar   21  PHE21      -0.0003
     18  CE2      -81.6710  -94.5340   32.5730 C.ar   21  PHE21      -0.0003
     19  CZ       -82.7820  -93.8690   32.0930 C.ar   21  PHE21      -0.0000
     20  N        -81.3770  -95.2090   37.1050 N.am   22  ILE22      -0.1980
     21  CA       -81.8040  -96.6010   37.0360 C.3    22  ILE22       0.1595
     22  C        -82.9580  -96.8540   38.0030 C.2    22  ILE22       0.2287
     23  O        -83.9340  -97.5240   37.6580 O.2    22  ILE22      -0.2864
     24  CB       -80.6330  -97.5650   37.3400 C.3    22  ILE22       0.0276
     25  CG1      -79.5640  -97.4570   36.2480 C.3    22  ILE22       0.0022
     26  CG2      -81.1240  -98.9990   37.4390 C.3    22  ILE22       0.0022
     27  CD1      -78.3770  -98.3800   36.4490 C.3    22  ILE22       0.0001
     28  N        -85.9470  -95.3820   36.5040 N.3    25  LEU25      -0.1245
     29  CA       -86.3620  -96.2430   35.4040 C.3    25  LEU25       0.1561
     30  C        -87.1710  -97.4320   35.9160 C.2    25  LEU25       0.2260
     31  O        -88.2130  -97.7740   35.3550 O.2    25  LEU25      -0.2867
     32  CB       -85.1400  -96.7420   34.6290 C.3    25  LEU25       0.0270
     33  CG       -85.4000  -97.7160   33.4780 C.3    25  LEU25       0.0019
     34  CD1      -86.1270  -97.0230   32.3360 C.3    25  LEU25       0.0001
     35  CD2      -84.1010  -98.3540   32.9990 C.3    25  LEU25       0.0001
     36  N        -91.0270  -96.7990   35.0370 N.3    29  THR29      -0.1218
     37  CA       -91.1800  -97.3870   33.7080 C.3    29  THR29       0.1862
     38  C        -91.3320  -98.9060   33.7650 C.2    29  THR29       0.2287
     39  O        -92.2700  -99.4640   33.1980 O.2    29  THR29      -0.2866
     40  CB       -89.9890  -97.0320   32.7980 C.3    29  THR29       0.1770
     41  OG1      -89.9460  -95.6140   32.5990 O.3    29  THR29      -0.2211
     42  CG2      -90.1200  -97.7210   31.4490 C.3    29  THR29       0.0375
     43  N        -70.5960 -100.0040   35.2430 N.3    56  LEU56      -0.1245
     44  CA       -70.4680 -100.7110   33.9760 C.3    56  LEU56       0.1561
     45  C        -69.1820 -100.2560   33.3000 C.2    56  LEU56       0.2260
     46  O        -68.7050  -99.1470   33.5440 O.2    56  LEU56      -0.2867
     47  CB       -71.6860 -100.4650   33.0740 C.3    56  LEU56       0.0270
     48  CG       -72.0480  -99.0410   32.6320 C.3    56  LEU56       0.0019
     49  CD1      -71.3340  -98.6460   31.3450 C.3    56  LEU56       0.0001
     50  CD2      -73.5500  -98.8940   32.4650 C.3    56  LEU56       0.0001
     51  N        -70.4400 -103.3680   26.0580 N.3    75  ILE75      -0.1245
     52  CA       -70.6700 -103.1420   27.4790 C.3    75  ILE75       0.1561
     53  C        -70.4250 -104.4020   28.3040 C.2    75  ILE75       0.2260
     54  O        -70.7760 -105.5110   27.8950 O.2    75  ILE75      -0.2867
     55  CB       -72.1080 -102.6170   27.7250 C.3    75  ILE75       0.0252
     56  CG1      -72.0960 -101.0990   27.9060 C.3    75  ILE75       0.0019
     57  CG2      -72.7280 -103.2360   28.9640 C.3    75  ILE75       0.0019
     58  CD1      -71.6600 -100.3390   26.6890 C.3    75  ILE75       0.0001
     59  N        -73.9380 -108.6080   32.8160 N.3   101  ILE101     -0.1245
     60  CA       -74.4220 -108.1580   31.5140 C.3   101  ILE101      0.1561
     61  C        -73.2680 -107.9790   30.5280 C.2   101  ILE101      0.2260
     62  O        -72.3500 -107.1940   30.7680 O.2   101  ILE101     -0.2867
     63  CB       -75.2020 -106.8260   31.6120 C.3   101  ILE101      0.0252
     64  CG1      -76.3760 -106.9470   32.5840 C.3   101  ILE101      0.0019
     65  CG2      -75.7070 -106.4010   30.2370 C.3   101  ILE101      0.0019
     66  CD1      -77.1950 -105.6770   32.7140 C.3   101  ILE101      0.0001
     67  N        -74.1550 -102.2470   23.2150 N.3   105  MET105     -0.1245
     68  CA       -75.1900 -101.2590   23.4610 C.3   105  MET105      0.1570
     69  C        -75.1480 -100.2140   22.3520 C.2   105  MET105      0.2261
     70  O        -74.0990  -99.6340   22.0710 O.2   105  MET105     -0.2867
     71  CB       -75.0070 -100.6150   24.8380 C.3   105  MET105      0.0387
     72  CG       -75.9880  -99.5000   25.1490 C.3   105  MET105      0.0595
     73  SD       -75.7840  -98.8550   26.8210 S.3   105  MET105     -0.1393
     74  CE       -74.7740  -97.4070   26.5070 C.3   105  MET105      0.0692
     75  N        -81.0610  -95.2390   23.1730 N.3   124  ILE124     -0.1231
     76  CA       -80.1850  -96.2370   23.7700 C.3   124  ILE124      0.1692
     77  C        -80.8760  -97.5890   23.8580 C.2   124  ILE124      0.2592
     78  O        -81.9520  -97.7050   24.4360 O.2   124  ILE124     -0.2718
     79  CB       -79.7330  -95.8080   25.1810 C.3   124  ILE124      0.0266
     80  CG1      -79.0490  -94.4400   25.1290 C.3   124  ILE124      0.0019
     81  CG2      -78.8240  -96.8580   25.8020 C.3   124  ILE124      0.0020
     82  CD1      -78.7900  -93.8410   26.4960 C.3   124  ILE124      0.0001
     83  N        -80.2440  -98.6060   23.2820 N.am  125  PHE125     -0.1962
     84  CA       -80.7710  -99.9650   23.3190 C.3   125  PHE125      0.1771
     85  C        -79.6740 -100.9780   23.0070 C.2   125  PHE125      0.2619
     86  O        -78.6300 -100.6260   22.4590 O.2   125  PHE125     -0.2715
     87  CB       -81.9290 -100.1260   22.3310 C.3   125  PHE125      0.0574
     88  CG       -81.5760  -99.7690   20.9130 C.ar  125  PHE125     -0.0200
     89  CD1      -81.1940 -100.7500   20.0130 C.ar  125  PHE125     -0.0042
     90  CD2      -81.6310  -98.4540   20.4770 C.ar  125  PHE125     -0.0042
     91  CE1      -80.8710 -100.4260   18.7070 C.ar  125  PHE125     -0.0003
     92  CE2      -81.3090  -98.1260   19.1710 C.ar  125  PHE125     -0.0003
     93  CZ       -80.9300  -99.1140   18.2850 C.ar  125  PHE125     -0.0000
     94  N        -79.9190 -102.2350   23.3570 N.am  126  PHE126     -0.1974
     95  CA       -78.9740 -103.3080   23.0730 C.3   126  PHE126      0.1639
     96  C        -79.2200 -103.9820   21.7260 C.2   126  PHE126      0.2290
     97  O        -80.3660 -104.1690   21.3160 O.2   126  PHE126     -0.2864
     98  CB       -79.0230 -104.3590   24.1820 C.3   126  PHE126      0.0560
     99  CG       -78.1420 -104.0450   25.3490 C.ar  126  PHE126     -0.0200
    100  CD1      -78.6060 -103.2670   26.3960 C.ar  126  PHE126     -0.0042
    101  CD2      -76.8460 -104.5280   25.4020 C.ar  126  PHE126     -0.0042
    102  CE1      -77.7940 -102.9760   27.4730 C.ar  126  PHE126     -0.0003
    103  CE2      -76.0270 -104.2400   26.4770 C.ar  126  PHE126     -0.0003
    104  CZ       -76.5030 -103.4640   27.5150 C.ar  126  PHE126     -0.0000
    105  N        -86.3680 -107.4160   26.9720 N.3   163  TYR163     -0.1227
    106  CA       -86.7480 -106.0830   27.4170 C.3   163  TYR163      0.1736
    107  C        -85.6750 -105.0590   27.0570 C.2   163  TYR163      0.2595
    108  O        -85.9520 -103.8620   26.9670 O.2   163  TYR163     -0.2718
    109  CB       -87.0000 -106.0690   28.9250 C.3   163  TYR163      0.0548
    110  CG       -87.5530 -104.7570   29.4330 C.ar  163  TYR163     -0.0200
    111  CD1      -88.9140 -104.4880   29.3740 C.ar  163  TYR163     -0.0009
    112  CD2      -86.7150 -103.7820   29.9560 C.ar  163  TYR163     -0.0009
    113  CE1      -89.4250 -103.2900   29.8320 C.ar  163  TYR163      0.0417
    114  CE2      -87.2170 -102.5810   30.4150 C.ar  163  TYR163      0.0417
    115  CZ       -88.5710 -102.3400   30.3500 C.ar  163  TYR163      0.1957
    116  OH       -89.0740 -101.1430   30.8070 O.3   163  TYR163     -0.2866
    117  N        -84.4530 -105.5370   26.8440 N.am  164  LEU164     -0.1980
    118  CA       -83.3220 -104.6510   26.5870 C.3   164  LEU164      0.1596
    119  C        -83.1060 -104.3330   25.1070 C.2   164  LEU164      0.2287
    120  O        -82.2700 -103.4960   24.7700 O.2   164  LEU164     -0.2864
    121  CB       -82.0380 -105.2530   27.1650 C.3   164  LEU164      0.0297
    122  CG       -81.8980 -105.2960   28.6870 C.3   164  LEU164      0.0022
    123  CD1      -80.6580 -106.0800   29.0750 C.3   164  LEU164      0.0001
    124  CD2      -81.8250 -103.8850   29.2390 C.3   164  LEU164      0.0001
    125  N        -88.1990 -103.2890   19.9900 N.3   167  PRO167     -0.2102
    126  CA       -88.4430 -101.8460   19.8710 C.3   167  PRO167      0.1504
    127  C        -88.2620 -101.0550   21.1740 C.2   167  PRO167      0.2576
    128  O        -88.4250  -99.8350   21.1570 O.2   167  PRO167     -0.2718
    129  CB       -89.9000 -101.7850   19.4060 C.3   167  PRO167      0.0282
    130  CG       -90.5190 -102.9860   20.0140 C.3   167  PRO167      0.0208
    131  CD       -89.4600 -104.0530   19.9950 C.3   167  PRO167      0.0893
    132  N        -87.9370 -101.7220   22.2770 N.am  168  ASN168     -0.1961
    133  CA       -87.6530 -100.9970   23.5120 C.3   168  ASN168      0.1819
    134  C        -86.3700 -100.1900   23.3770 C.2   168  ASN168      0.2621
    135  O        -85.3970 -100.6450   22.7720 O.2   168  ASN168     -0.2715
    136  CB       -87.5440 -101.9450   24.7080 C.3   168  ASN168      0.1195
    137  CG       -88.8870 -102.4970   25.1400 C.2   168  ASN168      0.2630
    138  OD1      -89.9360 -101.9980   24.7340 O.2   168  ASN168     -0.2716
    139  ND2      -88.8600 -103.5200   25.9890 N.am  168  ASN168     -0.0877
    140  N        -86.3780  -98.9900   23.9430 N.am  169  ARG169     -0.1963
    141  CA       -85.2050  -98.1280   23.9320 C.3   169  ARG169      0.1729
    142  C        -85.3380  -97.0130   24.9550 C.2   169  ARG169      0.2616
    143  O        -86.4480  -96.6470   25.3470 O.2   169  ARG169     -0.2715
    144  CB       -84.9830  -97.5420   22.5370 C.3   169  ARG169      0.0348
    145  CG       -86.1820  -96.7980   21.9750 C.3   169  ARG169      0.0492
    146  CD       -86.0260  -96.5860   20.4780 C.3   169  ARG169      0.2205
    147  NE       -86.9870  -95.6220   19.9510 N.pl3 169  ARG169     -0.0865
    148  CZ       -88.1980  -95.9430   19.5090 C.cat 169  ARG169      0.5346
    149  NH1      -88.6030  -97.2050   19.5370 N.pl3 169  ARG169      0.1354
    150  NH2      -89.0050  -95.0020   19.0420 N.pl3 169  ARG169      0.1354
    151  N        -84.2030  -96.4860   25.3970 N.am  170  ILE170     -0.1977
    152  CA       -84.2020  -95.3060   26.2450 C.3   170  ILE170      0.1596
    153  C        -84.1020  -94.0840   25.3450 C.2   170  ILE170      0.2287
    154  O        -83.1120  -93.9110   24.6320 O.2   170  ILE170     -0.2864
    155  CB       -83.0330  -95.3110   27.2510 C.3   170  ILE170      0.0276
    156  CG1      -83.0790  -96.5650   28.1270 C.3   170  ILE170      0.0022
    157  CG2      -83.0600  -94.0530   28.1100 C.3   170  ILE170      0.0022
    158  CD1      -84.2320  -96.5860   29.1000 C.3   170  ILE170      0.0001
@<TRIPOS>BOND
     1    93    91   ar
     2    93    92   ar
     3    91    89   ar
     4   150   148    1
     5    92    90   ar
     6   129   126    1
     7   129   130    1
     8   148   149    1
     9   148   147    2
    10   126   125    1
    11   126   127    1
    12   147   146    1
    13   125   131    1
    14   131   130    1
    15    89    88   ar
    16    90    88   ar
    17   146   145    1
    18    88    87    1
    19   128   127    2
    20   127   132   am
    21    97    96    2
    22    96    95    1
    23   145   144    1
    24    70    69    2
    25   132   133    1
    26    87    84    1
    27    69    68    1
    28    86    85    2
    29   144   141    1
    30   135   134    2
    31    85    84    1
    32    85    94   am
    33    95    94    1
    34    95    98    1
    35    75    76    1
    36    67    68    1
    37    83    84    1
    38    83    77   am
    39   134   133    1
    40   134   140   am
    41    68    71    1
    42   133   136    1
    43    76    77    1
    44    76    79    1
    45    77    78    2
    46   141   140    1
    47   141   142    1
    48    98    99    1
    49   154   153    2
    50   136   137    1
    51   138   137    2
    52   120   119    2
    53    71    72    1
    54   142   143    2
    55   142   151   am
    56   119   118    1
    57    80    79    1
    58    80    82    1
    59   137   139   am
    60    72    73    1
    61    79    81    1
    62   153   152    1
    63    99   101   ar
    64    99   100   ar
    65   151   152    1
    66   101   103   ar
    67    51    52    1
    68   152   155    1
    69   100   102   ar
    70   103   104   ar
    71    74    73    1
    72   118   117    1
    73   118   121    1
    74    58    56    1
    75   117   107   am
    76   108   107    2
    77   105   106    1
    78   107   106    1
    79   121   122    1
    80   155   157    1
    81   155   156    1
    82   106   109    1
    83   102   104   ar
    84    52    55    1
    85    52    53    1
    86    55    56    1
    87    55    57    1
    88    54    53    2
    89   156   158    1
    90   122   123    1
    91   122   124    1
    92   109   110    1
    93   111   110   ar
    94   111   113   ar
    95   110   112   ar
    96   113   115   ar
    97   112   114   ar
    98    65    63    1
    99   115   114   ar
   100   115   116    1
   101    61    62    2
   102    61    60    1
   103    49    48    1
   104    42    40    1
   105    60    63    1
   106    60    59    1
   107    63    64    1
   108    19    18   ar
   109    19    17   ar
   110    34    33    1
   111    50    48    1
   112    18    16   ar
   113    64    66    1
   114    41    40    1
   115    48    47    1
   116    17    15   ar
   117    40    37    1
   118    35    33    1
   119    47    44    1
   120    39    38    2
   121    45    46    2
   122    45    44    1
   123    33    32    1
   124    37    38    1
   125    37    36    1
   126    16    14   ar
   127    15    14   ar
   128    44    43    1
   129     8     6    1
   130    14    13    1
   131    32    29    1
   132     6     5    1
   133    31    30    2
   134     7     5    1
   135    29    30    1
   136    29    28    1
   137    13    10    1
   138     5     2    1
   139    25    27    1
   140    25    24    1
   141    12    11    2
   142     2     3    1
   143     2     1    1
   144    11    10    1
   145    11    20   am
   146    10     9    1
   147    21    20    1
   148    21    24    1
   149    21    22    1
   150     4     3    2
   151    24    26    1
   152    23    22    2
