@<TRIPOS>MOLECULE
tmp/4p45A07.pdb
 143 133 0 0 0
SMALL
GASTEIGER

@<TRIPOS>ATOM
      1  N         12.3930   42.5080   50.8080 N.3   323  HIS323     -0.1241
      2  CA        11.6250   41.5380   50.0220 C.3   323  HIS323      0.1621
      3  C         11.9620   40.0700   50.3380 C.2   323  HIS323      0.2264
      4  O         12.9550   39.7880   51.0240 O.2   323  HIS323     -0.2867
      5  CB        11.7200   41.8630   48.4950 C.3   323  HIS323      0.0745
      6  CG        13.0310   41.5640   47.8320 C.ar  323  HIS323      0.0817
      7  ND1       13.1760   40.4730   47.0200 N.ar  323  HIS323     -0.2268
      8  CD2       14.1500   42.3090   47.6440 C.ar  323  HIS323      0.1154
      9  CE1       14.3580   40.4870   46.4420 C.ar  323  HIS323      0.1986
     10  NE2       14.9760   41.5860   46.8100 N.ar  323  HIS323     -0.2212
     11  N         20.4290   37.5860   47.8350 N.3   333  ASP333     -0.1239
     12  CA        19.3730   38.5200   47.4280 C.3   333  ASP333      0.1674
     13  C         18.0530   37.7730   47.2870 C.2   333  ASP333      0.2266
     14  O         17.8310   37.1070   46.3000 O.2   333  ASP333     -0.2867
     15  CB        19.8290   39.1660   46.0950 C.3   333  ASP333      0.1410
     16  CG        18.8310   40.1530   45.5380 C.2   333  ASP333      0.3668
     17  OD1       17.9180   40.5570   46.2740 O.co2 333  ASP333     -0.2456
     18  OD2       18.9880   40.5120   44.3640 O.co2 333  ASP333     -0.2456
     19  N          9.4290   42.0870   44.4620 N.3   370  GLU370     -0.1231
     20  CA        10.3700   43.1870   44.3920 C.3   370  GLU370      0.1699
     21  C         11.1680   43.0230   43.0880 C.2   370  GLU370      0.2592
     22  O         11.4270   44.0150   42.3710 O.2   370  GLU370     -0.2718
     23  CB        11.3200   43.1570   45.5670 C.3   370  GLU370      0.0402
     24  CG        12.3230   44.3480   45.5810 C.3   370  GLU370      0.1161
     25  CD        13.5610   44.1900   44.7150 C.2   370  GLU370      0.3649
     26  OE1       13.8150   43.1000   44.1710 O.co2 370  GLU370     -0.2457
     27  OE2       14.3120   45.2080   44.6070 O.co2 370  GLU370     -0.2457
     28  N         11.5080   41.7880   42.7540 N.am  371  GLU371     -0.1979
     29  CA        12.3710   41.5700   41.5920 C.3   371  GLU371      0.1602
     30  C         11.7120   41.8850   40.2780 C.2   371  GLU371      0.2287
     31  O         12.4060   42.0300   39.2820 O.2   371  GLU371     -0.2864
     32  CB        12.9360   40.1250   41.5530 C.3   371  GLU371      0.0415
     33  CG        13.8600   39.7270   42.7460 C.3   371  GLU371      0.1163
     34  CD        15.2550   40.3750   42.7020 C.2   371  GLU371      0.3649
     35  OE1       15.5330   41.1510   41.8010 O.co2 371  GLU371     -0.2457
     36  OE2       16.0900   40.1380   43.5970 O.co2 371  GLU371     -0.2457
     37  N          9.5860   46.2140   42.1940 N.3   374  LEU374     -0.1245
     38  CA         9.2100   46.8270   43.4970 C.3   374  LEU374      0.1561
     39  C          7.6870   46.7620   43.6220 C.2   374  LEU374      0.2260
     40  O          7.0910   47.6510   44.2010 O.2   374  LEU374     -0.2867
     41  CB         9.7300   48.2990   43.6330 C.3   374  LEU374      0.0270
     42  CG        11.1090   48.5690   42.9790 C.3   374  LEU374      0.0019
     43  CD1       11.5370   50.0900   43.1540 C.3   374  LEU374      0.0001
     44  CD2       12.1810   47.6390   43.6680 C.3   374  LEU374      0.0001
     45  N         17.0480   44.5020   52.3970 N.3   399  ASP399     -0.1239
     46  CA        17.4020   43.5310   51.3850 C.3   399  ASP399      0.1674
     47  C         18.7940   42.9640   51.7970 C.2   399  ASP399      0.2266
     48  O         19.1760   43.0470   52.9820 O.2   399  ASP399     -0.2867
     49  CB        17.4110   44.1780   49.9640 C.3   399  ASP399      0.1410
     50  CG        17.2560   43.1650   48.8340 C.2   399  ASP399      0.3668
     51  OD1       17.2080   41.9560   49.1030 O.co2 399  ASP399     -0.2456
     52  OD2       17.2210   43.5510   47.6140 O.co2 399  ASP399     -0.2456
     53  N         27.2700   42.1520   50.4560 N.3   403  GLU403     -0.1245
     54  CA        27.7490   41.9030   49.0760 C.3   403  GLU403      0.1567
     55  C         29.2670   41.7670   49.1060 C.2   403  GLU403      0.2260
     56  O         29.9320   41.7880   48.0750 O.2   403  GLU403     -0.2867
     57  CB        27.3490   43.0540   48.1260 C.3   403  GLU403      0.0388
     58  CG        27.9070   44.4430   48.5390 C.3   403  GLU403      0.1160
     59  CD        28.1620   45.4140   47.3650 C.2   403  GLU403      0.3649
     60  OE1       27.8530   45.0950   46.1890 O.co2 403  GLU403     -0.2457
     61  OE2       28.6880   46.5180   47.6280 O.co2 403  GLU403     -0.2457
     62  N         28.2660   49.7320   54.6260 N.3   409  ARG409     -0.1245
     63  CA        27.8310   50.6700   53.6050 C.3   409  ARG409      0.1563
     64  C         26.4520   51.1700   54.0600 C.2   409  ARG409      0.2260
     65  O         25.6110   50.3580   54.4120 O.2   409  ARG409     -0.2867
     66  CB        27.7060   49.9490   52.2570 C.3   409  ARG409      0.0307
     67  CG        27.0410   50.8400   51.2410 C.3   409  ARG409      0.0489
     68  CD        26.9120   50.1470   49.9190 C.3   409  ARG409      0.2205
     69  NE        25.7500   50.7260   49.2560 N.pl3 409  ARG409     -0.0865
     70  CZ        24.9730   50.0770   48.3960 C.cat 409  ARG409      0.5346
     71  NH1       23.9220   50.7130   47.8790 N.pl3 409  ARG409      0.1354
     72  NH2       25.2240   48.7950   48.0630 N.pl3 409  ARG409      0.1354
     73  N         15.9190   51.2010   42.8180 N.3   464  GLY464     -0.1210
     74  CA        16.1800   49.7890   42.5250 C.3   464  GLY464      0.1956
     75  C         16.0010   48.9450   43.7870 C.2   464  GLY464      0.2611
     76  O         16.5120   47.8370   43.8700 O.2   464  GLY464     -0.2717
     77  N         15.2240   49.4410   44.7450 N.am  465  ASN465     -0.1974
     78  CA        14.8660   48.6440   45.9390 C.3   465  ASN465      0.1688
     79  C         13.6260   49.1900   46.6320 C.2   465  ASN465      0.2292
     80  O         13.1400   50.2490   46.2440 O.2   465  ASN465     -0.2864
     81  CB        16.0440   48.4610   46.9360 C.3   465  ASN465      0.1181
     82  CG        16.0900   47.0110   47.4440 C.2   465  ASN465      0.2629
     83  OD1       15.1490   46.5370   48.1350 O.2   465  ASN465     -0.2716
     84  ND2       17.0960   46.2530   46.9740 N.am  465  ASN465     -0.0877
     85  N         19.1950   52.5900   54.5700 N.3   480  ARG480     -0.1245
     86  CA        19.5750   51.1980   54.4420 C.3   480  ARG480      0.1563
     87  C         21.0480   51.0290   54.9240 C.2   480  ARG480      0.2260
     88  O         21.8070   51.9920   54.9430 O.2   480  ARG480     -0.2867
     89  CB        19.4420   50.7510   52.9880 C.3   480  ARG480      0.0307
     90  CG        20.3120   51.4860   52.0080 C.3   480  ARG480      0.0489
     91  CD        19.8730   51.2690   50.5020 C.3   480  ARG480      0.2205
     92  NE        19.6850   49.8440   50.1020 N.pl3 480  ARG480     -0.0865
     93  CZ        19.6990   49.3980   48.8360 C.cat 480  ARG480      0.5346
     94  NH1       19.4640   48.1180   48.5530 N.pl3 480  ARG480      0.1354
     95  NH2       19.9070   50.2380   47.8440 N.pl3 480  ARG480      0.1354
     96  N         24.2770   47.7880   54.8680 N.3   482  ARG482     -0.1245
     97  CA        24.7110   46.3990   54.6680 C.3   482  ARG482      0.1563
     98  C         26.2230   46.3700   54.7370 C.2   482  ARG482      0.2260
     99  O         26.8490   47.4120   54.8840 O.2   482  ARG482     -0.2867
    100  CB        24.2390   45.8290   53.2880 C.3   482  ARG482      0.0307
    101  CG        24.7850   46.5590   52.0760 C.3   482  ARG482      0.0489
    102  CD        24.4250   45.8690   50.7540 C.3   482  ARG482      0.2205
    103  NE        22.9670   45.6490   50.6270 N.pl3 482  ARG482     -0.0865
    104  CZ        22.2970   45.6000   49.4680 C.cat 482  ARG482      0.5346
    105  NH1       20.9730   45.3500   49.4570 N.pl3 482  ARG482      0.1354
    106  NH2       22.9460   45.7810   48.3170 N.pl3 482  ARG482      0.1354
    107  N         27.7630   44.4770   41.7950 N.3   490  GLY490     -0.1225
    108  CA        28.4090   44.3150   43.1060 C.3   490  GLY490      0.1811
    109  C         29.0700   42.9670   43.3270 C.2   490  GLY490      0.2280
    110  O         30.3180   42.8810   43.4000 O.2   490  GLY490     -0.2866
    111  N         25.4070   37.4220   41.5300 N.3   494  TYR494     -0.1241
    112  CA        24.1020   38.1240   41.5450 C.3   494  TYR494      0.1605
    113  C         23.0780   37.6050   40.5370 C.2   494  TYR494      0.2264
    114  O         23.3230   37.5900   39.3060 O.2   494  TYR494     -0.2867
    115  CB        24.4250   39.6040   41.3240 C.3   494  TYR494      0.0534
    116  CG        23.2360   40.5490   41.1730 C.ar  494  TYR494     -0.0201
    117  CD1       22.4100   40.8330   42.2460 C.ar  494  TYR494     -0.0009
    118  CD2       23.0070   41.1990   39.9310 C.ar  494  TYR494     -0.0009
    119  CE1       21.3380   41.7450   42.1210 C.ar  494  TYR494      0.0417
    120  CE2       21.9580   42.1290   39.7890 C.ar  494  TYR494      0.0417
    121  CZ        21.1360   42.3680   40.8930 C.ar  494  TYR494      0.1957
    122  OH        20.0890   43.2530   40.7730 O.3   494  TYR494     -0.2866
    123  N         18.7800   53.9290   37.3030 N.3   639  LYS639     -0.1231
    124  CA        17.8080   53.9480   38.4090 C.3   639  LYS639      0.1693
    125  C         18.4840   53.6130   39.7400 C.2   639  LYS639      0.2592
    126  O         17.9410   53.9500   40.8100 O.2   639  LYS639     -0.2718
    127  CB        16.7750   52.8640   38.0730 C.3   639  LYS639      0.0285
    128  CG        15.7210   52.6600   39.0970 C.3   639  LYS639      0.0035
    129  CD        14.7180   51.6180   38.5600 C.3   639  LYS639      0.0206
    130  CE        13.4440   51.7540   39.3850 C.3   639  LYS639      0.1093
    131  NZ        12.5050   50.5950   39.1150 N.3   639  LYS639     -0.1314
    132  N         19.5960   52.8670   39.7060 N.am  640  TYR640     -0.1976
    133  CA        20.2900   52.5310   40.9790 C.3   640  TYR640      0.1639
    134  C         20.9030   53.7250   41.6680 C.2   640  TYR640      0.2290
    135  O         21.0130   53.7320   42.8970 O.2   640  TYR640     -0.2864
    136  CB        21.4170   51.5040   40.7480 C.3   640  TYR640      0.0560
    137  CG        20.9760   50.1000   40.3160 C.ar  640  TYR640     -0.0198
    138  CD1       19.8620   49.4720   40.8910 C.ar  640  TYR640     -0.0009
    139  CD2       21.7510   49.3750   39.3810 C.ar  640  TYR640     -0.0009
    140  CE1       19.4800   48.1440   40.4740 C.ar  640  TYR640      0.0417
    141  CE2       21.4150   48.0360   39.0080 C.ar  640  TYR640      0.0417
    142  CZ        20.2790   47.4400   39.5790 C.ar  640  TYR640      0.1957
    143  OH        19.9080   46.1430   39.2230 O.3   640  TYR640     -0.2866
@<TRIPOS>BOND
     1   123   124    1
     2   127   124    1
     3   127   128    1
     4   124   125    1
     5   129   128    1
     6   129   130    1
     7   141   139   ar
     8   141   142   ar
     9   131   130    1
    10   143   142    1
    11    31    30    2
    12   114   113    2
    13   139   137   ar
    14   142   140   ar
    15   132   125   am
    16   132   133    1
    17   125   126    2
    18   120   118   ar
    19   120   121   ar
    20   118   116   ar
    21    30    29    1
    22   137   136    1
    23   137   138   ar
    24   140   138   ar
    25   113   112    1
    26   136   133    1
    27   122   121    1
    28   121   119   ar
    29   133   134    1
    30   116   115    1
    31   116   117   ar
    32   115   112    1
    33   111   112    1
    34    32    29    1
    35    32    33    1
    36    29    28    1
    37   134   135    2
    38   107   108    1
    39    35    34   ar
    40   119   117   ar
    41    37    38    1
    42    22    21    2
    43    74    73    1
    44    74    75    1
    45    34    33    1
    46    34    36   ar
    47    28    21   am
    48    42    43    1
    49    42    41    1
    50    42    44    1
    51    21    20    1
    52   108   109    1
    53   109   110    2
    54    38    39    1
    55    38    41    1
    56    39    40    2
    57    75    76    2
    58    75    77   am
    59    26    25   ar
    60    18    16   ar
    61    20    19    1
    62    20    23    1
    63    27    25   ar
    64    25    24    1
    65    77    78    1
    66    16    15    1
    67    16    17   ar
    68    23    24    1
    69    78    79    1
    70    78    81    1
    71    15    12    1
    72    60    59   ar
    73    80    79    2
    74    14    13    2
    75     9    10   ar
    76     9     7   ar
    77    10     8   ar
    78    81    82    1
    79    84    82   am
    80     7     6   ar
    81    13    12    1
    82    59    61   ar
    83    59    58    1
    84    12    11    1
    85    82    83    2
    86    52    50   ar
    87     8     6   ar
    88     6     5    1
    89    95    93    1
    90    71    70    1
    91    72    70    1
    92    56    55    2
    93    57    58    1
    94    57    54    1
    95   106   104    1
    96    70    69    2
    97     5     2    1
    98    94    93    1
    99    50    51   ar
   100    50    49    1
   101    93    92    2
   102    54    55    1
   103    54    53    1
   104    69    68    1
   105   105   104    1
   106   104   103    2
   107    68    67    1
   108    49    46    1
   109     2     3    1
   110     2     1    1
   111    92    91    1
   112     3     4    2
   113    91    90    1
   114   103   102    1
   115   102   101    1
   116    67    66    1
   117    46    47    1
   118    46    45    1
   119    47    48    2
   120    90    89    1
   121   101   100    1
   122    66    63    1
   123    89    86    1
   124   100    97    1
   125    63    64    1
   126    63    62    1
   127    64    65    2
   128    86    85    1
   129    86    87    1
   130    97    98    1
   131    97    96    1
   132    98    99    2
   133    87    88    2
