@<TRIPOS>MOLECULE
tmp/4p4bA07.pdb
 242 231 0 0 0
SMALL
GASTEIGER

@<TRIPOS>ATOM
      1  N         26.5870   45.7850   33.9680 N.3   152  GLY152     -0.1225
      2  CA        27.5020   46.4970   34.8870 C.3   152  GLY152      0.1811
      3  C         27.2260   47.9850   34.7660 C.2   152  GLY152      0.2280
      4  O         26.6080   48.4210   33.7530 O.2   152  GLY152     -0.2866
      5  N         21.6640   50.2300   35.9220 N.3   155  PHE155     -0.1227
      6  CA        20.5120   49.3470   35.9200 C.3   155  PHE155      0.1736
      7  C         20.2110   48.8570   34.5100 C.2   155  PHE155      0.2595
      8  O         20.1470   49.6620   33.5550 O.2   155  PHE155     -0.2718
      9  CB        19.2870   50.0970   36.4600 C.3   155  PHE155      0.0547
     10  CG        18.0070   49.2980   36.4030 C.ar  155  PHE155     -0.0202
     11  CD1       17.9270   48.0640   37.0710 C.ar  155  PHE155     -0.0042
     12  CD2       16.8380   49.8290   35.7700 C.ar  155  PHE155     -0.0042
     13  CE1       16.7280   47.2980   37.0610 C.ar  155  PHE155     -0.0003
     14  CE2       15.6400   49.0790   35.7560 C.ar  155  PHE155     -0.0003
     15  CZ        15.5830   47.8130   36.4040 C.ar  155  PHE155     -0.0000
     16  N         19.9720   47.5440   34.3840 N.am  156  ARG156     -0.1980
     17  CA        19.8020   46.9460   33.0390 C.3   156  ARG156      0.1597
     18  C         18.5670   47.5190   32.3110 C.2   156  ARG156      0.2287
     19  O         18.5180   47.5390   31.0900 O.2   156  ARG156     -0.2864
     20  CB        19.6960   45.4100   33.1510 C.3   156  ARG156      0.0334
     21  CG        18.3880   44.9080   33.8210 C.3   156  ARG156      0.0492
     22  CD        18.4110   43.3260   34.0420 C.3   156  ARG156      0.2205
     23  NE        19.1560   42.9290   35.2590 N.pl3 156  ARG156     -0.0865
     24  CZ        18.7140   43.1780   36.4960 C.cat 156  ARG156      0.5346
     25  NH1       17.5170   43.7590   36.6820 N.pl3 156  ARG156      0.1354
     26  NH2       19.4350   42.8150   37.5570 N.pl3 156  ARG156      0.1354
     27  N         32.5550   40.5890   36.1440 N.3   180  TYR180     -0.1241
     28  CA        32.0270   39.5860   37.0490 C.3   180  TYR180      0.1605
     29  C         32.9860   38.4570   37.4200 C.2   180  TYR180      0.2264
     30  O         32.5290   37.4070   37.8630 O.2   180  TYR180     -0.2867
     31  CB        30.7250   39.0160   36.4640 C.3   180  TYR180      0.0534
     32  CG        29.6590   40.0970   36.4560 C.ar  180  TYR180     -0.0201
     33  CD1       29.4490   40.8900   35.3190 C.ar  180  TYR180     -0.0009
     34  CD2       28.9030   40.3460   37.6050 C.ar  180  TYR180     -0.0009
     35  CE1       28.5030   41.9590   35.3290 C.ar  180  TYR180      0.0417
     36  CE2       27.9420   41.3910   37.6410 C.ar  180  TYR180      0.0417
     37  CZ        27.7610   42.1920   36.4980 C.ar  180  TYR180      0.1957
     38  OH        26.7930   43.1680   36.5300 O.3   180  TYR180     -0.2866
     39  N         22.8810   36.2320   34.6500 N.3   200  GLN200     -0.1245
     40  CA        22.1900   37.1610   35.4980 C.3   200  GLN200      0.1566
     41  C         20.7790   37.3470   34.9800 C.2   200  GLN200      0.2260
     42  O         20.5670   37.9300   33.8760 O.2   200  GLN200     -0.2867
     43  CB        22.9190   38.5300   35.5010 C.3   200  GLN200      0.0367
     44  CG        22.2080   39.5820   36.3980 C.3   200  GLN200      0.0905
     45  CD        22.8230   40.9870   36.2810 C.2   200  GLN200      0.2608
     46  OE1       22.1070   41.9890   36.3490 O.2   200  GLN200     -0.2717
     47  NE2       24.1590   41.0570   36.1480 N.am  200  GLN200     -0.0878
     48  N         14.6350   41.9800   35.7340 N.3   203  ASN203     -0.1240
     49  CA        13.6440   42.6950   34.9500 C.3   203  ASN203      0.1653
     50  C         14.3110   43.8570   34.2130 C.2   203  ASN203      0.2266
     51  O         15.3270   44.3790   34.6790 O.2   203  ASN203     -0.2867
     52  CB        12.4370   43.1660   35.7720 C.3   203  ASN203      0.1155
     53  CG        12.6630   44.5260   36.4770 C.2   203  ASN203      0.2627
     54  OD1       12.6070   45.5670   35.8330 O.2   203  ASN203     -0.2716
     55  ND2       12.8030   44.5070   37.8160 N.am  203  ASN203     -0.0877
     56  N         12.3470   42.5040   50.7180 N.3   323  HIS323     -0.1241
     57  CA        11.5760   41.5420   49.9660 C.3   323  HIS323      0.1621
     58  C         11.9340   40.1000   50.2980 C.2   323  HIS323      0.2264
     59  O         12.9670   39.8310   50.9500 O.2   323  HIS323     -0.2867
     60  CB        11.6450   41.8290   48.4370 C.3   323  HIS323      0.0745
     61  CG        12.9710   41.5520   47.7870 C.ar  323  HIS323      0.0817
     62  ND1       13.1660   40.4540   46.9790 N.ar  323  HIS323     -0.2268
     63  CD2       14.0920   42.3110   47.6630 C.ar  323  HIS323      0.1154
     64  CE1       14.3630   40.5190   46.4150 C.ar  323  HIS323      0.1986
     65  NE2       14.9360   41.6410   46.8000 N.ar  323  HIS323     -0.2212
     66  N         20.4780   37.6340   47.7650 N.3   333  ASP333     -0.1239
     67  CA        19.4140   38.5520   47.3760 C.3   333  ASP333      0.1674
     68  C         18.0730   37.7750   47.2430 C.2   333  ASP333      0.2266
     69  O         17.8840   37.0890   46.2400 O.2   333  ASP333     -0.2867
     70  CB        19.8430   39.1740   46.0260 C.3   333  ASP333      0.1410
     71  CG        18.8580   40.1410   45.4860 C.2   333  ASP333      0.3668
     72  OD1       17.9260   40.4920   46.2500 O.co2 333  ASP333     -0.2456
     73  OD2       18.9750   40.4790   44.2710 O.co2 333  ASP333     -0.2456
     74  N          9.4170   42.0820   44.4000 N.3   370  GLU370     -0.1231
     75  CA        10.3740   43.1670   44.3160 C.3   370  GLU370      0.1699
     76  C         11.1480   43.0040   43.0250 C.2   370  GLU370      0.2592
     77  O         11.4390   43.9990   42.3320 O.2   370  GLU370     -0.2718
     78  CB        11.3010   43.1490   45.4890 C.3   370  GLU370      0.0402
     79  CG        12.2830   44.3690   45.4980 C.3   370  GLU370      0.1161
     80  CD        13.6080   44.1680   44.6700 C.2   370  GLU370      0.3649
     81  OE1       13.8550   43.0610   44.1240 O.co2 370  GLU370     -0.2457
     82  OE2       14.3820   45.1470   44.5370 O.co2 370  GLU370     -0.2457
     83  N         11.4840   41.7590   42.6750 N.am  371  GLU371     -0.1979
     84  CA        12.3890   41.5410   41.5140 C.3   371  GLU371      0.1602
     85  C         11.7430   41.8770   40.1770 C.2   371  GLU371      0.2287
     86  O         12.4410   42.0120   39.1590 O.2   371  GLU371     -0.2864
     87  CB        12.8760   40.0730   41.4560 C.3   371  GLU371      0.0415
     88  CG        13.7830   39.6540   42.6130 C.3   371  GLU371      0.1163
     89  CD        15.1680   40.3460   42.5870 C.2   371  GLU371      0.3649
     90  OE1       15.4590   41.1510   41.6990 O.co2 371  GLU371     -0.2457
     91  OE2       15.9620   40.0600   43.4690 O.co2 371  GLU371     -0.2457
     92  N          9.9700   44.6110   39.7710 N.3   373  GLY373     -0.1210
     93  CA         9.7580   46.0870   39.6780 C.3   373  GLY373      0.1956
     94  C          9.2250   46.7220   40.9600 C.2   373  GLY373      0.2611
     95  O          8.4590   47.7060   40.8830 O.2   373  GLY373     -0.2717
     96  N          9.6170   46.1800   42.1160 N.am  374  LEU374     -0.1979
     97  CA         9.2380   46.7580   43.4270 C.3   374  LEU374      0.1596
     98  C          7.7030   46.7230   43.5530 C.2   374  LEU374      0.2287
     99  O          7.1130   47.6420   44.1010 O.2   374  LEU374     -0.2864
    100  CB         9.7500   48.2210   43.5800 C.3   374  LEU374      0.0297
    101  CG        11.1400   48.5260   42.9510 C.3   374  LEU374      0.0022
    102  CD1       11.5600   50.0430   43.1050 C.3   374  LEU374      0.0001
    103  CD2       12.1780   47.6280   43.6180 C.3   374  LEU374      0.0001
    104  N         17.0050   44.5440   52.3080 N.3   399  ASP399     -0.1225
    105  CA        17.3790   43.5570   51.3060 C.3   399  ASP399      0.1805
    106  C         18.7830   43.0130   51.7380 C.2   399  ASP399      0.2598
    107  O         19.1230   43.0370   52.9350 O.2   399  ASP399     -0.2718
    108  CB        17.3660   44.1990   49.8850 C.3   399  ASP399      0.1424
    109  CG        17.2520   43.1640   48.7460 C.2   399  ASP399      0.3668
    110  OD1       17.2560   41.9560   49.0280 O.co2 399  ASP399     -0.2456
    111  OD2       17.1840   43.5500   47.5470 O.co2 399  ASP399     -0.2456
    112  N         19.5160   42.4680   50.7750 N.am  400  SER400     -0.1952
    113  CA        20.8030   41.7370   50.9480 C.3   400  SER400      0.1924
    114  C         21.6400   42.3360   52.0650 C.2   400  SER400      0.2314
    115  O         21.9390   43.5310   52.0120 O.2   400  SER400     -0.2863
    116  CB        21.5790   41.8260   49.6500 C.3   400  SER400      0.2116
    117  OG        20.8000   41.2760   48.6260 O.3   400  SER400     -0.2180
    118  N         27.1850   42.2850   50.4430 N.3   403  GLU403     -0.1245
    119  CA        27.5570   42.1860   49.0430 C.3   403  GLU403      0.1567
    120  C         29.1030   42.1530   48.9920 C.2   403  GLU403      0.2260
    121  O         29.7060   42.5180   47.9860 O.2   403  GLU403     -0.2867
    122  CB        26.9770   43.3960   48.2590 C.3   403  GLU403      0.0388
    123  CG        27.5230   44.7650   48.7700 C.3   403  GLU403      0.1160
    124  CD        26.8380   45.9800   48.1450 C.2   403  GLU403      0.3649
    125  OE1       25.7640   45.8290   47.5030 O.co2 403  GLU403     -0.2457
    126  OE2       27.3480   47.1090   48.3470 O.co2 403  GLU403     -0.2457
    127  N         28.2250   49.7400   54.5940 N.3   409  ARG409     -0.1245
    128  CA        27.7510   50.6600   53.6170 C.3   409  ARG409      0.1563
    129  C         26.3890   51.1430   54.0920 C.2   409  ARG409      0.2260
    130  O         25.5440   50.3210   54.4710 O.2   409  ARG409     -0.2867
    131  CB        27.6050   49.9520   52.2660 C.3   409  ARG409      0.0307
    132  CG        26.8140   50.7700   51.2680 C.3   409  ARG409      0.0489
    133  CD        26.6590   50.0600   49.9250 C.3   409  ARG409      0.2205
    134  NE        25.5220   50.7010   49.2360 N.pl3 409  ARG409     -0.0865
    135  CZ        24.9240   50.2230   48.1470 C.cat 409  ARG409      0.5346
    136  NH1       25.3580   49.0800   47.6100 N.pl3 409  ARG409      0.1354
    137  NH2       23.8690   50.8680   47.6310 N.pl3 409  ARG409      0.1354
    138  N         17.8490   54.1060   43.7290 N.3   463  SER463     -0.1202
    139  CA        16.6300   53.3060   43.7080 C.3   463  SER463      0.2020
    140  C         16.9490   51.8770   43.2540 C.2   463  SER463      0.2619
    141  O         18.1080   51.4450   43.3760 O.2   463  SER463     -0.2717
    142  CB        15.5900   53.9760   42.8590 C.3   463  SER463      0.2103
    143  OG        14.4070   53.2170   42.8330 O.3   463  SER463     -0.2182
    144  N         15.9760   51.1630   42.6740 N.am  464  GLY464     -0.1942
    145  CA        16.2110   49.7220   42.3780 C.3   464  GLY464      0.2014
    146  C         16.0440   48.9110   43.6750 C.2   464  GLY464      0.2638
    147  O         16.5110   47.7810   43.7850 O.2   464  GLY464     -0.2714
    148  N         15.3340   49.4700   44.6560 N.am  465  ASN465     -0.1972
    149  CA        14.9250   48.6620   45.8110 C.3   465  ASN465      0.1688
    150  C         13.6570   49.1890   46.5030 C.2   465  ASN465      0.2292
    151  O         13.1760   50.2550   46.1240 O.2   465  ASN465     -0.2864
    152  CB        16.0870   48.4520   46.7810 C.3   465  ASN465      0.1181
    153  CG        16.1260   47.0060   47.3000 C.2   465  ASN465      0.2629
    154  OD1       15.2350   46.5640   48.0570 O.2   465  ASN465     -0.2716
    155  ND2       17.1330   46.2620   46.8780 N.am  465  ASN465     -0.0877
    156  N         19.1910   52.5590   54.4880 N.3   480  ARG480     -0.1245
    157  CA        19.5130   51.1470   54.3090 C.3   480  ARG480      0.1563
    158  C         20.9870   50.9840   54.7320 C.2   480  ARG480      0.2260
    159  O         21.7540   51.9530   54.7260 O.2   480  ARG480     -0.2867
    160  CB        19.3420   50.7700   52.8190 C.3   480  ARG480      0.0307
    161  CG        20.3900   51.4670   51.8540 C.3   480  ARG480      0.0489
    162  CD        20.0660   51.3300   50.3280 C.3   480  ARG480      0.2205
    163  NE        19.8770   49.9380   49.8920 N.pl3 480  ARG480     -0.0865
    164  CZ        19.8680   49.5210   48.6210 C.cat 480  ARG480      0.5346
    165  NH1       19.6280   48.2250   48.3620 N.pl3 480  ARG480      0.1354
    166  NH2       20.0430   50.3930   47.6140 N.pl3 480  ARG480      0.1354
    167  N         24.2400   47.7240   54.8000 N.3   482  ARG482     -0.1245
    168  CA        24.6530   46.3350   54.5520 C.3   482  ARG482      0.1563
    169  C         26.1760   46.2970   54.6300 C.2   482  ARG482      0.2260
    170  O         26.8110   47.3400   54.6250 O.2   482  ARG482     -0.2867
    171  CB        24.2010   45.8490   53.1540 C.3   482  ARG482      0.0307
    172  CG        24.6660   46.7180   51.9830 C.3   482  ARG482      0.0489
    173  CD        24.4610   45.9850   50.6610 C.3   482  ARG482      0.2205
    174  NE        23.0090   45.7220   50.4370 N.pl3 482  ARG482     -0.0865
    175  CZ        22.3850   45.7640   49.2680 C.cat 482  ARG482      0.5346
    176  NH1       21.0700   45.4930   49.1950 N.pl3 482  ARG482      0.1354
    177  NH2       23.0520   46.1080   48.1650 N.pl3 482  ARG482      0.1354
    178  N         31.8820   44.0100   40.6240 N.3   493  SER493     -0.1202
    179  CA        30.9150   43.4240   41.5720 C.3   493  SER493      0.2020
    180  C         31.6060   42.7010   42.7440 C.2   493  SER493      0.2619
    181  O         32.6150   41.9820   42.5670 O.2   493  SER493     -0.2717
    182  CB        29.9290   42.4700   40.8670 C.3   493  SER493      0.2103
    183  OG        28.9220   42.0380   41.7670 O.3   493  SER493     -0.2182
    184  N         31.0480   42.9070   43.9400 N.am  494  GLY494     -0.1942
    185  CA        31.5280   42.1740   45.1230 C.3   494  GLY494      0.2014
    186  C         30.7120   40.8980   45.2700 C.2   494  GLY494      0.2638
    187  O         31.0360   40.0210   46.1310 O.2   494  GLY494     -0.2714
    188  N         29.6560   40.8390   44.4450 N.am  495  TYR495     -0.1973
    189  CA        29.0030   39.6020   44.2130 C.3   495  TYR495      0.1639
    190  C         28.5260   39.2680   42.7750 C.2   495  TYR495      0.2290
    191  O         27.3680   39.5040   42.3610 O.2   495  TYR495     -0.2864
    192  CB        28.1170   39.2690   45.3820 C.3   495  TYR495      0.0560
    193  CG        26.6870   39.3380   45.2320 C.ar  495  TYR495     -0.0198
    194  CD1       26.0130   38.1760   44.8970 C.ar  495  TYR495     -0.0009
    195  CD2       25.9620   40.5030   45.5330 C.ar  495  TYR495     -0.0009
    196  CE1       24.7020   38.1460   44.8190 C.ar  495  TYR495      0.0417
    197  CE2       24.5640   40.4660   45.4570 C.ar  495  TYR495      0.0417
    198  CZ        23.9720   39.2440   45.1090 C.ar  495  TYR495      0.1957
    199  OH        22.6180   39.0430   44.9610 O.3   495  TYR495     -0.2866
    200  N         25.3580   37.2950   41.5350 N.3   498  TYR498     -0.1227
    201  CA        24.0640   37.9890   41.5540 C.3   498  TYR498      0.1736
    202  C         23.0230   37.4820   40.5660 C.2   498  TYR498      0.2595
    203  O         23.2530   37.4980   39.3470 O.2   498  TYR498     -0.2718
    204  CB        24.3650   39.4700   41.3090 C.3   498  TYR498      0.0548
    205  CG        23.1700   40.4010   41.1450 C.ar  498  TYR498     -0.0200
    206  CD1       22.3050   40.7020   42.2340 C.ar  498  TYR498     -0.0009
    207  CD2       22.9770   41.0660   39.9390 C.ar  498  TYR498     -0.0009
    208  CE1       21.2350   41.6380   42.0740 C.ar  498  TYR498      0.0417
    209  CE2       21.9780   42.0250   39.7990 C.ar  498  TYR498      0.0417
    210  CZ        21.1090   42.2820   40.8330 C.ar  498  TYR498      0.1957
    211  OH        20.1030   43.1960   40.5970 O.3   498  TYR498     -0.2866
    212  N         21.8740   37.0110   41.0710 N.am  499  HIS499     -0.1975
    213  CA        20.7320   36.5800   40.1920 C.3   499  HIS499      0.1656
    214  C         20.9740   35.3170   39.3290 C.2   499  HIS499      0.2291
    215  O         20.2510   35.0800   38.3430 O.2   499  HIS499     -0.2864
    216  CB        20.2690   37.7330   39.2350 C.3   499  HIS499      0.0771
    217  CG        19.5110   38.8520   39.9140 C.ar  499  HIS499      0.0820
    218  ND1       18.9220   39.8860   39.2090 N.ar  499  HIS499     -0.2267
    219  CD2       19.2420   39.0970   41.2260 C.ar  499  HIS499      0.1154
    220  CE1       18.3150   40.7130   40.0550 C.ar  499  HIS499      0.1986
    221  NE2       18.4810   40.2520   41.2830 N.ar  499  HIS499     -0.2212
    222  N         18.8450   53.8710   37.2070 N.3   643  LYS643     -0.1231
    223  CA        17.9190   53.7970   38.3140 C.3   643  LYS643      0.1693
    224  C         18.6080   53.5050   39.6530 C.2   643  LYS643      0.2592
    225  O         18.1240   53.8990   40.6940 O.2   643  LYS643     -0.2718
    226  CB        16.9250   52.6340   38.0310 C.3   643  LYS643      0.0285
    227  CG        15.7990   52.6020   39.0080 C.3   643  LYS643      0.0035
    228  CD        14.8010   51.5020   38.6240 C.3   643  LYS643      0.0206
    229  CE        13.4760   51.7460   39.3730 C.3   643  LYS643      0.1093
    230  NZ        12.5230   50.6080   39.0100 N.3   643  LYS643     -0.1314
    231  N         19.7480   52.7960   39.6440 N.am  644  TYR644     -0.1976
    232  CA        20.3780   52.4880   40.9180 C.3   644  TYR644      0.1639
    233  C         21.0270   53.7040   41.5750 C.2   644  TYR644      0.2290
    234  O         21.2390   53.6730   42.7780 O.2   644  TYR644     -0.2864
    235  CB        21.5180   51.4670   40.7780 C.3   644  TYR644      0.0560
    236  CG        21.0860   50.0700   40.3600 C.ar  644  TYR644     -0.0198
    237  CD1       19.8930   49.5090   40.8290 C.ar  644  TYR644     -0.0009
    238  CD2       21.9140   49.3060   39.4970 C.ar  644  TYR644     -0.0009
    239  CE1       19.5030   48.1760   40.4150 C.ar  644  TYR644      0.0417
    240  CE2       21.5600   47.9800   39.1230 C.ar  644  TYR644      0.0417
    241  CZ        20.3490   47.4420   39.5970 C.ar  644  TYR644      0.1957
    242  OH        20.0010   46.1520   39.2210 O.3   644  TYR644     -0.2866
@<TRIPOS>BOND
     1    19    18    2
     2    18    17    1
     3    17    20    1
     4    17    16    1
     5    20    21    1
     6     8     7    2
     7     4     3    2
     8    21    22    1
     9    42    41    2
    10     1     2    1
    11    22    23    1
    12    50    51    2
    13    50    49    1
    14    16     7   am
    15     7     6    1
    16    39    40    1
    17     3     2    1
    18    49    48    1
    19    49    52    1
    20    41    40    1
    21    23    24    2
    22    33    35   ar
    23    33    32   ar
    24    35    37   ar
    25    40    43    1
    26    43    44    1
    27    14    12   ar
    28    14    15   ar
    29    12    10   ar
    30    52    53    1
    31    54    53    2
    32     6     5    1
    33     6     9    1
    34    27    28    1
    35    47    45   am
    36    45    46    2
    37    45    44    1
    38    10     9    1
    39    10    11   ar
    40    15    13   ar
    41    32    31    1
    42    32    34   ar
    43    31    28    1
    44    53    55   am
    45    24    25    1
    46    24    26    1
    47    37    38    1
    48    37    36   ar
    49    28    29    1
    50    13    11   ar
    51   222   223    1
    52    29    30    2
    53    34    36   ar
    54   226   223    1
    55   226   227    1
    56   223   224    1
    57   215   214    2
    58   228   227    1
    59   228   229    1
    60   230   229    1
    61   240   238   ar
    62   240   241   ar
    63    86    85    2
    64   218   217   ar
    65   218   220   ar
    66   242   241    1
    67   216   217    1
    68   216   213    1
    69   214   213    1
    70   203   202    2
    71   238   236   ar
    72   241   239   ar
    73   231   224   am
    74   231   232    1
    75   224   225    2
    76    93    92    1
    77    93    94    1
    78   209   207   ar
    79   209   210   ar
    80   217   219   ar
    81   207   205   ar
    82   220   221   ar
    83    85    84    1
    84   213   212    1
    85   236   235    1
    86   236   237   ar
    87   239   237   ar
    88   202   212   am
    89   202   201    1
    90   211   210    1
    91   178   179    1
    92   235   232    1
    93   210   208   ar
    94   182   179    1
    95   182   183    1
    96    95    94    2
    97   232   233    1
    98    94    96   am
    99   205   204    1
   100   205   206   ar
   101   219   221   ar
   102   204   201    1
   103    87    84    1
   104    87    88    1
   105    84    83    1
   106   200   201    1
   107   179   180    1
   108   233   234    2
   109    90    89   ar
   110   208   206   ar
   111    96    97    1
   112    77    76    2
   113   191   190    2
   114   145   144    1
   115   145   146    1
   116   181   180    2
   117    89    88    1
   118    89    91   ar
   119   144   140   am
   120    83    76   am
   121   180   184   am
   122   190   189    1
   123   143   142    1
   124   142   139    1
   125   101   102    1
   126   101   100    1
   127   101   103    1
   128    76    75    1
   129   140   141    2
   130   140   139    1
   131    97    98    1
   132    97   100    1
   133    98    99    2
   134   146   147    2
   135   146   148   am
   136   139   138    1
   137   184   185    1
   138    81    80   ar
   139   189   188    1
   140   189   192    1
   141    73    71   ar
   142    75    74    1
   143    75    78    1
   144   188   186   am
   145    82    80   ar
   146   148   149    1
   147    80    79    1
   148   196   194   ar
   149   196   198   ar
   150   194   193   ar
   151   199   198    1
   152   198   197   ar
   153   185   186    1
   154   193   192    1
   155   193   195   ar
   156   186   187    2
   157   197   195   ar
   158    71    70    1
   159    71    72   ar
   160    78    79    1
   161   149   150    1
   162   149   152    1
   163    70    67    1
   164   151   150    2
   165    69    68    2
   166    64    65   ar
   167    64    62   ar
   168   152   153    1
   169    65    63   ar
   170   155   153   am
   171    62    61   ar
   172    68    67    1
   173   153   154    2
   174    67    66    1
   175   125   124   ar
   176   111   109   ar
   177   136   135    1
   178   166   164    1
   179   137   135    1
   180    63    61   ar
   181    61    60    1
   182   121   120    2
   183   124   126   ar
   184   124   123    1
   185   135   134    2
   186   177   175    1
   187   122   123    1
   188   122   119    1
   189   165   164    1
   190    60    57    1
   191   164   163    2
   192   117   116    1
   193   109   110   ar
   194   109   108    1
   195   120   119    1
   196   119   118    1
   197   176   175    1
   198   134   133    1
   199   175   174    2
   200   116   113    1
   201   108   105    1
   202   163   162    1
   203   133   132    1
   204    57    58    1
   205    57    56    1
   206    58    59    2
   207   162   161    1
   208   174   173    1
   209   173   172    1
   210   112   113    1
   211   112   106   am
   212   113   114    1
   213   132   131    1
   214   105   106    1
   215   105   104    1
   216   106   107    2
   217   161   160    1
   218   172   171    1
   219   115   114    2
   220   131   128    1
   221   160   157    1
   222   171   168    1
   223   128   129    1
   224   128   127    1
   225   129   130    2
   226   157   156    1
   227   157   158    1
   228   168   169    1
   229   168   167    1
   230   170   169    2
   231   159   158    2
