@<TRIPOS>MOLECULE
tmp/4p4cA00.pdb
 150 140 0 0 0
SMALL
GASTEIGER

@<TRIPOS>ATOM
      1  N          6.7180  -18.3100  -15.1010 N.3    15  VAL15      -0.1231
      2  CA         5.2920  -18.6190  -15.2360 C.3    15  VAL15       0.1692
      3  C          4.6790  -18.0720  -16.5240 C.2    15  VAL15       0.2593
      4  O          3.4780  -18.2180  -16.7540 O.2    15  VAL15      -0.2718
      5  CB         4.4750  -18.0720  -14.0490 C.3    15  VAL15       0.0266
      6  CG1        5.1170  -18.4790  -12.7320 C.3    15  VAL15       0.0020
      7  CG2        4.3490  -16.5550  -14.1370 C.3    15  VAL15       0.0020
      8  N          5.4940  -17.4400  -17.3610 N.am   16  GLY16      -0.1942
      9  CA         4.9860  -16.8960  -18.6070 C.3    16  GLY16       0.2014
     10  C          6.0230  -16.1650  -19.4330 C.2    16  GLY16       0.2639
     11  O          7.1760  -16.0110  -19.0250 O.2    16  GLY16      -0.2714
     12  N          5.6020  -15.7200  -20.6100 N.am   17  ALA17      -0.1963
     13  CA         6.4660  -14.9630  -21.5020 C.3    17  ALA17       0.1728
     14  C          5.8260  -13.6190  -21.7940 C.2    17  ALA17       0.2616
     15  O          4.6750  -13.5510  -22.2260 O.2    17  ALA17      -0.2715
     16  CB         6.7180  -15.7290  -22.7890 C.3    17  ALA17       0.0334
     17  N          6.5690  -12.5490  -21.5380 N.am   18  GLY18      -0.1955
     18  CA         6.0650  -11.2090  -21.7630 C.3    18  GLY18       0.1869
     19  C          6.6100  -10.6080  -23.0440 C.2    18  GLY18       0.2309
     20  O          7.4250  -11.2200  -23.7380 O.2    18  GLY18      -0.2863
     21  N          8.3140  -13.5740  -17.4900 N.3    23  VAL23      -0.1245
     22  CA         7.5240  -13.3320  -16.2830 C.3    23  VAL23       0.1561
     23  C          7.8010  -14.4560  -15.2970 C.2    23  VAL23       0.2260
     24  O          7.7410  -15.6280  -15.6540 O.2    23  VAL23      -0.2867
     25  CB         6.0080  -13.2710  -16.5690 C.3    23  VAL23       0.0252
     26  CG1        5.2440  -12.8660  -15.3050 C.3    23  VAL23       0.0019
     27  CG2        5.7170  -12.3080  -17.7110 C.3    23  VAL23       0.0019
     28  N          4.9570  -11.4410   -8.4680 N.3    39  ALA39      -0.1231
     29  CA         5.3030  -11.7200   -9.8530 C.3    39  ALA39       0.1694
     30  C          6.4200  -10.7820  -10.2610 C.2    39  ALA39       0.2592
     31  O          6.4430   -9.6240   -9.8490 O.2    39  ALA39      -0.2718
     32  CB         4.1190  -11.5410  -10.7630 C.3    39  ALA39       0.0304
     33  N          7.3360  -11.2850  -11.0810 N.am   40  ILE40      -0.1966
     34  CA         8.4990  -10.5120  -11.4880 C.3    40  ILE40       0.1727
     35  C          8.6470  -10.5360  -13.0050 C.2    40  ILE40       0.2616
     36  O          8.7060  -11.5980  -13.6200 O.2    40  ILE40      -0.2715
     37  CB         9.7770  -11.0560  -10.8320 C.3    40  ILE40       0.0290
     38  CG1        9.6390  -11.0430   -9.3090 C.3    40  ILE40       0.0022
     39  CG2       10.9980  -10.2390  -11.2670 C.3    40  ILE40       0.0023
     40  CD1       10.3380  -12.1740   -8.6110 C.3    40  ILE40       0.0001
     41  N          8.6710   -9.3560  -13.6020 N.am   41  LYS41      -0.1977
     42  CA         8.9320   -9.2460  -15.0240 C.3    41  LYS41       0.1596
     43  C         10.3290   -8.7010  -15.2100 C.2    41  LYS41       0.2287
     44  O         10.7190   -7.7390  -14.5490 O.2    41  LYS41      -0.2864
     45  CB         7.8940   -8.3610  -15.7100 C.3    41  LYS41       0.0298
     46  CG         6.8270   -9.1770  -16.4030 C.3    41  LYS41       0.0038
     47  CD         5.5090   -8.4520  -16.5570 C.3    41  LYS41       0.0206
     48  CE         5.5780   -7.2990  -17.5240 C.3    41  LYS41       0.1093
     49  NZ         4.2260   -7.0950  -18.1520 N.3    41  LYS41      -0.1314
     50  N          4.8660    0.7530  -18.1830 N.3    58  GLU58      -0.1245
     51  CA         3.7730    0.0110  -17.5580 C.3    58  GLU58       0.1567
     52  C          3.7770    0.2060  -16.0490 C.2    58  GLU58       0.2260
     53  O          2.7230    0.3550  -15.4240 O.2    58  GLU58      -0.2867
     54  CB         3.8610   -1.4830  -17.8740 C.3    58  GLU58       0.0388
     55  CG         2.7510   -2.2880  -17.1940 C.3    58  GLU58       0.1160
     56  CD         2.8430   -3.7850  -17.4340 C.2    58  GLU58       0.3649
     57  OE1        3.9660   -4.3280  -17.4810 O.co2  58  GLU58      -0.2457
     58  OE2        1.7750   -4.4190  -17.5780 O.co2  58  GLU58      -0.2457
     59  N          0.8350    1.7720  -13.7590 N.3    62  MET62      -0.1245
     60  CA         0.3280    0.9150  -12.6960 C.3    62  MET62       0.1570
     61  C          0.5540    1.5280  -11.3160 C.2    62  MET62       0.2261
     62  O         -0.2990    1.4170  -10.4320 O.2    62  MET62      -0.2867
     63  CB         0.9850   -0.4700  -12.7700 C.3    62  MET62       0.0387
     64  CG         0.3730   -1.4980  -11.8380 C.3    62  MET62       0.0595
     65  SD         1.3610   -3.0120  -11.8200 S.3    62  MET62      -0.1393
     66  CE         1.6370   -3.1840  -13.5710 C.3    62  MET62       0.0692
     67  N         -4.0620   -4.5340  -10.1710 N.3    71  ILE71      -0.1245
     68  CA        -2.8170   -5.2070   -9.7980 C.3    71  ILE71       0.1561
     69  C         -1.8990   -4.2120   -9.1110 C.2    71  ILE71       0.2260
     70  O         -1.7230   -3.0650   -9.5670 O.2    71  ILE71      -0.2867
     71  CB        -2.1020   -5.8210  -11.0000 C.3    71  ILE71       0.0252
     72  CG1       -1.8990   -4.7770  -12.0960 C.3    71  ILE71       0.0019
     73  CG2       -2.9050   -6.9640  -11.5480 C.3    71  ILE71       0.0019
     74  CD1       -1.0220   -5.2560  -13.1930 C.3    71  ILE71       0.0001
     75  N         10.2500   -5.3150  -13.0090 N.3    85  ILE85      -0.1245
     76  CA         9.0140   -4.8290  -12.4300 C.3    85  ILE85       0.1561
     77  C          8.4900   -5.9220  -11.4910 C.2    85  ILE85       0.2260
     78  O          8.5160   -7.1140  -11.8340 O.2    85  ILE85      -0.2867
     79  CB         7.9670   -4.4870  -13.5190 C.3    85  ILE85       0.0252
     80  CG1        8.4610   -3.3330  -14.3950 C.3    85  ILE85       0.0019
     81  CG2        6.6130   -4.1530  -12.8910 C.3    85  ILE85       0.0019
     82  CD1        7.5880   -3.0790  -15.6220 C.3    85  ILE85       0.0001
     83  N          5.2400   -7.1030   -8.9970 N.3    87  THR87      -0.1203
     84  CA         3.8460   -6.8670   -8.6250 C.3    87  THR87       0.1994
     85  C          3.3910   -7.9340   -7.6600 C.2    87  THR87       0.2618
     86  O          4.0920   -8.9210   -7.4420 O.2    87  THR87      -0.2717
     87  CB         2.8760   -6.8940   -9.8380 C.3    87  THR87       0.1784
     88  OG1        2.8330   -8.2150  -10.3860 O.3    87  THR87      -0.2211
     89  CG2        3.2800   -5.9010  -10.9040 C.3    87  THR87       0.0376
     90  N          2.2010   -7.7550   -7.0970 N.am   88  GLU88      -0.1965
     91  CA         1.6030   -8.8240   -6.3070 C.3    88  GLU88       0.1733
     92  C          1.4400  -10.0710   -7.1750 C.2    88  GLU88       0.2616
     93  O          1.3780   -9.9940   -8.4060 O.2    88  GLU88      -0.2715
     94  CB         0.2500   -8.3970   -5.7210 C.3    88  GLU88       0.0429
     95  CG        -0.8430   -8.2060   -6.7540 C.3    88  GLU88       0.1163
     96  CD        -2.1560   -7.7360   -6.1390 C.2    88  GLU88       0.3649
     97  OE1       -2.6430   -8.3740   -5.1740 O.co2  88  GLU88      -0.2457
     98  OE2       -2.6920   -6.7210   -6.6260 O.co2  88  GLU88      -0.2457
     99  N          1.3920  -11.2190   -6.5130 N.am   89  TYR89      -0.1960
    100  CA         1.2600  -12.5000   -7.1870 C.3    89  TYR89       0.1771
    101  C         -0.1950  -12.9400   -7.2040 C.2    89  TYR89       0.2619
    102  O         -0.9100  -12.7880   -6.2220 O.2    89  TYR89      -0.2715
    103  CB         2.1260  -13.5510   -6.4980 C.3    89  TYR89       0.0574
    104  CG         2.0820  -14.9040   -7.1660 C.ar   89  TYR89      -0.0198
    105  CD1        2.5320  -15.0640   -8.4650 C.ar   89  TYR89      -0.0009
    106  CD2        1.5970  -16.0140   -6.4930 C.ar   89  TYR89      -0.0009
    107  CE1        2.4950  -16.3040   -9.0910 C.ar   89  TYR89       0.0417
    108  CE2        1.5620  -17.2560   -7.1040 C.ar   89  TYR89       0.0417
    109  CZ         2.0080  -17.3910   -8.3970 C.ar   89  TYR89       0.1957
    110  OH         1.9710  -18.6290   -9.0080 O.3    89  TYR89      -0.2866
    111  N         -0.6150  -13.4770   -8.3440 N.am   90  MET90      -0.1977
    112  CA        -1.9840  -13.9400   -8.5380 C.3    90  MET90       0.1605
    113  C         -1.9530  -15.4190   -8.8990 C.2    90  MET90       0.2287
    114  O         -1.6480  -15.7790  -10.0250 O.2    90  MET90      -0.2864
    115  CB        -2.6720  -13.1120   -9.6220 C.3    90  MET90       0.0413
    116  CG        -2.6110  -11.6060   -9.3530 C.3    90  MET90       0.0598
    117  SD        -3.6600  -11.0980   -7.9750 S.3    90  MET90      -0.1393
    118  CE        -5.2970  -11.1590   -8.7280 C.3    90  MET90       0.0692
    119  N         -3.7080  -16.9440  -12.1240 N.3    93  GLY93      -0.1210
    120  CA        -3.3350  -16.4790  -13.4440 C.3    93  GLY93       0.1956
    121  C         -4.3850  -15.6760  -14.1860 C.2    93  GLY93       0.2612
    122  O         -5.2070  -15.0010  -13.5830 O.2    93  GLY93      -0.2717
    123  N         -4.3530  -15.7470  -15.5110 N.am   94  SER94      -0.1952
    124  CA        -5.2920  -14.9790  -16.3150 C.3    94  SER94       0.1924
    125  C         -6.6990  -15.5310  -16.1800 C.2    94  SER94       0.2314
    126  O         -6.9020  -16.7400  -16.1120 O.2    94  SER94      -0.2863
    127  CB        -4.8640  -14.9760  -17.7790 C.3    94  SER94       0.2116
    128  OG        -3.5630  -14.4240  -17.8870 O.3    94  SER94      -0.2180
    129  N         -6.3390  -10.6880  -13.8960 N.3   141  LEU141     -0.1245
    130  CA        -5.6880  -11.7640  -13.1480 C.3   141  LEU141      0.1561
    131  C         -6.5560  -12.1620  -11.9640 C.2   141  LEU141      0.2260
    132  O         -7.3080  -11.3420  -11.4310 O.2   141  LEU141     -0.2867
    133  CB        -4.3050  -11.3200  -12.6600 C.3   141  LEU141      0.0270
    134  CG        -3.2620  -11.0930  -13.7560 C.3   141  LEU141      0.0019
    135  CD1       -2.0680  -10.2940  -13.2270 C.3   141  LEU141      0.0001
    136  CD2       -2.7860  -12.4290  -14.3130 C.3   141  LEU141      0.0001
    137  N         -5.3020   -5.7870  -14.9840 N.3   151  SER151     -0.1202
    138  CA        -3.9010   -5.7660  -15.3500 C.3   151  SER151      0.2020
    139  C         -3.7180   -5.1720  -16.7230 C.2   151  SER151      0.2618
    140  O         -4.5990   -4.5780  -17.1920 O.2   151  SER151     -0.2717
    141  CB        -3.2740   -7.1450  -15.3150 C.3   151  SER151      0.2103
    142  OG        -1.9060   -7.0260  -15.4200 O.3   151  SER151     -0.2182
    143  N         -2.5370   -5.3120  -17.2890 N.am  152  ASP152     -0.1973
    144  CA        -2.2240   -4.7810  -18.6120 C.3   152  ASP152      0.1709
    145  C         -2.2580   -3.2860  -18.8260 C.2   152  ASP152      0.2293
    146  O         -3.0860   -2.7440  -19.5120 O.2   152  ASP152     -0.2864
    147  CB        -3.1250   -5.4410  -19.6370 C.3   152  ASP152      0.1436
    148  CG        -2.8450   -4.9960  -21.0570 C.2   152  ASP152      0.3671
    149  OD1       -1.7320   -5.0870  -21.5130 O.co2 152  ASP152     -0.2456
    150  OD2       -3.7450   -4.6090  -21.7680 O.co2 152  ASP152     -0.2456
@<TRIPOS>BOND
     1    20    19    2
     2    19    18    1
     3    16    13    1
     4    15    14    2
     5    14    17   am
     6    14    13    1
     7   150   148   ar
     8    18    17    1
     9   149   148   ar
    10    13    12    1
    11   148   147    1
    12    12    10   am
    13   147   144    1
    14   146   145    2
    15    10    11    2
    16    10     9    1
    17   145   144    1
    18   144   143    1
    19     9     8    1
    20    50    51    1
    21    49    48    1
    22   128   127    1
    23    54    51    1
    24    54    55    1
    25   127   124    1
    26    27    25    1
    27    58    56   ar
    28    51    52    1
    29    48    47    1
    30    21    22    1
    31    57    56   ar
    32    56    55    1
    33     8     3   am
    34   143   139   am
    35   140   139    2
    36     4     3    2
    37   139   138    1
    38    25    22    1
    39    25    26    1
    40    47    46    1
    41     3     2    1
    42    46    45    1
    43   124   125    1
    44   124   123    1
    45    22    23    1
    46   125   126    2
    47    52    53    2
    48    45    42    1
    49    24    23    2
    50    82    80    1
    51   123   121   am
    52   142   141    1
    53   138   141    1
    54   138   137    1
    55     2     1    1
    56     2     5    1
    57    43    42    1
    58    43    44    2
    59    42    41    1
    60    80    79    1
    61   136   134    1
    62   121   122    2
    63   121   120    1
    64     7     5    1
    65     5     6    1
    66   129   130    1
    67    59    60    1
    68   134   135    1
    69   134   133    1
    70    36    35    2
    71    41    35   am
    72    66    65    1
    73    79    81    1
    74    79    76    1
    75   120   119    1
    76    74    72    1
    77   130   133    1
    78   130   131    1
    79    75    76    1
    80    35    34    1
    81    63    60    1
    82    63    64    1
    83    60    61    1
    84    76    77    1
    85    72    71    1
    86   131   132    2
    87    64    65    1
    88    78    77    2
    89    73    71    1
    90    34    33    1
    91    34    37    1
    92    61    62    2
    93    39    37    1
    94    33    30   am
    95    71    68    1
    96    89    87    1
    97    37    38    1
    98    32    29    1
    99    88    87    1
   100    30    29    1
   101    30    31    2
   102    67    68    1
   103   114   113    2
   104    29    28    1
   105    87    84    1
   106    68    69    1
   107   115   116    1
   108   115   112    1
   109    70    69    2
   110   116   117    1
   111    38    40    1
   112   107   105   ar
   113   107   109   ar
   114   110   109    1
   115    83    84    1
   116   113   112    1
   117   118   117    1
   118    84    85    1
   119   112   111    1
   120   105   104   ar
   121    93    92    2
   122   109   108   ar
   123   111   101   am
   124    85    86    2
   125    85    90   am
   126   101   100    1
   127   101   102    2
   128   100    99    1
   129   100   103    1
   130    92    99   am
   131    92    91    1
   132   104   103    1
   133   104   106   ar
   134   108   106   ar
   135    90    91    1
   136    95    96    1
   137    95    94    1
   138    98    96   ar
   139    91    94    1
   140    96    97   ar
