@<TRIPOS>MOLECULE
tmp/4p4dA07.pdb
 226 215 0 0 0
SMALL
GASTEIGER

@<TRIPOS>ATOM
      1  N         21.6430   50.1580   36.3240 N.3   155  PHE155     -0.1227
      2  CA        20.5230   49.2380   36.3670 C.3   155  PHE155      0.1736
      3  C         20.2130   48.7450   34.9560 C.2   155  PHE155      0.2595
      4  O         20.1850   49.5320   33.9850 O.2   155  PHE155     -0.2718
      5  CB        19.3070   49.9870   36.9280 C.3   155  PHE155      0.0547
      6  CG        18.0350   49.1870   36.8900 C.ar  155  PHE155     -0.0202
      7  CD1       17.9270   47.9950   37.6140 C.ar  155  PHE155     -0.0042
      8  CD2       16.9160   49.6920   36.2130 C.ar  155  PHE155     -0.0042
      9  CE1       16.7220   47.2290   37.5920 C.ar  155  PHE155     -0.0003
     10  CE2       15.7240   48.9530   36.1910 C.ar  155  PHE155     -0.0003
     11  CZ        15.6350   47.7250   36.8710 C.ar  155  PHE155     -0.0000
     12  N         19.9300   47.4400   34.8420 N.am  156  ARG156     -0.1980
     13  CA        19.7400   46.8450   33.4910 C.3   156  ARG156      0.1597
     14  C         18.5260   47.4170   32.7430 C.2   156  ARG156      0.2287
     15  O         18.5250   47.4550   31.5090 O.2   156  ARG156     -0.2864
     16  CB        19.6930   45.3040   33.5980 C.3   156  ARG156      0.0334
     17  CG        18.3690   44.8280   34.2710 C.3   156  ARG156      0.0492
     18  CD        18.3760   43.2840   34.4700 C.3   156  ARG156      0.2205
     19  NE        19.1430   42.8600   35.6580 N.pl3 156  ARG156     -0.0865
     20  CZ        18.7140   43.0710   36.9260 C.cat 156  ARG156      0.5346
     21  NH1       17.5450   43.6890   37.1680 N.pl3 156  ARG156      0.1354
     22  NH2       19.4430   42.6670   37.9680 N.pl3 156  ARG156      0.1354
     23  N         14.6890   41.8780   36.1730 N.3   203  ASN203     -0.1240
     24  CA        13.6920   42.5950   35.3810 C.3   203  ASN203      0.1653
     25  C         14.3350   43.7570   34.6330 C.2   203  ASN203      0.2266
     26  O         15.3740   44.3030   35.0400 O.2   203  ASN203     -0.2867
     27  CB        12.5020   43.0360   36.2390 C.3   203  ASN203      0.1155
     28  CG        12.7260   44.3890   36.9320 C.2   203  ASN203      0.2627
     29  OD1       12.6600   45.4410   36.2850 O.2   203  ASN203     -0.2716
     30  ND2       12.9060   44.3680   38.2740 N.am  203  ASN203     -0.0877
     31  N         12.3580   42.3710   51.2240 N.3   323  HIS323     -0.1241
     32  CA        11.5960   41.3910   50.4190 C.3   323  HIS323      0.1621
     33  C         11.9670   39.9360   50.7460 C.2   323  HIS323      0.2264
     34  O         13.0030   39.6620   51.3870 O.2   323  HIS323     -0.2867
     35  CB        11.7180   41.7300   48.9110 C.3   323  HIS323      0.0745
     36  CG        13.0440   41.4000   48.2400 C.ar  323  HIS323      0.0817
     37  ND1       13.1880   40.3130   47.4010 N.ar  323  HIS323     -0.2268
     38  CD2       14.1890   42.1250   48.0980 C.ar  323  HIS323      0.1154
     39  CE1       14.3820   40.3460   46.8230 C.ar  323  HIS323      0.1986
     40  NE2       15.0150   41.4260   47.2400 N.ar  323  HIS323     -0.2212
     41  N         20.4180   37.3840   48.1880 N.3   333  ASP333     -0.1239
     42  CA        19.3810   38.3720   47.8310 C.3   333  ASP333      0.1674
     43  C         18.0440   37.5960   47.6770 C.2   333  ASP333      0.2266
     44  O         17.8450   36.9190   46.6650 O.2   333  ASP333     -0.2867
     45  CB        19.8340   39.0180   46.5090 C.3   333  ASP333      0.1410
     46  CG        18.8250   39.9600   45.9420 C.2   333  ASP333      0.3668
     47  OD1       17.8920   40.3000   46.6870 O.co2 333  ASP333     -0.2456
     48  OD2       19.0010   40.3100   44.7410 O.co2 333  ASP333     -0.2456
     49  N          9.4720   41.9270   44.8710 N.3   370  GLU370     -0.1231
     50  CA        10.4540   43.0240   44.7350 C.3   370  GLU370      0.1699
     51  C         11.2100   42.8640   43.4330 C.2   370  GLU370      0.2592
     52  O         11.5160   43.8800   42.7230 O.2   370  GLU370     -0.2718
     53  CB        11.3710   43.0310   45.9510 C.3   370  GLU370      0.0402
     54  CG        12.3150   44.2430   45.9470 C.3   370  GLU370      0.1161
     55  CD        13.6040   44.0700   45.1210 C.2   370  GLU370      0.3649
     56  OE1       13.8840   42.9670   44.5690 O.co2 370  GLU370     -0.2457
     57  OE2       14.3900   45.0850   45.0210 O.co2 370  GLU370     -0.2457
     58  N         11.5140   41.6190   43.0780 N.am  371  GLU371     -0.1979
     59  CA        12.4160   41.3800   41.9570 C.3   371  GLU371      0.1602
     60  C         11.7510   41.7260   40.6380 C.2   371  GLU371      0.2287
     61  O         12.4220   41.8660   39.6310 O.2   371  GLU371     -0.2864
     62  CB        12.9320   39.9310   41.9400 C.3   371  GLU371      0.0415
     63  CG        13.8370   39.5810   43.1610 C.3   371  GLU371      0.1163
     64  CD        15.2400   40.2210   43.0790 C.2   371  GLU371      0.3649
     65  OE1       15.5090   41.0070   42.1340 O.co2 371  GLU371     -0.2457
     66  OE2       16.0910   39.9160   43.9420 O.co2 371  GLU371     -0.2457
     67  N          9.9700   44.5120   40.2420 N.3   373  GLY373     -0.1210
     68  CA         9.7830   45.9680   40.1650 C.3   373  GLY373      0.1956
     69  C          9.2660   46.6050   41.4340 C.2   373  GLY373      0.2611
     70  O          8.5150   47.5950   41.3760 O.2   373  GLY373     -0.2717
     71  N          9.6610   46.0660   42.5760 N.am  374  LEU374     -0.1979
     72  CA         9.2560   46.6890   43.8820 C.3   374  LEU374      0.1596
     73  C          7.7310   46.6150   44.0330 C.2   374  LEU374      0.2287
     74  O          7.1140   47.4910   44.6360 O.2   374  LEU374     -0.2864
     75  CB         9.7620   48.1650   44.0130 C.3   374  LEU374      0.0297
     76  CG        11.1690   48.4190   43.4040 C.3   374  LEU374      0.0022
     77  CD1       11.5340   49.9010   43.5880 C.3   374  LEU374      0.0001
     78  CD2       12.2070   47.5360   44.1020 C.3   374  LEU374      0.0001
     79  N         17.0300   44.3660   52.7900 N.3   399  ASP399     -0.1239
     80  CA        17.4200   43.3880   51.7600 C.3   399  ASP399      0.1674
     81  C         18.7760   42.7970   52.1790 C.2   399  ASP399      0.2266
     82  O         19.1690   42.9090   53.3310 O.2   399  ASP399     -0.2867
     83  CB        17.4600   44.0320   50.3620 C.3   399  ASP399      0.1410
     84  CG        17.3170   43.0210   49.2140 C.2   399  ASP399      0.3668
     85  OD1       17.2870   41.8330   49.4410 O.co2 399  ASP399     -0.2456
     86  OD2       17.2530   43.4630   48.0490 O.co2 399  ASP399     -0.2456
     87  N         27.0080   41.8090   50.9580 N.3   403  GLU403     -0.1245
     88  CA        27.3570   41.6700   49.5540 C.3   403  GLU403      0.1567
     89  C         28.8860   41.5940   49.4660 C.2   403  GLU403      0.2260
     90  O         29.4860   41.6310   48.3850 O.2   403  GLU403     -0.2867
     91  CB        26.6960   42.7910   48.7300 C.3   403  GLU403      0.0388
     92  CG        25.1490   42.6340   48.6620 C.3   403  GLU403      0.1160
     93  CD        24.4010   43.8230   48.0750 C.2   403  GLU403      0.3649
     94  OE1       24.8720   44.9680   48.2010 O.co2 403  GLU403     -0.2457
     95  OE2       23.3020   43.6120   47.5130 O.co2 403  GLU403     -0.2457
     96  N         28.1600   49.5630   54.7750 N.3   409  ARG409     -0.1245
     97  CA        27.7200   50.5220   53.7760 C.3   409  ARG409      0.1563
     98  C         26.3570   51.0380   54.2270 C.2   409  ARG409      0.2260
     99  O         25.4140   50.2470   54.3780 O.2   409  ARG409     -0.2867
    100  CB        27.5990   49.8470   52.3940 C.3   409  ARG409      0.0307
    101  CG        27.3310   50.8750   51.3480 C.3   409  ARG409      0.0489
    102  CD        26.9230   50.3620   50.0260 C.3   409  ARG409      0.2205
    103  NE        26.2160   51.4840   49.3800 N.pl3 409  ARG409     -0.0865
    104  CZ        26.4650   51.9430   48.1550 C.cat 409  ARG409      0.5346
    105  NH1       27.3800   51.3320   47.3940 N.pl3 409  ARG409      0.1354
    106  NH2       25.7620   52.9810   47.6800 N.pl3 409  ARG409      0.1354
    107  N         23.2650   53.9180   53.3280 N.3   411  ASP411     -0.1239
    108  CA        22.6970   54.9370   52.4510 C.3   411  ASP411      0.1674
    109  C         21.4350   55.4090   53.2070 C.2   411  ASP411      0.2266
    110  O         20.5860   54.5920   53.5900 O.2   411  ASP411     -0.2867
    111  CB        22.2150   54.3810   51.0680 C.3   411  ASP411      0.1410
    112  CG        23.2350   53.5610   50.3120 C.2   411  ASP411      0.3668
    113  OD1       24.4130   53.5090   50.6850 O.co2 411  ASP411     -0.2456
    114  OD2       22.8260   53.0050   49.2330 O.co2 411  ASP411     -0.2456
    115  N         23.7550   58.6200   49.2140 N.3   460  LYS460     -0.1245
    116  CA        22.3880   59.0550   48.9030 C.3   460  LYS460      0.1561
    117  C         21.5510   57.8500   48.5450 C.2   460  LYS460      0.2260
    118  O         22.0330   56.8990   47.9050 O.2   460  LYS460     -0.2867
    119  CB        22.4160   59.9830   47.6860 C.3   460  LYS460      0.0271
    120  CG        23.2170   61.2480   47.9060 C.3   460  LYS460      0.0035
    121  CD        22.9880   62.3170   46.8200 C.3   460  LYS460      0.0206
    122  CE        23.5140   61.9000   45.4690 C.3   460  LYS460      0.1093
    123  NZ        24.9900   62.0670   45.4130 N.3   460  LYS460     -0.1314
    124  N         19.1430   56.0700   46.1190 N.3   462  GLY462     -0.1210
    125  CA        18.3820   56.1200   44.8630 C.3   462  GLY462      0.1956
    126  C         17.1270   55.2600   44.7950 C.2   462  GLY462      0.2613
    127  O         16.0680   55.5530   45.3930 O.2   462  GLY462     -0.2717
    128  N         17.1910   54.2300   43.9340 N.am  463  SER463     -0.1938
    129  CA        16.1590   53.2390   44.0030 C.3   463  SER463      0.2055
    130  C         16.7490   51.8200   43.7260 C.2   463  SER463      0.2644
    131  O         17.9490   51.4770   43.9990 O.2   463  SER463     -0.2714
    132  CB        15.0760   53.6010   43.0500 C.3   463  SER463      0.2130
    133  OG        14.0050   52.6910   43.0760 O.3   463  SER463     -0.2179
    134  N         15.9000   50.9730   43.1570 N.am  464  GLY464     -0.1939
    135  CA        16.3260   49.5800   42.9690 C.3   464  GLY464      0.2014
    136  C         16.0600   48.7470   44.2120 C.2   464  GLY464      0.2638
    137  O         16.5950   47.6530   44.3430 O.2   464  GLY464     -0.2714
    138  N         15.2970   49.2830   45.1690 N.am  465  ASN465     -0.1972
    139  CA        14.9020   48.4940   46.3500 C.3   465  ASN465      0.1688
    140  C         13.6640   49.0540   47.0080 C.2   465  ASN465      0.2292
    141  O         13.1770   50.1110   46.6080 O.2   465  ASN465     -0.2864
    142  CB        16.0530   48.3170   47.3350 C.3   465  ASN465      0.1181
    143  CG        16.1360   46.8750   47.8170 C.2   465  ASN465      0.2629
    144  OD1       15.2790   46.3980   48.5930 O.2   465  ASN465     -0.2716
    145  ND2       17.1290   46.1450   47.2980 N.am  465  ASN465     -0.0877
    146  N         12.6320   50.5640   49.6240 N.3   467  PHE467     -0.1241
    147  CA        12.4050   51.8840   50.2400 C.3   467  PHE467      0.1605
    148  C         11.8660   52.9230   49.2400 C.2   467  PHE467      0.2264
    149  O         11.4720   54.0050   49.6690 O.2   467  PHE467     -0.2867
    150  CB        13.7120   52.4400   50.8510 C.3   467  PHE467      0.0534
    151  CG        14.8160   52.5850   49.8380 C.ar  467  PHE467     -0.0203
    152  CD1       14.8900   53.7450   49.0180 C.ar  467  PHE467     -0.0042
    153  CD2       15.7450   51.5300   49.6590 C.ar  467  PHE467     -0.0042
    154  CE1       15.9180   53.8020   48.0100 C.ar  467  PHE467     -0.0003
    155  CE2       16.8100   51.6170   48.6870 C.ar  467  PHE467     -0.0003
    156  CZ        16.8430   52.7690   47.8440 C.ar  467  PHE467     -0.0000
    157  N         19.1880   52.4770   54.9850 N.3   480  ARG480     -0.1245
    158  CA        19.5560   51.0730   54.8020 C.3   480  ARG480      0.1563
    159  C         21.0150   50.8950   55.1730 C.2   480  ARG480      0.2260
    160  O         21.8030   51.8560   55.1060 O.2   480  ARG480     -0.2867
    161  CB        19.3440   50.6550   53.3340 C.3   480  ARG480      0.0307
    162  CG        20.3150   51.3580   52.3710 C.3   480  ARG480      0.0489
    163  CD        19.9210   51.1550   50.8660 C.3   480  ARG480      0.2205
    164  NE        19.7870   49.7470   50.5060 N.pl3 480  ARG480     -0.0865
    165  CZ        19.7890   49.2820   49.2510 C.cat 480  ARG480      0.5346
    166  NH1       19.6220   47.9700   49.0420 N.pl3 480  ARG480      0.1354
    167  NH2       19.9300   50.1180   48.2100 N.pl3 480  ARG480      0.1354
    168  N         24.2040   47.6140   55.0900 N.3   482  ARG482     -0.1245
    169  CA        24.5890   46.2240   54.8150 C.3   482  ARG482      0.1563
    170  C         26.1040   46.1530   54.7500 C.2   482  ARG482      0.2260
    171  O         26.7840   47.1910   54.6800 O.2   482  ARG482     -0.2867
    172  CB        23.9600   45.7410   53.4830 C.3   482  ARG482      0.0307
    173  CG        24.4840   46.4630   52.2030 C.3   482  ARG482      0.0489
    174  CD        23.7680   47.7800   52.0840 C.3   482  ARG482      0.2205
    175  NE        23.6520   48.3430   50.7230 N.pl3 482  ARG482     -0.0865
    176  CZ        23.6190   49.6630   50.5250 C.cat 482  ARG482      0.5346
    177  NH1       23.7810   50.4770   51.5930 N.pl3 482  ARG482      0.1354
    178  NH2       23.4800   50.1540   49.2890 N.pl3 482  ARG482      0.1354
    179  N         25.3870   37.2500   41.8100 N.3   491  TYR491     -0.1227
    180  CA        24.0860   37.9450   41.8790 C.3   491  TYR491      0.1736
    181  C         23.0630   37.4150   40.8790 C.2   491  TYR491      0.2595
    182  O         23.3180   37.3890   39.6570 O.2   491  TYR491     -0.2718
    183  CB        24.3980   39.4120   41.6540 C.3   491  TYR491      0.0548
    184  CG        23.2200   40.3710   41.5170 C.ar  491  TYR491     -0.0200
    185  CD1       22.3340   40.5950   42.5790 C.ar  491  TYR491     -0.0009
    186  CD2       23.0640   41.0910   40.3300 C.ar  491  TYR491     -0.0009
    187  CE1       21.2770   41.5330   42.4580 C.ar  491  TYR491      0.0417
    188  CE2       22.0300   42.0380   40.1850 C.ar  491  TYR491      0.0417
    189  CZ        21.1570   42.2390   41.2540 C.ar  491  TYR491      0.1957
    190  OH        20.1330   43.1440   41.1190 O.3   491  TYR491     -0.2866
    191  N         21.9150   36.9660   41.3970 N.am  492  HIS492     -0.1975
    192  CA        20.7460   36.5080   40.5670 C.3   492  HIS492      0.1656
    193  C         21.0150   35.2420   39.7380 C.2   492  HIS492      0.2291
    194  O         20.2830   34.9570   38.7880 O.2   492  HIS492     -0.2864
    195  CB        20.2290   37.6280   39.6510 C.3   492  HIS492      0.0771
    196  CG        19.5000   38.7440   40.3720 C.ar  492  HIS492      0.0820
    197  ND1       18.9240   39.7980   39.6900 N.ar  492  HIS492     -0.2267
    198  CD2       19.2810   38.9850   41.6850 C.ar  492  HIS492      0.1154
    199  CE1       18.3580   40.6270   40.5480 C.ar  492  HIS492      0.1986
    200  NE2       18.4990   40.1260   41.7650 N.ar  492  HIS492     -0.2212
    201  N         18.8880   53.7760   37.6770 N.3   636  LYS636     -0.1231
    202  CA        17.9450   53.6900   38.8100 C.3   636  LYS636      0.1693
    203  C         18.6100   53.4280   40.1590 C.2   636  LYS636      0.2592
    204  O         18.0860   53.8490   41.2130 O.2   636  LYS636     -0.2718
    205  CB        16.9650   52.5340   38.5230 C.3   636  LYS636      0.0285
    206  CG        15.8460   52.4900   39.4640 C.3   636  LYS636      0.0035
    207  CD        14.8470   51.3990   38.9940 C.3   636  LYS636      0.0206
    208  CE        13.5400   51.6270   39.7300 C.3   636  LYS636      0.1093
    209  NZ        12.6320   50.4740   39.5000 N.3   636  LYS636     -0.1314
    210  N         19.7590   52.7380   40.1570 N.am  637  TYR637     -0.1962
    211  CA        20.4130   52.4120   41.4300 C.3   637  TYR637      0.1771
    212  C         21.0280   53.6120   42.1110 C.2   637  TYR637      0.2619
    213  O         21.1790   53.6200   43.3320 O.2   637  TYR637     -0.2715
    214  CB        21.5250   51.4080   41.2290 C.3   637  TYR637      0.0574
    215  CG        21.0790   50.0130   40.8180 C.ar  637  TYR637     -0.0198
    216  CD1       19.9850   49.3910   41.4310 C.ar  637  TYR637     -0.0009
    217  CD2       21.8150   49.2930   39.8840 C.ar  637  TYR637     -0.0009
    218  CE1       19.5940   48.0630   41.0630 C.ar  637  TYR637      0.0417
    219  CE2       21.4490   47.9690   39.5110 C.ar  637  TYR637      0.0417
    220  CZ        20.3650   47.3520   40.1500 C.ar  637  TYR637      0.1957
    221  OH        20.0410   46.0690   39.7620 O.3   637  TYR637     -0.2866
    222  N         21.4170   54.6200   41.3180 N.am  638  ALA638     -0.1977
    223  CA        22.1550   55.7700   41.8650 C.3   638  ALA638      0.1597
    224  C         21.1820   56.8600   42.2960 C.2   638  ALA638      0.2287
    225  O         20.1730   57.0830   41.6290 O.2   638  ALA638     -0.2864
    226  CB        23.0790   56.3330   40.8030 C.3   638  ALA638      0.0319
@<TRIPOS>BOND
     1    15    14    2
     2    14    13    1
     3    13    16    1
     4    13    12    1
     5    16    17    1
     6     4     3    2
     7    17    18    1
     8    18    19    1
     9    25    26    2
    10    25    24    1
    11    12     3   am
    12     3     2    1
    13    24    23    1
    14    24    27    1
    15    19    20    2
    16    10     8   ar
    17    10    11   ar
    18     8     6   ar
    19    27    28    1
    20    29    28    2
    21     1     2    1
    22     2     5    1
    23    11     9   ar
    24     6     5    1
    25     6     7   ar
    26    20    21    1
    27    20    22    1
    28    28    30   am
    29     9     7   ar
    30   201   202    1
    31   205   202    1
    32   205   206    1
    33   194   193    2
    34   202   203    1
    35   207   206    1
    36   207   208    1
    37   209   208    1
    38   219   217   ar
    39   219   220   ar
    40    61    60    2
    41   195   196    1
    42   195   192    1
    43   182   181    2
    44   197   196   ar
    45   197   199   ar
    46   193   192    1
    47   221   220    1
    48   217   215   ar
    49   220   218   ar
    50   210   203   am
    51   210   211    1
    52   203   204    2
    53    68    67    1
    54    68    69    1
    55   188   186   ar
    56   188   189   ar
    57   186   184   ar
    58   196   198   ar
    59   199   200   ar
    60   192   191    1
    61    60    59    1
    62   226   223    1
    63   215   214    1
    64   215   216   ar
    65   181   191   am
    66   181   180    1
    67   218   216   ar
    68   190   189    1
    69   214   211    1
    70   189   187   ar
    71   222   223    1
    72   222   212   am
    73    70    69    2
    74   211   212    1
    75    69    71   am
    76   184   183    1
    77   184   185   ar
    78   225   224    2
    79   183   180    1
    80   198   200   ar
    81   179   180    1
    82   223   224    1
    83    62    59    1
    84    62    63    1
    85    59    58    1
    86   212   213    2
    87    65    64   ar
    88   187   185   ar
    89    71    72    1
    90    52    51    2
    91   135   134    1
    92   135   136    1
    93   132   133    1
    94   132   129    1
    95    58    51   am
    96    64    63    1
    97    64    66   ar
    98   134   130   am
    99    76    77    1
   100    76    75    1
   101    76    78    1
   102    51    50    1
   103   130   131    2
   104   130   129    1
   105    72    75    1
   106    72    73    1
   107   128   129    1
   108   128   126   am
   109    73    74    2
   110   136   137    2
   111   136   138   am
   112    56    55   ar
   113    50    49    1
   114    50    53    1
   115    48    46   ar
   116   126   125    1
   117   126   127    2
   118   125   124    1
   119    57    55   ar
   120    55    54    1
   121   138   139    1
   122   123   122    1
   123   122   121    1
   124    46    45    1
   125    46    47   ar
   126    54    53    1
   127   139   140    1
   128   139   142    1
   129    45    42    1
   130   141   140    2
   131    44    43    2
   132   121   120    1
   133    39    40   ar
   134    39    37   ar
   135    40    38   ar
   136   145   143   am
   137   142   143    1
   138   105   104    1
   139    37    36   ar
   140    95    93   ar
   141    43    42    1
   142   106   104    1
   143   119   120    1
   144   119   116    1
   145   143   144    2
   146    42    41    1
   147   156   154   ar
   148   156   155   ar
   149   118   117    2
   150   154   152   ar
   151    86    84   ar
   152    93    94   ar
   153    93    92    1
   154    38    36   ar
   155   104   103    2
   156   167   165    1
   157    36    35    1
   158    90    89    2
   159   117   116    1
   160    92    91    1
   161   155   153   ar
   162    91    88    1
   163   116   115    1
   164    35    32    1
   165   152   151   ar
   166   166   165    1
   167    84    85   ar
   168    84    83    1
   169   114   112   ar
   170   148   149    2
   171   148   147    1
   172   165   164    2
   173   178   176    1
   174   103   102    1
   175    89    88    1
   176    88    87    1
   177   146   147    1
   178   153   151   ar
   179   151   150    1
   180   102   101    1
   181   147   150    1
   182   112   113   ar
   183   112   111    1
   184    83    80    1
   185    32    33    1
   186    32    31    1
   187   164   163    1
   188   176   175    2
   189   176   177    1
   190   175   174    1
   191    33    34    2
   192   163   162    1
   193   111   108    1
   194   101   100    1
   195    80    81    1
   196    80    79    1
   197   174   173    1
   198    81    82    2
   199   173   172    1
   200   162   161    1
   201   100    97    1
   202   108   109    1
   203   108   107    1
   204   109   110    2
   205   161   158    1
   206   172   169    1
   207    97    98    1
   208    97    96    1
   209    98    99    2
   210   171   170    2
   211   170   169    1
   212   158   157    1
   213   158   159    1
   214   169   168    1
   215   160   159    2
