@<TRIPOS>MOLECULE
tmp/4p4dA05.pdb
 83 78 0 0 0
SMALL
GASTEIGER

@<TRIPOS>ATOM
      1  N         23.1550   61.3840   62.2110 N.3   418  SER418     -0.1202
      2  CA        23.6120   61.4470   63.6230 C.3   418  SER418      0.2020
      3  C         23.2530   60.1880   64.3590 C.2   418  SER418      0.2618
      4  O         24.0640   59.6680   65.1500 O.2   418  SER418     -0.2717
      5  CB        23.0110   62.6690   64.3150 C.3   418  SER418      0.2103
      6  OG        23.6100   63.8240   63.7120 O.3   418  SER418     -0.2182
      7  N         22.0410   59.6990   64.1060 N.am  419  LEU419     -0.1979
      8  CA        21.5980   58.4210   64.6560 C.3   419  LEU419      0.1596
      9  C         22.5910   57.3070   64.2930 C.2   419  LEU419      0.2287
     10  O         23.0020   56.5150   65.1550 O.2   419  LEU419     -0.2864
     11  CB        20.2100   58.0670   64.1100 C.3   419  LEU419      0.0297
     12  CG        19.7400   56.6090   64.3150 C.3   419  LEU419      0.0022
     13  CD1       19.5480   56.2920   65.7870 C.3   419  LEU419      0.0001
     14  CD2       18.4860   56.4140   63.5630 C.3   419  LEU419      0.0001
     15  N         25.9790   57.7230   66.0020 N.3   422  ASN422     -0.1240
     16  CA        25.9530   57.4240   67.4460 C.3   422  ASN422      0.1653
     17  C         25.7910   55.9420   67.6910 C.2   422  ASN422      0.2266
     18  O         26.4230   55.3760   68.5970 O.2   422  ASN422     -0.2867
     19  CB        24.8110   58.1590   68.1530 C.3   422  ASN422      0.1155
     20  CG        25.0700   59.6380   68.3030 C.2   422  ASN422      0.2627
     21  OD1       26.0880   60.1440   67.8640 O.2   422  ASN422     -0.2716
     22  ND2       24.1040   60.3520   68.9000 N.am  422  ASN422     -0.0877
     23  N         15.8120   52.7740   68.2420 N.3   525  GLU525     -0.1245
     24  CA        15.9300   54.2020   68.6330 C.3   525  GLU525      0.1567
     25  C         14.7920   55.0250   68.0200 C.2   525  GLU525      0.2260
     26  O         14.1970   55.8720   68.6700 O.2   525  GLU525     -0.2867
     27  CB        17.2610   54.7720   68.1510 C.3   525  GLU525      0.0388
     28  CG        18.4290   54.4480   69.0560 C.3   525  GLU525      0.1160
     29  CD        18.1690   55.0180   70.5090 C.2   525  GLU525      0.3649
     30  OE1       17.8090   54.1900   71.3370 O.co2 525  GLU525     -0.2457
     31  OE2       18.2100   56.2570   70.7680 O.co2 525  GLU525     -0.2457
     32  N         12.9450   56.4230   71.2460 N.3   529  SER529     -0.1217
     33  CA        13.5030   57.6790   71.7690 C.3   529  SER529      0.1889
     34  C         12.3800   58.6700   72.0200 C.2   529  SER529      0.2288
     35  O         11.4630   58.7850   71.2200 O.2   529  SER529     -0.2866
     36  CB        14.5080   58.2590   70.7710 C.3   529  SER529      0.2089
     37  OG        15.1260   59.4390   71.2820 O.3   529  SER529     -0.2183
     38  N         15.0310   60.7080   66.7070 N.3   533  PRO533     -0.2102
     39  CA        16.4810   60.8700   66.6030 C.3   533  PRO533      0.1504
     40  C         16.9130   61.3670   65.1980 C.2   533  PRO533      0.2576
     41  O         17.6660   60.6860   64.4740 O.2   533  PRO533     -0.2718
     42  CB        16.9990   59.4550   66.8860 C.3   533  PRO533      0.0282
     43  CG        15.9180   58.5420   66.3100 C.3   533  PRO533      0.0208
     44  CD        14.6210   59.2970   66.6300 C.3   533  PRO533      0.0893
     45  N         16.3740   62.5220   64.8240 N.am  534  PHE534     -0.1963
     46  CA        16.6740   63.1720   63.5330 C.3   534  PHE534      0.1771
     47  C         17.3710   64.4970   63.8080 C.2   534  PHE534      0.2619
     48  O         16.9570   65.2440   64.7190 O.2   534  PHE534     -0.2715
     49  CB        15.3740   63.5190   62.8070 C.3   534  PHE534      0.0574
     50  CG        14.5700   62.3360   62.3020 C.ar  534  PHE534     -0.0200
     51  CD1       15.1630   61.1230   61.9570 C.ar  534  PHE534     -0.0042
     52  CD2       13.2000   62.4990   62.0800 C.ar  534  PHE534     -0.0042
     53  CE1       14.3790   60.0720   61.4690 C.ar  534  PHE534     -0.0003
     54  CE2       12.4070   61.4220   61.5530 C.ar  534  PHE534     -0.0003
     55  CZ        13.0150   60.2300   61.2540 C.ar  534  PHE534     -0.0000
     56  N         18.4200   64.8250   63.0480 N.am  535  ASP535     -0.1971
     57  CA        19.0610   66.1280   63.2300 C.3   535  ASP535      0.1709
     58  C         18.8800   66.9520   61.9550 C.2   535  ASP535      0.2293
     59  O         19.5620   66.6980   60.9050 O.2   535  ASP535     -0.2864
     60  CB        20.5390   65.9740   63.5930 C.3   535  ASP535      0.1436
     61  CG        21.1550   67.2700   64.0560 C.2   535  ASP535      0.3671
     62  OD1       20.5820   68.3510   63.8280 O.co2 535  ASP535     -0.2456
     63  OD2       22.2160   67.2090   64.7090 O.co2 535  ASP535     -0.2456
     64  N         19.8640   69.7820   61.2140 N.3   537  ARG537     -0.1245
     65  CA        21.0680   70.5470   60.8100 C.3   537  ARG537      0.1563
     66  C         21.9130   69.7660   59.7930 C.2   537  ARG537      0.2260
     67  O         22.6240   70.3560   58.9630 O.2   537  ARG537     -0.2867
     68  CB        21.9270   70.9530   62.0130 C.3   537  ARG537      0.0307
     69  CG        21.1700   71.8490   62.9570 C.3   537  ARG537      0.0489
     70  CD        21.9290   71.9650   64.3210 C.3   537  ARG537      0.2205
     71  NE        22.0380   70.6720   64.9870 N.pl3 537  ARG537     -0.0865
     72  CZ        22.6580   70.4960   66.1540 C.cat 537  ARG537      0.5346
     73  NH1       23.2170   71.5420   66.7520 N.pl3 537  ARG537      0.1354
     74  NH2       22.7390   69.2820   66.7110 N.pl3 537  ARG537      0.1354
     75  N         16.4300   71.4010   72.1490 N.3   590  GLN590     -0.1245
     76  CA        17.3210   71.0420   73.2240 C.3   590  GLN590      0.1566
     77  C         16.8110   71.6720   74.5060 C.2   590  GLN590      0.2260
     78  O         16.9470   71.0420   75.5530 O.2   590  GLN590     -0.2867
     79  CB        18.7730   71.4010   72.9090 C.3   590  GLN590      0.0367
     80  CG        19.4990   70.2460   72.2600 C.3   590  GLN590      0.0905
     81  CD        20.9610   70.5350   71.9580 C.2   590  GLN590      0.2608
     82  OE1       21.7250   70.9670   72.8290 O.2   590  GLN590     -0.2717
     83  NE2       21.3640   70.2770   70.7150 N.am  590  GLN590     -0.0878
@<TRIPOS>BOND
     1    67    66    2
     2    66    65    1
     3    65    64    1
     4    65    68    1
     5    59    58    2
     6    55    53   ar
     7    55    54   ar
     8    53    51   ar
     9    54    52   ar
    10    58    57    1
    11    51    50   ar
    12    68    69    1
    13    52    50   ar
    14     1     2    1
    15    50    49    1
    16    49    46    1
    17    69    70    1
    18    56    57    1
    19    56    47   am
    20    57    60    1
    21    46    47    1
    22    46    45    1
    23    14    12    1
    24    60    61    1
    25     2     5    1
    26     2     3    1
    27     6     5    1
    28    47    48    2
    29    62    61   ar
    30    61    63   ar
    31     7     3   am
    32     7     8    1
    33    11    12    1
    34    11     8    1
    35     9     8    1
    36     9    10    2
    37    12    13    1
    38    70    71    1
    39     3     4    2
    40    41    40    2
    41    45    40   am
    42    71    72    2
    43    40    39    1
    44    15    16    1
    45    72    74    1
    46    72    73    1
    47    43    44    1
    48    43    42    1
    49    39    38    1
    50    39    42    1
    51    44    38    1
    52    16    17    1
    53    16    19    1
    54    17    18    2
    55    21    20    2
    56    25    24    1
    57    25    26    2
    58    27    24    1
    59    27    28    1
    60    19    20    1
    61    23    24    1
    62    20    22   am
    63    28    29    1
    64    29    31   ar
    65    29    30   ar
    66    83    81   am
    67    36    37    1
    68    36    33    1
    69    35    34    2
    70    32    33    1
    71    33    34    1
    72    81    80    1
    73    81    82    2
    74    75    76    1
    75    80    79    1
    76    79    76    1
    77    76    77    1
    78    77    78    2
