@<TRIPOS>MOLECULE
tmp/4p4eA07.pdb
 229 221 0 0 0
SMALL
GASTEIGER

@<TRIPOS>ATOM
      1  N         21.7380   50.3430   36.3030 N.3   155  PHE155     -0.1227
      2  CA        20.5780   49.4380   36.2810 C.3   155  PHE155      0.1736
      3  C         20.3080   48.9320   34.8690 C.2   155  PHE155      0.2595
      4  O         20.2590   49.7200   33.9000 O.2   155  PHE155     -0.2718
      5  CB        19.3410   50.2150   36.8350 C.3   155  PHE155      0.0547
      6  CG        18.0340   49.4480   36.7220 C.ar  155  PHE155     -0.0202
      7  CD1       17.9110   48.2040   37.3610 C.ar  155  PHE155     -0.0042
      8  CD2       16.9260   50.0110   36.0490 C.ar  155  PHE155     -0.0042
      9  CE1       16.7130   47.4620   37.2950 C.ar  155  PHE155     -0.0003
     10  CE2       15.7090   49.2500   35.9530 C.ar  155  PHE155     -0.0003
     11  CZ        15.6390   47.9920   36.5710 C.ar  155  PHE155     -0.0000
     12  N         20.0150   47.6270   34.7540 N.am  156  ARG156     -0.1980
     13  CA        19.8410   47.0470   33.3760 C.3   156  ARG156      0.1597
     14  C         18.6180   47.6260   32.6280 C.2   156  ARG156      0.2287
     15  O         18.6200   47.6450   31.3900 O.2   156  ARG156     -0.2864
     16  CB        19.7420   45.5150   33.4580 C.3   156  ARG156      0.0334
     17  CG        18.4370   45.0790   34.1830 C.3   156  ARG156      0.0492
     18  CD        18.4160   43.5130   34.3980 C.3   156  ARG156      0.2205
     19  NE        19.1850   43.1060   35.5900 N.pl3 156  ARG156     -0.0865
     20  CZ        18.7630   43.3150   36.8470 C.cat 156  ARG156      0.5346
     21  NH1       17.5860   43.9120   37.0940 N.pl3 156  ARG156      0.1354
     22  NH2       19.5230   42.9250   37.8620 N.pl3 156  ARG156      0.1354
     23  N         14.6780   42.1220   36.1120 N.3   203  ASN203     -0.1240
     24  CA        13.7040   42.8250   35.2920 C.3   203  ASN203      0.1653
     25  C         14.3360   44.0110   34.5610 C.2   203  ASN203      0.2266
     26  O         15.3520   44.5620   34.9740 O.2   203  ASN203     -0.2867
     27  CB        12.5000   43.2620   36.1600 C.3   203  ASN203      0.1155
     28  CG        12.7210   44.6240   36.8490 C.2   203  ASN203      0.2627
     29  OD1       12.6830   45.6820   36.2100 O.2   203  ASN203     -0.2716
     30  ND2       12.8990   44.6060   38.1810 N.am  203  ASN203     -0.0877
     31  N         12.4230   42.5230   51.1900 N.3   323  HIS323     -0.1241
     32  CA        11.6190   41.5740   50.3690 C.3   323  HIS323      0.1621
     33  C         11.9840   40.1340   50.6710 C.2   323  HIS323      0.2264
     34  O         13.0330   39.8540   51.2920 O.2   323  HIS323     -0.2867
     35  CB        11.7470   41.9300   48.8720 C.3   323  HIS323      0.0745
     36  CG        13.0730   41.6430   48.2200 C.ar  323  HIS323      0.0817
     37  ND1       13.2340   40.5740   47.3640 N.ar  323  HIS323     -0.2268
     38  CD2       14.1960   42.4000   48.0820 C.ar  323  HIS323      0.1154
     39  CE1       14.4260   40.6380   46.7970 C.ar  323  HIS323      0.1986
     40  NE2       15.0440   41.7170   47.2360 N.ar  323  HIS323     -0.2212
     41  N         20.5240   37.6870   48.1610 N.3   333  ASP333     -0.1239
     42  CA        19.4520   38.6820   47.7910 C.3   333  ASP333      0.1674
     43  C         18.1460   37.8720   47.6250 C.2   333  ASP333      0.2266
     44  O         17.9790   37.1900   46.6180 O.2   333  ASP333     -0.2867
     45  CB        19.8890   39.3030   46.4510 C.3   333  ASP333      0.1410
     46  CG        18.8790   40.2410   45.8790 C.2   333  ASP333      0.3668
     47  OD1       17.9720   40.6230   46.6450 O.co2 333  ASP333     -0.2456
     48  OD2       19.0120   40.5860   44.6810 O.co2 333  ASP333     -0.2456
     49  N          9.4970   42.1710   44.7870 N.3   370  GLU370     -0.1231
     50  CA        10.4440   43.2760   44.6800 C.3   370  GLU370      0.1699
     51  C         11.2130   43.1130   43.3910 C.2   370  GLU370      0.2592
     52  O         11.5680   44.1300   42.6930 O.2   370  GLU370     -0.2718
     53  CB        11.3700   43.2550   45.9010 C.3   370  GLU370      0.0402
     54  CG        12.3240   44.4520   45.9170 C.3   370  GLU370      0.1161
     55  CD        13.6260   44.2630   45.1140 C.2   370  GLU370      0.3649
     56  OE1       13.8960   43.1670   44.5720 O.co2 370  GLU370     -0.2457
     57  OE2       14.4230   45.2550   45.0330 O.co2 370  GLU370     -0.2457
     58  N         11.5160   41.8550   43.0590 N.am  371  GLU371     -0.1979
     59  CA        12.4120   41.6060   41.9110 C.3   371  GLU371      0.1602
     60  C         11.7270   41.9350   40.5880 C.2   371  GLU371      0.2287
     61  O         12.4130   42.1000   39.5830 O.2   371  GLU371     -0.2864
     62  CB        12.9060   40.1590   41.8850 C.3   371  GLU371      0.0415
     63  CG        13.8630   39.8150   43.0900 C.3   371  GLU371      0.1163
     64  CD        15.2480   40.4810   42.9970 C.2   371  GLU371      0.3649
     65  OE1       15.4950   41.2610   42.0600 O.co2 371  GLU371     -0.2457
     66  OE2       16.0830   40.2000   43.9030 O.co2 371  GLU371     -0.2457
     67  N          9.9960   44.7460   40.1520 N.3   373  GLY373     -0.1210
     68  CA         9.8120   46.1990   40.0790 C.3   373  GLY373      0.1956
     69  C          9.2770   46.8410   41.3570 C.2   373  GLY373      0.2611
     70  O          8.5560   47.8570   41.2780 O.2   373  GLY373     -0.2717
     71  N          9.6900   46.3100   42.4950 N.am  374  LEU374     -0.1979
     72  CA         9.2600   46.9400   43.7870 C.3   374  LEU374      0.1596
     73  C          7.7270   46.8530   43.9490 C.2   374  LEU374      0.2287
     74  O          7.1100   47.7220   44.5140 O.2   374  LEU374     -0.2864
     75  CB         9.7630   48.4110   43.9270 C.3   374  LEU374      0.0297
     76  CG        11.1700   48.6540   43.3340 C.3   374  LEU374      0.0022
     77  CD1       11.5750   50.1260   43.5710 C.3   374  LEU374      0.0001
     78  CD2       12.1660   47.7580   44.0680 C.3   374  LEU374      0.0001
     79  N         17.1420   44.6340   52.7650 N.3   399  ASP399     -0.1225
     80  CA        17.4780   43.6640   51.7230 C.3   399  ASP399      0.1805
     81  C         18.8400   43.0560   52.1260 C.2   399  ASP399      0.2598
     82  O         19.1940   43.0890   53.3040 O.2   399  ASP399     -0.2718
     83  CB        17.4710   44.3230   50.3430 C.3   399  ASP399      0.1424
     84  CG        17.3780   43.2940   49.1870 C.2   399  ASP399      0.3668
     85  OD1       17.3340   42.1170   49.4830 O.co2 399  ASP399     -0.2456
     86  OD2       17.3890   43.6550   47.9950 O.co2 399  ASP399     -0.2456
     87  N         19.5370   42.4500   51.1770 N.am  400  SER400     -0.1952
     88  CA        20.8050   41.7420   51.4300 C.3   400  SER400      0.1924
     89  C         21.6560   42.3950   52.5400 C.2   400  SER400      0.2314
     90  O         21.8910   43.6210   52.5480 O.2   400  SER400     -0.2863
     91  CB        21.5990   41.6650   50.1530 C.3   400  SER400      0.2116
     92  OG        20.7600   41.2650   49.0680 O.3   400  SER400     -0.2180
     93  N         27.0220   42.1180   50.7660 N.3   403  GLU403     -0.1245
     94  CA        27.2940   41.9360   49.3590 C.3   403  GLU403      0.1567
     95  C         28.7900   41.8620   49.3580 C.2   403  GLU403      0.2260
     96  O         29.4360   41.8520   48.3170 O.2   403  GLU403     -0.2867
     97  CB        26.7630   43.1070   48.5440 C.3   403  GLU403      0.0388
     98  CG        27.4410   44.4240   48.8760 C.3   403  GLU403      0.1160
     99  CD        26.5930   45.6800   48.5410 C.2   403  GLU403      0.3649
    100  OE1       25.3460   45.6230   48.4670 O.co2 403  GLU403     -0.2457
    101  OE2       27.2010   46.7420   48.3850 O.co2 403  GLU403     -0.2457
    102  N         28.1810   49.8310   54.6700 N.3   409  ARG409     -0.1245
    103  CA        27.7600   50.7340   53.5680 C.3   409  ARG409      0.1563
    104  C         26.4080   51.2530   54.0230 C.2   409  ARG409      0.2260
    105  O         25.4820   50.4670   54.2220 O.2   409  ARG409     -0.2867
    106  CB        27.6120   49.9540   52.2330 C.3   409  ARG409      0.0307
    107  CG        27.2610   50.8320   51.0030 C.3   409  ARG409      0.0489
    108  CD        27.1600   49.9790   49.7250 C.3   409  ARG409      0.2205
    109  NE        26.7680   50.7670   48.5280 N.pl3 409  ARG409     -0.0865
    110  CZ        26.5690   50.2710   47.2930 C.cat 409  ARG409      0.5346
    111  NH1       26.7210   48.9580   47.0350 N.pl3 409  ARG409      0.1354
    112  NH2       26.2340   51.0900   46.2850 N.pl3 409  ARG409      0.1354
    113  N         15.9030   51.1990   43.1530 N.3   464  GLY464     -0.1210
    114  CA        16.3200   49.8110   42.9490 C.3   464  GLY464      0.1956
    115  C         16.0680   48.9940   44.2110 C.2   464  GLY464      0.2611
    116  O         16.5610   47.8740   44.3430 O.2   464  GLY464     -0.2717
    117  N         15.3160   49.5330   45.1750 N.am  465  ASN465     -0.1974
    118  CA        14.9270   48.7240   46.3670 C.3   465  ASN465      0.1688
    119  C         13.6610   49.2820   47.0020 C.2   465  ASN465      0.2292
    120  O         13.1950   50.3530   46.5840 O.2   465  ASN465     -0.2864
    121  CB        16.0440   48.5410   47.3790 C.3   465  ASN465      0.1181
    122  CG        16.1150   47.0990   47.8320 C.2   465  ASN465      0.2629
    123  OD1       15.1850   46.5480   48.5210 O.2   465  ASN465     -0.2716
    124  ND2       17.1510   46.3950   47.2870 N.am  465  ASN465     -0.0877
    125  N         19.2450   52.7290   54.9100 N.3   480  ARG480     -0.1245
    126  CA        19.6000   51.3290   54.7400 C.3   480  ARG480      0.1563
    127  C         21.0690   51.1370   55.1160 C.2   480  ARG480      0.2260
    128  O         21.8550   52.0960   55.0540 O.2   480  ARG480     -0.2867
    129  CB        19.3900   50.9120   53.2810 C.3   480  ARG480      0.0307
    130  CG        20.2890   51.6650   52.2940 C.3   480  ARG480      0.0489
    131  CD        19.8450   51.4770   50.8300 C.3   480  ARG480      0.2205
    132  NE        19.7610   50.0660   50.4700 N.pl3 480  ARG480     -0.0865
    133  CZ        19.8600   49.5960   49.2280 C.cat 480  ARG480      0.5346
    134  NH1       19.7200   48.2860   49.0250 N.pl3 480  ARG480      0.1354
    135  NH2       20.0340   50.4230   48.1940 N.pl3 480  ARG480      0.1354
    136  N         31.6880   45.0960   49.7860 N.3   485  LYS485     -0.1245
    137  CA        33.0520   44.8440   49.2800 C.3   485  LYS485      0.1561
    138  C         33.8930   46.1210   49.2430 C.2   485  LYS485      0.2260
    139  O         33.3600   47.2180   49.4130 O.2   485  LYS485     -0.2867
    140  CB        32.9770   44.1870   47.8620 C.3   485  LYS485      0.0271
    141  CG        32.0150   44.8900   46.8520 C.3   485  LYS485      0.0035
    142  CD        31.5640   43.9310   45.7320 C.3   485  LYS485      0.0206
    143  CE        30.1630   44.2610   45.1990 C.3   485  LYS485      0.1093
    144  NZ        30.2310   45.0880   43.9720 N.3   485  LYS485     -0.1314
    145  N         30.3230   49.2540   42.4720 N.3   491  LYS491     -0.1231
    146  CA        29.3570   49.5500   43.5450 C.3   491  LYS491      0.1693
    147  C         27.8830   49.3960   43.0700 C.2   491  LYS491      0.2592
    148  O         26.9860   49.1000   43.8880 O.2   491  LYS491     -0.2718
    149  CB        29.6300   50.8940   44.2770 C.3   491  LYS491      0.0285
    150  CG        28.9550   52.1600   43.7120 C.3   491  LYS491      0.0035
    151  CD        29.2280   53.4040   44.6250 C.3   491  LYS491      0.0206
    152  CE        28.0210   54.3890   44.6660 C.3   491  LYS491      0.1093
    153  NZ        27.6000   54.9500   46.0220 N.3   491  LYS491     -0.1314
    154  N         27.6490   49.5730   41.7660 N.am  492  PHE492     -0.1962
    155  CA        26.2970   49.3660   41.1770 C.3   492  PHE492      0.1771
    156  C         26.2000   48.0520   40.3630 C.2   492  PHE492      0.2620
    157  O         25.1290   47.6860   39.8660 O.2   492  PHE492     -0.2715
    158  CB        25.8830   50.5670   40.2890 C.3   492  PHE492      0.0574
    159  CG        25.7730   51.8760   41.0390 C.ar  492  PHE492     -0.0200
    160  CD1       26.5100   53.0040   40.6330 C.ar  492  PHE492     -0.0042
    161  CD2       24.9540   51.9740   42.1630 C.ar  492  PHE492     -0.0042
    162  CE1       26.4110   54.2120   41.3270 C.ar  492  PHE492     -0.0003
    163  CE2       24.8610   53.1770   42.8870 C.ar  492  PHE492     -0.0003
    164  CZ        25.5860   54.2820   42.4800 C.ar  492  PHE492     -0.0000
    165  N         27.3160   47.3470   40.2150 N.am  493  SER493     -0.1936
    166  CA        27.3260   46.1670   39.3210 C.3   493  SER493      0.2055
    167  C         26.7710   44.8670   39.9360 C.2   493  SER493      0.2644
    168  O         26.2140   44.0000   39.2010 O.2   493  SER493     -0.2714
    169  CB        28.7390   45.9620   38.7880 C.3   493  SER493      0.2130
    170  OG        29.1250   47.1380   38.0710 O.3   493  SER493     -0.2179
    171  N         26.9040   44.7450   41.2670 N.am  494  GLY494     -0.1939
    172  CA        26.4930   43.5320   41.9970 C.3   494  GLY494      0.2014
    173  C         27.7600   42.6800   42.2160 C.2   494  GLY494      0.2638
    174  O         28.7600   42.8370   41.4760 O.2   494  GLY494     -0.2714
    175  N         27.7120   41.8340   43.2460 N.am  495  TYR495     -0.1973
    176  CA        28.7170   40.8000   43.5080 C.3   495  TYR495      0.1639
    177  C         28.6440   39.7690   42.3650 C.2   495  TYR495      0.2290
    178  O         27.6630   39.7280   41.6250 O.2   495  TYR495     -0.2864
    179  CB        28.4740   40.1580   44.8930 C.3   495  TYR495      0.0560
    180  CG        27.0170   39.7750   45.1220 C.ar  495  TYR495     -0.0198
    181  CD1       26.5350   38.4990   44.7860 C.ar  495  TYR495     -0.0009
    182  CD2       26.1030   40.7300   45.6270 C.ar  495  TYR495     -0.0009
    183  CE1       25.1360   38.1850   44.9620 C.ar  495  TYR495      0.0417
    184  CE2       24.7700   40.3980   45.7900 C.ar  495  TYR495      0.0417
    185  CZ        24.3130   39.1580   45.4650 C.ar  495  TYR495      0.1957
    186  OH        22.9730   38.8910   45.6560 O.3   495  TYR495     -0.2866
    187  N         25.4550   37.5000   41.7100 N.3   498  TYR498     -0.1227
    188  CA        24.1530   38.2220   41.7510 C.3   498  TYR498      0.1736
    189  C         23.1010   37.6770   40.7780 C.2   498  TYR498      0.2595
    190  O         23.3320   37.6250   39.5460 O.2   498  TYR498     -0.2718
    191  CB        24.5040   39.6890   41.5120 C.3   498  TYR498      0.0548
    192  CG        23.3260   40.6510   41.4030 C.ar  498  TYR498     -0.0200
    193  CD1       22.4270   40.8000   42.4790 C.ar  498  TYR498     -0.0009
    194  CD2       23.1500   41.3960   40.2260 C.ar  498  TYR498     -0.0009
    195  CE1       21.3270   41.7060   42.3690 C.ar  498  TYR498      0.0417
    196  CE2       22.0580   42.3220   40.1140 C.ar  498  TYR498      0.0417
    197  CZ        21.1990   42.4360   41.1850 C.ar  498  TYR498      0.1957
    198  OH        20.1430   43.3150   41.0340 O.3   498  TYR498     -0.2866
    199  N         21.9500   37.2180   41.3150 N.am  499  HIS499     -0.1975
    200  CA        20.7860   36.7500   40.5040 C.3   499  HIS499      0.1656
    201  C         21.0420   35.4840   39.6760 C.2   499  HIS499      0.2291
    202  O         20.3020   35.2090   38.7160 O.2   499  HIS499     -0.2864
    203  CB        20.2730   37.8660   39.5630 C.3   499  HIS499      0.0771
    204  CG        19.5210   38.9740   40.2850 C.ar  499  HIS499      0.0820
    205  ND1       18.9140   40.0100   39.6060 N.ar  499  HIS499     -0.2267
    206  CD2       19.3270   39.2230   41.5990 C.ar  499  HIS499      0.1154
    207  CE1       18.3010   40.8130   40.4650 C.ar  499  HIS499      0.1986
    208  NE2       18.5130   40.3360   41.6860 N.ar  499  HIS499     -0.2212
    209  N         18.9630   54.0440   37.6420 N.3   643  LYS643     -0.1231
    210  CA        17.9730   53.9820   38.7420 C.3   643  LYS643      0.1693
    211  C         18.6510   53.7030   40.1040 C.2   643  LYS643      0.2592
    212  O         18.1340   54.0920   41.1710 O.2   643  LYS643     -0.2718
    213  CB        17.0160   52.8100   38.4260 C.3   643  LYS643      0.0285
    214  CG        15.8330   52.7880   39.3600 C.3   643  LYS643      0.0035
    215  CD        14.9150   51.6190   39.0050 C.3   643  LYS643      0.0206
    216  CE        13.5310   51.8650   39.7000 C.3   643  LYS643      0.1093
    217  NZ        12.6520   50.6980   39.4280 N.3   643  LYS643     -0.1314
    218  N         19.7940   53.0320   40.0760 N.am  644  TYR644     -0.1976
    219  CA        20.4340   52.6400   41.3370 C.3   644  TYR644      0.1639
    220  C         21.0760   53.8260   42.0450 C.2   644  TYR644      0.2290
    221  O         21.2480   53.7690   43.2480 O.2   644  TYR644     -0.2864
    222  CB        21.5320   51.6190   41.1150 C.3   644  TYR644      0.0560
    223  CG        21.0730   50.2410   40.6650 C.ar  644  TYR644     -0.0198
    224  CD1       19.8920   49.6730   41.1490 C.ar  644  TYR644     -0.0009
    225  CD2       21.8820   49.4830   39.8390 C.ar  644  TYR644     -0.0009
    226  CE1       19.4760   48.3510   40.7120 C.ar  644  TYR644      0.0417
    227  CE2       21.4930   48.1820   39.4120 C.ar  644  TYR644      0.0417
    228  CZ        20.3090   47.6250   39.9050 C.ar  644  TYR644      0.1957
    229  OH        19.9240   46.3630   39.5210 O.3   644  TYR644     -0.2866
@<TRIPOS>BOND
     1    15    14    2
     2    14    13    1
     3    13    16    1
     4    13    12    1
     5    16    17    1
     6     4     3    2
     7    17    18    1
     8    18    19    1
     9    25    26    2
    10    25    24    1
    11    12     3   am
    12     3     2    1
    13    24    23    1
    14    24    27    1
    15    19    20    2
    16    10     8   ar
    17    10    11   ar
    18     8     6   ar
    19    27    28    1
    20    29    28    2
    21     2     1    1
    22     2     5    1
    23    11     9   ar
    24     6     5    1
    25     6     7   ar
    26    20    21    1
    27    20    22    1
    28    28    30   am
    29     9     7   ar
    30   209   210    1
    31   170   169    1
    32   213   210    1
    33   213   214    1
    34   202   201    2
    35   210   211    1
    36   169   166    1
    37   215   214    1
    38   215   216    1
    39   168   167    2
    40   166   167    1
    41   166   165    1
    42   227   225   ar
    43   227   228   ar
    44   217   216    1
    45   229   228    1
    46   190   189    2
    47   203   204    1
    48   203   200    1
    49    61    60    2
    50   205   204   ar
    51   205   207   ar
    52   201   200    1
    53   225   223   ar
    54   157   156    2
    55   228   226   ar
    56   167   171   am
    57   218   211   am
    58   218   219    1
    59    68    67    1
    60    68    69    1
    61   211   212    2
    62   196   194   ar
    63   196   197   ar
    64   165   156   am
    65   194   192   ar
    66   204   206   ar
    67   158   159    1
    68   158   155    1
    69   156   155    1
    70   207   208   ar
    71   200   199    1
    72    60    59    1
    73   160   159   ar
    74   160   162   ar
    75   223   222    1
    76   223   224   ar
    77   226   224   ar
    78   189   199   am
    79   189   188    1
    80   198   197    1
    81   159   161   ar
    82   222   219    1
    83   155   154    1
    84   197   195   ar
    85   171   172    1
    86    70    69    2
    87   162   164   ar
    88   219   220    1
    89    69    71   am
    90   192   191    1
    91   192   193   ar
    92   174   173    2
    93   191   188    1
    94   206   208   ar
    95   178   177    2
    96   187   188    1
    97   154   147   am
    98    62    59    1
    99    62    63    1
   100    59    58    1
   101   172   173    1
   102   220   221    2
   103    65    64   ar
   104   161   163   ar
   105   173   175   am
   106   177   176    1
   107   195   193   ar
   108   145   146    1
   109   164   163   ar
   110    71    72    1
   111    52    51    2
   112   114   113    1
   113   114   115    1
   114    64    63    1
   115    64    66   ar
   116    58    51   am
   117   147   146    1
   118   147   148    2
   119   175   176    1
   120    76    77    1
   121    76    75    1
   122    76    78    1
   123    51    50    1
   124   176   179    1
   125   146   149    1
   126   150   149    1
   127   150   151    1
   128    72    75    1
   129    72    73    1
   130    73    74    2
   131   144   143    1
   132   115   116    2
   133   115   117   am
   134    56    55   ar
   135   151   152    1
   136   152   153    1
   137    50    49    1
   138    50    53    1
   139    48    46   ar
   140   181   183   ar
   141   181   180   ar
   142   179   180    1
   143   183   185   ar
   144    57    55   ar
   145    55    54    1
   146   180   182   ar
   147   117   118    1
   148   143   142    1
   149   185   186    1
   150   185   184   ar
   151   182   184   ar
   152   142   141    1
   153    46    45    1
   154    46    47   ar
   155    53    54    1
   156   112   110    1
   157   118   119    1
   158   118   121    1
   159    45    42    1
   160   120   119    2
   161    44    43    2
   162    39    40   ar
   163    39    37   ar
   164   141   140    1
   165   111   110    1
   166    40    38   ar
   167   124   122   am
   168   110   109    2
   169    37    36   ar
   170   121   122    1
   171    43    42    1
   172    42    41    1
   173   122   123    2
   174   140   137    1
   175    86    84   ar
   176    38    36   ar
   177   135   133    1
   178    36    35    1
   179    96    95    2
   180   101    99   ar
   181   100    99   ar
   182   109   108    1
   183    99    98    1
   184    97    98    1
   185    97    94    1
   186    35    32    1
   187   134   133    1
   188    92    91    1
   189    84    85   ar
   190    84    83    1
   191   133   132    2
   192   138   137    1
   193   138   139    2
   194   137   136    1
   195    95    94    1
   196    94    93    1
   197   108   107    1
   198    91    88    1
   199    83    80    1
   200    32    33    1
   201    32    31    1
   202   132   131    1
   203    33    34    2
   204   131   130    1
   205   107   106    1
   206    87    88    1
   207    87    81   am
   208    88    89    1
   209    80    81    1
   210    80    79    1
   211    81    82    2
   212   106   103    1
   213   130   129    1
   214    89    90    2
   215   129   126    1
   216   103   104    1
   217   103   102    1
   218   104   105    2
   219   126   125    1
   220   126   127    1
   221   128   127    2
