@<TRIPOS>MOLECULE
tmp/4p4fA07.pdb
 238 229 0 0 0
SMALL
GASTEIGER

@<TRIPOS>ATOM
      1  N         21.6480   50.2550   36.1480 N.3   155  PHE155     -0.1227
      2  CA        20.4920   49.3640   36.1440 C.3   155  PHE155      0.1736
      3  C         20.1670   48.8800   34.7310 C.2   155  PHE155      0.2595
      4  O         20.1500   49.6750   33.7540 O.2   155  PHE155     -0.2718
      5  CB        19.2790   50.1100   36.7510 C.3   155  PHE155      0.0547
      6  CG        17.9540   49.3610   36.6000 C.ar  155  PHE155     -0.0202
      7  CD1       17.7880   48.1010   37.1940 C.ar  155  PHE155     -0.0042
      8  CD2       16.8590   49.9540   35.9290 C.ar  155  PHE155     -0.0042
      9  CE1       16.5400   47.3890   37.1130 C.ar  155  PHE155     -0.0003
     10  CE2       15.6210   49.2480   35.8450 C.ar  155  PHE155     -0.0003
     11  CZ        15.4870   47.9580   36.4110 C.ar  155  PHE155     -0.0000
     12  N         19.8750   47.5840   34.6080 N.am  156  ARG156     -0.1980
     13  CA        19.7820   46.9730   33.2660 C.3   156  ARG156      0.1597
     14  C         18.5590   47.5410   32.4900 C.2   156  ARG156      0.2287
     15  O         18.5560   47.5860   31.2490 O.2   156  ARG156     -0.2864
     16  CB        19.6640   45.4400   33.4010 C.3   156  ARG156      0.0334
     17  CG        18.3400   44.9510   34.0940 C.3   156  ARG156      0.0492
     18  CD        18.3590   43.3820   34.3830 C.3   156  ARG156      0.2205
     19  NE        19.1330   43.0080   35.5970 N.pl3 156  ARG156     -0.0865
     20  CZ        18.7340   43.2420   36.8560 C.cat 156  ARG156      0.5346
     21  NH1       17.5640   43.8450   37.0930 N.pl3 156  ARG156      0.1354
     22  NH2       19.5050   42.8690   37.8940 N.pl3 156  ARG156      0.1354
     23  N         14.6050   42.0580   36.0270 N.3   203  ASN203     -0.1240
     24  CA        13.6270   42.7940   35.2380 C.3   203  ASN203      0.1653
     25  C         14.2940   43.9530   34.4950 C.2   203  ASN203      0.2266
     26  O         15.3040   44.4750   34.9400 O.2   203  ASN203     -0.2867
     27  CB        12.4150   43.2650   36.0790 C.3   203  ASN203      0.1155
     28  CG        12.6430   44.6140   36.7310 C.2   203  ASN203      0.2627
     29  OD1       12.6030   45.6440   36.0650 O.2   203  ASN203     -0.2716
     30  ND2       12.8220   44.6170   38.0420 N.am  203  ASN203     -0.0877
     31  N         12.2780   42.5420   51.0380 N.3   323  HIS323     -0.1241
     32  CA        11.5320   41.5940   50.2380 C.3   323  HIS323      0.1621
     33  C         11.9030   40.1360   50.5500 C.2   323  HIS323      0.2264
     34  O         12.9310   39.8590   51.2140 O.2   323  HIS323     -0.2867
     35  CB        11.6380   41.9340   48.7240 C.3   323  HIS323      0.0745
     36  CG        12.9300   41.6090   48.0510 C.ar  323  HIS323      0.0817
     37  ND1       13.0790   40.4870   47.2610 N.ar  323  HIS323     -0.2268
     38  CD2       14.0760   42.3200   47.9070 C.ar  323  HIS323      0.1154
     39  CE1       14.2570   40.5110   46.6740 C.ar  323  HIS323      0.1986
     40  NE2       14.8770   41.6170   47.0400 N.ar  323  HIS323     -0.2212
     41  N         20.3630   37.5580   48.0610 N.3   333  ASP333     -0.1239
     42  CA        19.3560   38.5190   47.6860 C.3   333  ASP333      0.1674
     43  C         17.9890   37.7830   47.5180 C.2   333  ASP333      0.2266
     44  O         17.7900   37.1020   46.5110 O.2   333  ASP333     -0.2867
     45  CB        19.8580   39.1900   46.3940 C.3   333  ASP333      0.1410
     46  CG        18.8500   40.1450   45.8020 C.2   333  ASP333      0.3668
     47  OD1       17.8810   40.5020   46.5100 O.co2 333  ASP333     -0.2456
     48  OD2       19.0100   40.5230   44.6200 O.co2 333  ASP333     -0.2456
     49  N          9.4340   42.2040   44.6990 N.3   370  GLU370     -0.1231
     50  CA        10.4020   43.2760   44.5840 C.3   370  GLU370      0.1699
     51  C         11.1510   43.0920   43.2680 C.2   370  GLU370      0.2592
     52  O         11.4690   44.0880   42.5590 O.2   370  GLU370     -0.2718
     53  CB        11.3650   43.2550   45.7370 C.3   370  GLU370      0.0402
     54  CG        12.3450   44.4810   45.7060 C.3   370  GLU370      0.1161
     55  CD        13.6460   44.2450   44.9200 C.2   370  GLU370      0.3649
     56  OE1       13.9050   43.1250   44.3780 O.co2 370  GLU370     -0.2457
     57  OE2       14.4330   45.2240   44.8690 O.co2 370  GLU370     -0.2457
     58  N         11.4490   41.8400   42.9320 N.am  371  GLU371     -0.1979
     59  CA        12.3750   41.5860   41.7810 C.3   371  GLU371      0.1602
     60  C         11.7300   41.9400   40.4520 C.2   371  GLU371      0.2287
     61  O         12.4190   42.1080   39.4560 O.2   371  GLU371     -0.2864
     62  CB        12.8600   40.1200   41.7530 C.3   371  GLU371      0.0415
     63  CG        13.8100   39.7590   42.9320 C.3   371  GLU371      0.1163
     64  CD        15.1940   40.4390   42.8620 C.2   371  GLU371      0.3649
     65  OE1       15.4400   41.2480   41.9500 O.co2 371  GLU371     -0.2457
     66  OE2       16.0270   40.1610   43.7430 O.co2 371  GLU371     -0.2457
     67  N          9.9940   44.7060   40.0420 N.3   373  GLY373     -0.1210
     68  CA         9.8080   46.1540   39.9530 C.3   373  GLY373      0.1956
     69  C          9.2450   46.8160   41.2250 C.2   373  GLY373      0.2611
     70  O          8.5260   47.8180   41.1300 O.2   373  GLY373     -0.2717
     71  N          9.5990   46.2860   42.3860 N.am  374  LEU374     -0.1979
     72  CA         9.2250   46.8760   43.7050 C.3   374  LEU374      0.1596
     73  C          7.6990   46.8420   43.8150 C.2   374  LEU374      0.2287
     74  O          7.1210   47.7380   44.4110 O.2   374  LEU374     -0.2864
     75  CB         9.7320   48.3420   43.8470 C.3   374  LEU374      0.0297
     76  CG        11.1190   48.6360   43.1850 C.3   374  LEU374      0.0022
     77  CD1       11.5160   50.1500   43.2840 C.3   374  LEU374      0.0001
     78  CD2       12.1900   47.7900   43.9140 C.3   374  LEU374      0.0001
     79  N         17.0750   44.5580   52.5570 N.3   399  ASP399     -0.1225
     80  CA        17.4010   43.5720   51.5570 C.3   399  ASP399      0.1805
     81  C         18.7760   42.9690   51.9900 C.2   399  ASP399      0.2598
     82  O         19.1430   43.0690   53.1620 O.2   399  ASP399     -0.2718
     83  CB        17.4220   44.2150   50.1530 C.3   399  ASP399      0.1424
     84  CG        17.2550   43.1870   49.0060 C.2   399  ASP399      0.3668
     85  OD1       17.1990   42.0010   49.3100 O.co2 399  ASP399     -0.2456
     86  OD2       17.2070   43.5380   47.7850 O.co2 399  ASP399     -0.2456
     87  N         19.4760   42.3740   51.0250 N.am  400  SER400     -0.1952
     88  CA        20.7650   41.6870   51.2230 C.3   400  SER400      0.1924
     89  C         21.5930   42.3700   52.3240 C.2   400  SER400      0.2314
     90  O         21.8440   43.5860   52.3100 O.2   400  SER400     -0.2863
     91  CB        21.5580   41.5980   49.9340 C.3   400  SER400      0.2116
     92  OG        20.7350   41.2270   48.8410 O.3   400  SER400     -0.2180
     93  N         26.2900   42.1050   50.6140 N.3   403  GLU403     -0.1245
     94  CA        26.8260   42.3230   49.2710 C.3   403  GLU403      0.1567
     95  C         28.2840   41.8910   49.2100 C.2   403  GLU403      0.2260
     96  O         28.7690   41.5480   48.1440 O.2   403  GLU403     -0.2867
     97  CB        26.7600   43.8260   48.9110 C.3   403  GLU403      0.0388
     98  CG        25.3510   44.3480   48.5850 C.3   403  GLU403      0.1160
     99  CD        25.3150   45.8680   48.4130 C.2   403  GLU403      0.3649
    100  OE1       26.4080   46.5040   48.4710 O.co2 403  GLU403     -0.2457
    101  OE2       24.1870   46.4280   48.2260 O.co2 403  GLU403     -0.2457
    102  N         28.0230   49.7810   54.3460 N.3   409  ARG409     -0.1245
    103  CA        27.6400   50.6430   53.2450 C.3   409  ARG409      0.1563
    104  C         26.2750   51.1830   53.6360 C.2   409  ARG409      0.2260
    105  O         25.2920   50.4320   53.7500 O.2   409  ARG409     -0.2867
    106  CB        27.5670   49.8320   51.9290 C.3   409  ARG409      0.0307
    107  CG        27.2780   50.6770   50.6770 C.3   409  ARG409      0.0489
    108  CD        27.1030   49.8190   49.3940 C.3   409  ARG409      0.2205
    109  NE        26.7250   50.6710   48.2440 N.pl3 409  ARG409     -0.0865
    110  CZ        26.5140   50.2380   46.9900 C.cat 409  ARG409      0.5346
    111  NH1       26.6260   48.9320   46.6710 N.pl3 409  ARG409      0.1354
    112  NH2       26.1850   51.1160   46.0350 N.pl3 409  ARG409      0.1354
    113  N         15.9040   51.1370   42.9480 N.3   464  GLY464     -0.1210
    114  CA        16.3880   49.7650   42.8070 C.3   464  GLY464      0.1956
    115  C         16.1120   48.9460   44.0620 C.2   464  GLY464      0.2611
    116  O         16.6550   47.8440   44.2290 O.2   464  GLY464     -0.2717
    117  N         15.3130   49.4760   44.9760 N.am  465  ASN465     -0.1974
    118  CA        14.9080   48.6750   46.1560 C.3   465  ASN465      0.1688
    119  C         13.6500   49.2220   46.8290 C.2   465  ASN465      0.2292
    120  O         13.1970   50.2980   46.4470 O.2   465  ASN465     -0.2864
    121  CB        16.0630   48.4530   47.1440 C.3   465  ASN465      0.1181
    122  CG        16.0900   47.0130   47.6580 C.2   465  ASN465      0.2629
    123  OD1       15.2060   46.5860   48.4530 O.2   465  ASN465     -0.2716
    124  ND2       17.0570   46.2400   47.1690 N.am  465  ASN465     -0.0877
    125  N         19.1930   52.6910   54.7350 N.3   480  ARG480     -0.1245
    126  CA        19.4940   51.2910   54.5190 C.3   480  ARG480      0.1563
    127  C         20.9670   51.1200   54.8860 C.2   480  ARG480      0.2260
    128  O         21.7380   52.0860   54.8150 O.2   480  ARG480     -0.2867
    129  CB        19.2800   50.8720   53.0540 C.3   480  ARG480      0.0307
    130  CG        20.2500   51.5040   52.0240 C.3   480  ARG480      0.0489
    131  CD        19.7820   51.2510   50.5590 C.3   480  ARG480      0.2205
    132  NE        19.6970   49.8320   50.2150 N.pl3 480  ARG480     -0.0865
    133  CZ        19.7030   49.3670   48.9580 C.cat 480  ARG480      0.5346
    134  NH1       19.5810   48.0610   48.7310 N.pl3 480  ARG480      0.1354
    135  NH2       19.8210   50.2050   47.9250 N.pl3 480  ARG480      0.1354
    136  N         29.3810   45.3750   52.3980 N.3   484  THR484     -0.1203
    137  CA        29.6470   45.3930   50.9770 C.3   484  THR484      0.1994
    138  C         31.1130   45.0370   50.6790 C.2   484  THR484      0.2617
    139  O         31.9180   44.9030   51.5840 O.2   484  THR484     -0.2717
    140  CB        29.2700   46.7590   50.3300 C.3   484  THR484      0.1784
    141  OG1       29.1070   46.5790   48.9190 O.3   484  THR484     -0.2211
    142  CG2       30.3210   47.8060   50.5780 C.3   484  THR484      0.0376
    143  N         31.4160   44.9180   49.3900 N.am  485  LYS485     -0.1979
    144  CA        32.7460   44.5640   48.9170 C.3   485  LYS485      0.1596
    145  C         33.6710   45.7590   48.7860 C.2   485  LYS485      0.2287
    146  O         34.8100   45.7520   49.2510 O.2   485  LYS485     -0.2864
    147  CB        32.6400   43.8280   47.5680 C.3   485  LYS485      0.0298
    148  CG        31.9640   44.6400   46.4270 C.3   485  LYS485      0.0038
    149  CD        32.4550   44.2330   44.9930 C.3   485  LYS485      0.0206
    150  CE        31.9960   42.8110   44.6110 C.3   485  LYS485      0.1093
    151  NZ        32.5980   41.7330   45.4610 N.3   485  LYS485     -0.1314
    152  N         33.0030   49.0260   42.7310 N.3   490  ASN490     -0.1225
    153  CA        31.7650   48.4240   42.2660 C.3   490  ASN490      0.1785
    154  C         30.5870   48.9130   43.1050 C.2   490  ASN490      0.2597
    155  O         30.3560   48.4570   44.2440 O.2   490  ASN490     -0.2718
    156  CB        31.8750   46.8890   42.2680 C.3   490  ASN490      0.1169
    157  CG        30.5410   46.2130   41.9530 C.2   490  ASN490      0.2627
    158  OD1       29.5600   46.8800   41.5480 O.2   490  ASN490     -0.2716
    159  ND2       30.5020   44.8760   42.1160 N.am  490  ASN490     -0.0877
    160  N         29.8680   49.8770   42.5680 N.am  491  LYS491     -0.1966
    161  CA        28.7450   50.4140   43.3130 C.3   491  LYS491      0.1728
    162  C         27.4390   49.7470   42.8640 C.2   491  LYS491      0.2616
    163  O         26.5230   49.5230   43.6790 O.2   491  LYS491     -0.2715
    164  CB        28.6150   51.9120   43.0790 C.3   491  LYS491      0.0311
    165  CG        29.6430   52.7430   43.7810 C.3   491  LYS491      0.0038
    166  CD        29.4170   54.2290   43.4850 C.3   491  LYS491      0.0206
    167  CE        30.3090   54.7060   42.3580 C.3   491  LYS491      0.1093
    168  NZ        31.7610   54.5080   42.7280 N.3   491  LYS491     -0.1314
    169  N         27.3550   49.4640   41.5680 N.am  492  PHE492     -0.1974
    170  CA        26.0460   49.2090   40.9520 C.3   492  PHE492      0.1639
    171  C         25.9650   47.8870   40.1820 C.2   492  PHE492      0.2290
    172  O         24.9180   47.5560   39.6530 O.2   492  PHE492     -0.2864
    173  CB        25.6760   50.3720   40.0140 C.3   492  PHE492      0.0560
    174  CG        25.5950   51.7090   40.7170 C.ar  492  PHE492     -0.0200
    175  CD1       24.8070   51.8470   41.8690 C.ar  492  PHE492     -0.0042
    176  CD2       26.3440   52.8050   40.2580 C.ar  492  PHE492     -0.0042
    177  CE1       24.7280   53.0850   42.5360 C.ar  492  PHE492     -0.0003
    178  CE2       26.2830   54.0670   40.9200 C.ar  492  PHE492     -0.0003
    179  CZ        25.4810   54.1870   42.0630 C.ar  492  PHE492     -0.0000
    180  N         26.6360   44.5350   41.1740 N.3   494  GLY494     -0.1210
    181  CA        26.3070   43.2800   41.8670 C.3   494  GLY494      0.1956
    182  C         27.5850   42.4590   42.0940 C.2   494  GLY494      0.2611
    183  O         28.5960   42.6780   41.4170 O.2   494  GLY494     -0.2717
    184  N         27.5350   41.5600   43.0840 N.am  495  TYR495     -0.1976
    185  CA        28.6040   40.6080   43.3620 C.3   495  TYR495      0.1639
    186  C         28.5460   39.5800   42.2190 C.2   495  TYR495      0.2290
    187  O         27.5580   39.5640   41.4810 O.2   495  TYR495     -0.2864
    188  CB        28.3580   39.9300   44.7360 C.3   495  TYR495      0.0560
    189  CG        26.9050   39.5980   44.9600 C.ar  495  TYR495     -0.0198
    190  CD1       26.3820   38.3450   44.5780 C.ar  495  TYR495     -0.0009
    191  CD2       26.0310   40.5620   45.5220 C.ar  495  TYR495     -0.0009
    192  CE1       25.0190   38.0650   44.7660 C.ar  495  TYR495      0.0417
    193  CE2       24.6650   40.2840   45.6920 C.ar  495  TYR495      0.0417
    194  CZ        24.1870   39.0390   45.3430 C.ar  495  TYR495      0.1957
    195  OH        22.8300   38.7820   45.5160 O.3   495  TYR495     -0.2866
    196  N         25.3280   37.3260   41.5950 N.3   498  TYR498     -0.1227
    197  CA        24.0500   38.0270   41.6500 C.3   498  TYR498      0.1736
    198  C         22.9640   37.5410   40.6680 C.2   498  TYR498      0.2595
    199  O         23.1520   37.5370   39.4410 O.2   498  TYR498     -0.2718
    200  CB        24.3820   39.5110   41.4890 C.3   498  TYR498      0.0548
    201  CG        23.2130   40.4660   41.3400 C.ar  498  TYR498     -0.0200
    202  CD1       22.3700   40.7480   42.4180 C.ar  498  TYR498     -0.0009
    203  CD2       23.0770   41.2070   40.1640 C.ar  498  TYR498     -0.0009
    204  CE1       21.3180   41.6980   42.2850 C.ar  498  TYR498      0.0417
    205  CE2       22.0780   42.1520   40.0190 C.ar  498  TYR498      0.0417
    206  CZ        21.1980   42.3840   41.0660 C.ar  498  TYR498      0.1957
    207  OH        20.1800   43.3030   40.9010 O.3   498  TYR498     -0.2866
    208  N         21.8200   37.1180   41.2090 N.am  499  HIS499     -0.1975
    209  CA        20.6740   36.6810   40.3920 C.3   499  HIS499      0.1656
    210  C         20.9000   35.3980   39.5670 C.2   499  HIS499      0.2291
    211  O         20.1570   35.1420   38.5940 O.2   499  HIS499     -0.2864
    212  CB        20.1790   37.8100   39.4420 C.3   499  HIS499      0.0771
    213  CG        19.4400   38.9250   40.1410 C.ar  499  HIS499      0.0820
    214  ND1       18.9110   40.0130   39.4620 N.ar  499  HIS499     -0.2267
    215  CD2       19.1650   39.1310   41.4540 C.ar  499  HIS499      0.1154
    216  CE1       18.3250   40.8340   40.3320 C.ar  499  HIS499      0.1986
    217  NE2       18.4560   40.3140   41.5460 N.ar  499  HIS499     -0.2212
    218  N         18.8830   53.9850   37.5540 N.3   643  LYS643     -0.1231
    219  CA        17.8910   53.9850   38.6340 C.3   643  LYS643      0.1693
    220  C         18.5490   53.6770   39.9920 C.2   643  LYS643      0.2592
    221  O         18.0540   54.0830   41.0540 O.2   643  LYS643     -0.2718
    222  CB        16.9210   52.8290   38.3000 C.3   643  LYS643      0.0285
    223  CG        15.7860   52.7110   39.1850 C.3   643  LYS643      0.0035
    224  CD        14.8930   51.5450   38.7310 C.3   643  LYS643      0.0206
    225  CE        13.5590   51.7760   39.3680 C.3   643  LYS643      0.1093
    226  NZ        12.6620   50.6210   39.1900 N.3   643  LYS643     -0.1314
    227  N         19.6310   52.9070   39.9720 N.am  644  TYR644     -0.1976
    228  CA        20.3170   52.5850   41.2320 C.3   644  TYR644      0.1639
    229  C         20.9430   53.7840   41.9370 C.2   644  TYR644      0.2290
    230  O         21.1270   53.7300   43.1500 O.2   644  TYR644     -0.2864
    231  CB        21.4380   51.5570   41.0470 C.3   644  TYR644      0.0560
    232  CG        20.9920   50.1670   40.6040 C.ar  644  TYR644     -0.0198
    233  CD1       19.7690   49.6180   41.0280 C.ar  644  TYR644     -0.0009
    234  CD2       21.8140   49.4070   39.7430 C.ar  644  TYR644     -0.0009
    235  CE1       19.3940   48.2930   40.6160 C.ar  644  TYR644      0.0417
    236  CE2       21.4550   48.0860   39.3380 C.ar  644  TYR644      0.0417
    237  CZ        20.2090   47.5660   39.7940 C.ar  644  TYR644      0.1957
    238  OH        19.8330   46.2970   39.3940 O.3   644  TYR644     -0.2866
@<TRIPOS>BOND
     1    15    14    2
     2    14    13    1
     3    13    16    1
     4    13    12    1
     5    16    17    1
     6     4     3    2
     7    17    18    1
     8    18    19    1
     9    25    26    2
    10    25    24    1
    11    12     3   am
    12     3     2    1
    13    24    23    1
    14    24    27    1
    15    19    20    2
    16    10     8   ar
    17    10    11   ar
    18     8     6   ar
    19    29    28    2
    20    27    28    1
    21     2     1    1
    22     2     5    1
    23    11     9   ar
    24     6     5    1
    25     6     7   ar
    26    28    30   am
    27    20    21    1
    28    20    22    1
    29     9     7   ar
    30   218   219    1
    31   222   219    1
    32   222   223    1
    33   211   210    2
    34   219   220    1
    35   224   223    1
    36   224   225    1
    37   226   225    1
    38   236   234   ar
    39   236   237   ar
    40   238   237    1
    41   199   198    2
    42   212   213    1
    43   212   209    1
    44    61    60    2
    45   214   213   ar
    46   214   216   ar
    47   210   209    1
    48   172   171    2
    49   234   232   ar
    50   237   235   ar
    51    68    67    1
    52    68    69    1
    53   227   220   am
    54   227   228    1
    55   220   221    2
    56   173   174    1
    57   173   170    1
    58   205   203   ar
    59   205   206   ar
    60   213   215   ar
    61   203   201   ar
    62   171   170    1
    63   176   174   ar
    64   176   178   ar
    65   216   217   ar
    66   209   208    1
    67    60    59    1
    68   232   233   ar
    69   232   231    1
    70   235   233   ar
    71   198   208   am
    72   198   197    1
    73   174   175   ar
    74   207   206    1
    75   178   179   ar
    76   170   169    1
    77   231   228    1
    78   206   204   ar
    79    70    69    2
    80   180   181    1
    81    69    71   am
    82   228   229    1
    83   201   200    1
    84   201   202   ar
    85   183   182    2
    86   215   217   ar
    87   187   186    2
    88   200   197    1
    89   158   157    2
    90   169   162   am
    91   196   197    1
    92    62    59    1
    93    62    63    1
    94    59    58    1
    95   181   182    1
    96   175   177   ar
    97   229   230    2
    98    65    64   ar
    99   157   159   am
   100   157   156    1
   101   179   177   ar
   102   182   184   am
   103   186   185    1
   104   153   156    1
   105   153   152    1
   106   153   154    1
   107   204   202   ar
   108   167   168    1
   109   167   166    1
   110    71    72    1
   111    52    51    2
   112   160   154   am
   113   160   161    1
   114   114   113    1
   115   114   115    1
   116    64    63    1
   117    64    66   ar
   118   162   161    1
   119   162   163    2
   120    58    51   am
   121   164   161    1
   122   164   165    1
   123   184   185    1
   124   154   155    2
   125    76    77    1
   126    76    75    1
   127    76    78    1
   128    51    50    1
   129   185   188    1
   130   166   165    1
   131    72    73    1
   132    72    75    1
   133    73    74    2
   134   115   116    2
   135   115   117   am
   136    56    55   ar
   137   190   192   ar
   138   190   189   ar
   139    50    49    1
   140    50    53    1
   141   150   149    1
   142   150   151    1
   143    48    46   ar
   144   188   189    1
   145   192   194   ar
   146    57    55   ar
   147    55    54    1
   148   189   191   ar
   149   117   118    1
   150   149   148    1
   151   194   195    1
   152   194   193   ar
   153   191   193   ar
   154    54    53    1
   155    46    45    1
   156    46    47   ar
   157   112   110    1
   158   118   119    1
   159   118   121    1
   160    45    42    1
   161   148   147    1
   162   120   119    2
   163    44    43    2
   164   111   110    1
   165    39    40   ar
   166    39    37   ar
   167   110   109    2
   168    40    38   ar
   169   121   122    1
   170   124   122   am
   171    37    36   ar
   172    43    42    1
   173   147   144    1
   174   122   123    2
   175    42    41    1
   176    86    84   ar
   177    38    36   ar
   178   135   133    1
   179    36    35    1
   180    96    95    2
   181   101    99   ar
   182   109   108    1
   183    99   100   ar
   184    99    98    1
   185    98    97    1
   186    35    32    1
   187   134   133    1
   188   145   144    1
   189   145   146    2
   190    92    91    1
   191    97    94    1
   192   144   143    1
   193   141   140    1
   194   133   132    2
   195    84    85   ar
   196    84    83    1
   197    95    94    1
   198    94    93    1
   199   143   138   am
   200   108   107    1
   201    91    88    1
   202    83    80    1
   203   132   131    1
   204    32    33    1
   205    32    31    1
   206   140   142    1
   207   140   137    1
   208    33    34    2
   209   131   130    1
   210   107   106    1
   211   138   137    1
   212   138   139    2
   213   137   136    1
   214    87    88    1
   215    87    81   am
   216    88    89    1
   217    80    81    1
   218    80    79    1
   219   106   103    1
   220    81    82    2
   221   130   129    1
   222    90    89    2
   223   129   126    1
   224   103   104    1
   225   103   102    1
   226   104   105    2
   227   126   125    1
   228   126   127    1
   229   128   127    2
