@<TRIPOS>MOLECULE
tmp/4p4gA00.pdb
 120 111 0 0 0
SMALL
GASTEIGER

@<TRIPOS>ATOM
      1  N         29.0380   36.1520   55.1810 N.3     6  VAL6       -0.1245
      2  CA        27.9210   35.2290   55.0620 C.3     6  VAL6        0.1561
      3  C         27.8530   34.3390   56.3030 C.2     6  VAL6        0.2260
      4  O         28.8750   33.8400   56.7770 O.2     6  VAL6       -0.2867
      5  CB        28.0370   34.4020   53.7670 C.3     6  VAL6        0.0252
      6  CG1       29.3440   33.6140   53.7220 C.3     6  VAL6        0.0019
      7  CG2       26.8230   33.4820   53.6120 C.3     6  VAL6        0.0019
      8  N         31.7050   25.8360   52.4430 N.3    13  HIS13      -0.1226
      9  CA        31.4970   25.6820   51.0000 C.3    13  HIS13       0.1752
     10  C         31.0690   26.9630   50.2850 C.2    13  HIS13       0.2596
     11  O         31.0500   27.0010   49.0510 O.2    13  HIS13      -0.2718
     12  CB        30.3700   24.6750   50.7700 C.3    13  HIS13       0.0759
     13  CG        29.0220   25.2060   51.1610 C.ar   13  HIS13       0.0818
     14  ND1       28.5900   25.2420   52.4700 N.ar   13  HIS13      -0.2268
     15  CD2       28.0280   25.7560   50.4210 C.ar   13  HIS13       0.1154
     16  CE1       27.3850   25.7840   52.5190 C.ar   13  HIS13       0.1986
     17  NE2       27.0220   26.1050   51.2890 N.ar   13  HIS13      -0.2212
     18  N         30.6830   27.9960   51.0290 N.am   14  SER14      -0.1952
     19  CA        30.0230   29.1430   50.4000 C.3    14  SER14       0.1924
     20  C         30.9090   29.8360   49.3820 C.2    14  SER14       0.2314
     21  O         32.0650   30.1210   49.6710 O.2    14  SER14      -0.2863
     22  CB        29.5630   30.1570   51.4440 C.3    14  SER14       0.2116
     23  OG        29.0590   31.3200   50.8020 O.3    14  SER14      -0.2180
     24  N         29.8560   32.7750   48.1420 N.3    16  SER16      -0.1217
     25  CA        29.5200   34.1910   48.2690 C.3    16  SER16       0.1889
     26  C         30.7190   35.1290   48.3530 C.2    16  SER16       0.2288
     27  O         30.6850   36.1990   47.7210 O.2    16  SER16      -0.2866
     28  CB        28.5930   34.4440   49.4610 C.3    16  SER16       0.2089
     29  OG        27.2600   34.1790   49.1060 O.3    16  SER16      -0.2183
     30  N         25.1590   38.3730   54.5070 N.3    59  SER59      -0.1202
     31  CA        24.2900   37.4590   53.8020 C.3    59  SER59       0.2020
     32  C         23.9700   36.3450   54.7850 C.2    59  SER59       0.2619
     33  O         24.7790   36.0360   55.6600 O.2    59  SER59      -0.2717
     34  CB        25.0050   36.8920   52.5800 C.3    59  SER59       0.2103
     35  OG        25.5560   37.9300   51.7800 O.3    59  SER59      -0.2182
     36  N         22.7830   35.7590   54.6640 N.am   60  VAL60      -0.1965
     37  CA        22.3810   34.7040   55.5870 C.3    60  VAL60       0.1727
     38  C         21.9300   33.5110   54.7870 C.2    60  VAL60       0.2616
     39  O         21.0850   33.6270   53.8970 O.2    60  VAL60      -0.2715
     40  CB        21.2570   35.1620   56.5280 C.3    60  VAL60       0.0290
     41  CG1       20.8470   34.0160   57.4460 C.3    60  VAL60       0.0023
     42  CG2       21.7220   36.3670   57.3500 C.3    60  VAL60       0.0023
     43  N         22.5300   32.3610   55.0640 N.am   61  THR61      -0.1951
     44  CA        22.0940   31.1360   54.4150 C.3    61  THR61       0.1897
     45  C         21.4980   30.1790   55.4450 C.2    61  THR61       0.2313
     46  O         21.2730   30.5510   56.6060 O.2    61  THR61      -0.2863
     47  CB        23.2520   30.4860   53.5890 C.3    61  THR61       0.1794
     48  OG1       22.7320   29.4500   52.7410 O.3    61  THR61      -0.2208
     49  CG2       24.3150   29.9060   54.5110 C.3    61  THR61       0.0378
     50  N         17.6520   31.8440   57.9300 N.3    65  LYS65      -0.1245
     51  CA        16.8180   32.8410   57.2340 C.3    65  LYS65       0.1561
     52  C         15.5640   33.2970   57.9820 C.2    65  LYS65       0.2260
     53  O         15.1490   34.4430   57.8370 O.2    65  LYS65      -0.2867
     54  CB        16.4870   32.3950   55.8060 C.3    65  LYS65       0.0271
     55  CG        17.7600   32.2040   54.9720 C.3    65  LYS65       0.0035
     56  CD        17.4140   31.7390   53.5580 C.3    65  LYS65       0.0206
     57  CE        18.6820   31.6440   52.7270 C.3    65  LYS65       0.1093
     58  NZ        18.3880   31.2180   51.3190 N.3    65  LYS65      -0.1314
     59  N         17.4330   36.5910   53.5890 N.3    86  ASN86      -0.1240
     60  CA        18.7810   36.1000   53.3600 C.3    86  ASN86       0.1653
     61  C         19.7950   37.2380   53.4090 C.2    86  ASN86       0.2266
     62  O         20.9610   37.0690   53.0330 O.2    86  ASN86      -0.2867
     63  CB        18.8600   35.4120   51.9970 C.3    86  ASN86       0.1155
     64  CG        18.8240   36.4040   50.8610 C.2    86  ASN86       0.2627
     65  OD1       18.1780   37.4490   50.9630 O.2    86  ASN86      -0.2716
     66  ND2       19.5130   36.0870   49.7690 N.am   86  ASN86      -0.0877
     67  N         16.6570   36.2590   47.4760 N.3   101  ASP101     -0.1239
     68  CA        16.5080   34.9330   46.8530 C.3   101  ASP101      0.1674
     69  C         15.3820   34.9380   45.8140 C.2   101  ASP101      0.2266
     70  O         15.3510   34.0890   44.9180 O.2   101  ASP101     -0.2867
     71  CB        16.2010   33.8430   47.8920 C.3   101  ASP101      0.1410
     72  CG        17.4010   33.4660   48.7400 C.2   101  ASP101      0.3668
     73  OD1       18.5260   33.3900   48.2030 O.co2 101  ASP101     -0.2456
     74  OD2       17.2050   33.2390   49.9600 O.co2 101  ASP101     -0.2456
     75  N         24.6510   23.9090   45.1810 N.3   211  TYR211     -0.1241
     76  CA        25.7550   24.0470   44.2380 C.3   211  TYR211      0.1605
     77  C         27.0330   23.2990   44.6320 C.2   211  TYR211      0.2264
     78  O         27.9730   23.2360   43.8510 O.2   211  TYR211     -0.2867
     79  CB        26.0410   25.5220   43.9110 C.3   211  TYR211      0.0534
     80  CG        26.4690   26.4160   45.0670 C.ar  211  TYR211     -0.0201
     81  CD1       27.7780   26.4180   45.5290 C.ar  211  TYR211     -0.0009
     82  CD2       25.5680   27.2930   45.6520 C.ar  211  TYR211     -0.0009
     83  CE1       28.1740   27.2480   46.5710 C.ar  211  TYR211      0.0417
     84  CE2       25.9490   28.1340   46.6930 C.ar  211  TYR211      0.0417
     85  CZ        27.2490   28.1070   47.1400 C.ar  211  TYR211      0.1957
     86  OH        27.6340   28.9400   48.1660 O.3   211  TYR211     -0.2866
     87  N         21.5980   30.7090   40.7290 N.3   235  MET235     -0.1230
     88  CA        20.7860   31.3580   41.7680 C.3   235  MET235      0.1702
     89  C         21.6600   32.2340   42.6660 C.2   235  MET235      0.2592
     90  O         21.2770   33.3510   43.0120 O.2   235  MET235     -0.2718
     91  CB        20.0330   30.3340   42.6250 C.3   235  MET235      0.0401
     92  CG        18.9980   30.9750   43.5480 C.3   235  MET235      0.0596
     93  SD        18.1290   29.7850   44.5780 S.3   235  MET235     -0.1393
     94  CE        17.8380   28.4790   43.3930 C.3   235  MET235      0.0692
     95  N         22.8390   31.7320   43.0280 N.am  236  LEU236     -0.1980
     96  CA        23.7750   32.4950   43.8600 C.3   236  LEU236      0.1596
     97  C         24.1680   33.8310   43.2260 C.2   236  LEU236      0.2287
     98  O         24.1640   34.8600   43.8870 O.2   236  LEU236     -0.2864
     99  CB        25.0360   31.6650   44.1380 C.3   236  LEU236      0.0297
    100  CG        26.0700   32.3810   45.0130 C.3   236  LEU236      0.0022
    101  CD1       25.5670   32.4340   46.4580 C.3   236  LEU236      0.0001
    102  CD2       27.4190   31.6690   44.9120 C.3   236  LEU236      0.0001
    103  N         21.0060   36.3260   43.0950 N.3   239  GLN239     -0.1245
    104  CA        20.6390   36.8870   44.4030 C.3   239  GLN239      0.1566
    105  C         21.7390   37.8020   44.9360 C.2   239  GLN239      0.2260
    106  O         21.4880   38.6540   45.7900 O.2   239  GLN239     -0.2867
    107  CB        20.2950   35.7830   45.4220 C.3   239  GLN239      0.0367
    108  CG        21.4540   34.8930   45.8350 C.3   239  GLN239      0.0905
    109  CD        22.3250   35.5070   46.9100 C.2   239  GLN239      0.2608
    110  OE1       21.8290   36.0650   47.8910 O.2   239  GLN239     -0.2717
    111  NE2       23.6320   35.4210   46.7250 N.am  239  GLN239     -0.0878
    112  N         22.2630   42.0560   46.8430 N.3   243  GLN243     -0.1245
    113  CA        22.9820   42.1220   48.1060 C.3   243  GLN243      0.1566
    114  C         24.1300   43.1190   48.0140 C.2   243  GLN243      0.2260
    115  O         24.3300   43.9470   48.9130 O.2   243  GLN243     -0.2867
    116  CB        23.4950   40.7420   48.5030 C.3   243  GLN243      0.0367
    117  CG        22.4330   39.8420   49.0810 C.3   243  GLN243      0.0905
    118  CD        23.0380   38.6160   49.7140 C.2   243  GLN243      0.2608
    119  OE1       24.2000   38.2710   49.4450 O.2   243  GLN243     -0.2717
    120  NE2       22.2750   37.9590   50.5720 N.am  243  GLN243     -0.0878
@<TRIPOS>BOND
     1    87    88    1
     2    88    91    1
     3    88    89    1
     4    91    92    1
     5    89    90    2
     6    89    95   am
     7    95    96    1
     8   103   104    1
     9    97    96    1
    10    97    98    2
    11    94    93    1
    12    92    93    1
    13    78    77    2
    14    96    99    1
    15    79    76    1
    16    79    80    1
    17    99   100    1
    18    76    77    1
    19    76    75    1
    20   104   105    1
    21   104   107    1
    22   102   100    1
    23    70    69    2
    24   105   106    2
    25   100   101    1
    26    80    81   ar
    27    80    82   ar
    28   107   108    1
    29    81    83   ar
    30    82    84   ar
    31    69    68    1
    32   108   109    1
    33    83    85   ar
    34    84    85   ar
    35   111   109   am
    36   112   113    1
    37    68    67    1
    38    68    71    1
    39   109   110    2
    40    85    86    1
    41    27    26    2
    42    71    72    1
    43   114   113    1
    44   114   115    2
    45   113   116    1
    46    24    25    1
    47    73    72   ar
    48    25    26    1
    49    25    28    1
    50   116   117    1
    51    72    74   ar
    52    11    10    2
    53   117   118    1
    54    29    28    1
    55    20    21    2
    56    20    19    1
    57   119   118    2
    58   118   120   am
    59    66    64   am
    60    10     9    1
    61    10    18   am
    62    19    18    1
    63    19    22    1
    64    15    13   ar
    65    15    17   ar
    66    12     9    1
    67    12    13    1
    68    23    22    1
    69    64    65    2
    70    64    63    1
    71     9     8    1
    72    13    14   ar
    73    17    16   ar
    74    58    57    1
    75    35    34    1
    76    63    60    1
    77    14    16   ar
    78    34    31    1
    79    57    56    1
    80    48    47    1
    81    62    61    2
    82    60    61    1
    83    60    59    1
    84    56    55    1
    85    47    44    1
    86    47    49    1
    87     7     5    1
    88     6     5    1
    89     5     2    1
    90    31    30    1
    91    31    32    1
    92    39    38    2
    93    44    43    1
    94    44    45    1
    95    36    32   am
    96    36    37    1
    97    32    33    2
    98    38    43   am
    99    38    37    1
   100    55    54    1
   101     2     1    1
   102     2     3    1
   103    45    46    2
   104    37    40    1
   105    54    51    1
   106     3     4    2
   107    40    42    1
   108    40    41    1
   109    51    50    1
   110    51    52    1
   111    53    52    2
