@<TRIPOS>MOLECULE
tmp/4p4jA07.pdb
 175 168 0 0 0
SMALL
GASTEIGER

@<TRIPOS>ATOM
      1  N         21.6450   50.0920   36.2650 N.3   155  PHE155     -0.1227
      2  CA        20.4930   49.1790   36.2860 C.3   155  PHE155      0.1736
      3  C         20.1540   48.6620   34.8810 C.2   155  PHE155      0.2595
      4  O         20.1110   49.4390   33.9050 O.2   155  PHE155     -0.2718
      5  CB        19.3040   49.9150   36.8960 C.3   155  PHE155      0.0547
      6  CG        18.0200   49.1160   36.8780 C.ar  155  PHE155     -0.0202
      7  CD1       17.9140   47.9390   37.6330 C.ar  155  PHE155     -0.0042
      8  CD2       16.8960   49.5850   36.1650 C.ar  155  PHE155     -0.0042
      9  CE1       16.7070   47.1720   37.6340 C.ar  155  PHE155     -0.0003
     10  CE2       15.6740   48.8300   36.1660 C.ar  155  PHE155     -0.0003
     11  CZ        15.5830   47.6320   36.9040 C.ar  155  PHE155     -0.0000
     12  N         19.8690   47.3560   34.7820 N.am  156  ARG156     -0.1980
     13  CA        19.6690   46.7500   33.4360 C.3   156  ARG156      0.1597
     14  C         18.4490   47.3260   32.6870 C.2   156  ARG156      0.2287
     15  O         18.4480   47.3740   31.4580 O.2   156  ARG156     -0.2864
     16  CB        19.5920   45.2170   33.5560 C.3   156  ARG156      0.0334
     17  CG        18.2960   44.7590   34.2940 C.3   156  ARG156      0.0492
     18  CD        18.3270   43.2100   34.4640 C.3   156  ARG156      0.2205
     19  NE        19.0820   42.7780   35.6550 N.pl3 156  ARG156     -0.0865
     20  CZ        18.6590   42.9970   36.9130 C.cat 156  ARG156      0.5346
     21  NH1       17.4870   43.5940   37.1250 N.pl3 156  ARG156      0.1354
     22  NH2       19.3890   42.5770   37.9660 N.pl3 156  ARG156      0.1354
     23  N         14.5840   41.7580   36.1710 N.3   203  ASN203     -0.1240
     24  CA        13.6150   42.4880   35.3520 C.3   203  ASN203      0.1653
     25  C         14.2700   43.6640   34.6260 C.2   203  ASN203      0.2266
     26  O         15.3330   44.1750   35.0330 O.2   203  ASN203     -0.2867
     27  CB        12.4060   42.9510   36.1730 C.3   203  ASN203      0.1155
     28  CG        12.6460   44.3020   36.8840 C.2   203  ASN203      0.2627
     29  OD1       12.6160   45.3610   36.2400 O.2   203  ASN203     -0.2716
     30  ND2       12.8330   44.2690   38.2120 N.am  203  ASN203     -0.0877
     31  N         12.3120   42.2620   51.2310 N.3   323  HIS323     -0.1241
     32  CA        11.5450   41.2990   50.4140 C.3   323  HIS323      0.1621
     33  C         11.9210   39.8420   50.7540 C.2   323  HIS323      0.2264
     34  O         12.9400   39.5730   51.4020 O.2   323  HIS323     -0.2867
     35  CB        11.6480   41.6480   48.9110 C.3   323  HIS323      0.0745
     36  CG        12.9750   41.3230   48.2380 C.ar  323  HIS323      0.0817
     37  ND1       13.1200   40.2330   47.3960 N.ar  323  HIS323     -0.2268
     38  CD2       14.1040   42.0610   48.0860 C.ar  323  HIS323      0.1154
     39  CE1       14.3190   40.2720   46.8240 C.ar  323  HIS323      0.1986
     40  NE2       14.9400   41.3690   47.2370 N.ar  323  HIS323     -0.2212
     41  N         20.4000   37.3660   48.2150 N.3   333  ASP333     -0.1239
     42  CA        19.3560   38.3370   47.8470 C.3   333  ASP333      0.1674
     43  C         18.0180   37.5630   47.6880 C.2   333  ASP333      0.2266
     44  O         17.8130   36.8750   46.6600 O.2   333  ASP333     -0.2867
     45  CB        19.8400   39.0090   46.5510 C.3   333  ASP333      0.1410
     46  CG        18.8290   39.9380   45.9480 C.2   333  ASP333      0.3668
     47  OD1       17.8730   40.2760   46.6790 O.co2 333  ASP333     -0.2456
     48  OD2       18.9850   40.2840   44.7300 O.co2 333  ASP333     -0.2456
     49  N          9.4230   41.8590   44.8500 N.3   370  GLU370     -0.1231
     50  CA        10.3810   42.9650   44.7160 C.3   370  GLU370      0.1699
     51  C         11.1420   42.7820   43.4350 C.2   370  GLU370      0.2592
     52  O         11.4420   43.7800   42.7240 O.2   370  GLU370     -0.2718
     53  CB        11.2950   42.9630   45.9540 C.3   370  GLU370      0.0402
     54  CG        12.3060   44.1550   45.9570 C.3   370  GLU370      0.1161
     55  CD        13.5600   43.9770   45.0890 C.2   370  GLU370      0.3649
     56  OE1       13.8230   42.8630   44.5450 O.co2 370  GLU370     -0.2457
     57  OE2       14.3250   45.0080   44.9860 O.co2 370  GLU370     -0.2457
     58  N         11.4670   41.5360   43.0890 N.am  371  GLU371     -0.1979
     59  CA        12.3600   41.2980   41.9430 C.3   371  GLU371      0.1602
     60  C         11.7000   41.6360   40.6160 C.2   371  GLU371      0.2287
     61  O         12.3670   41.7760   39.6090 O.2   371  GLU371     -0.2864
     62  CB        12.8230   39.8410   41.9390 C.3   371  GLU371      0.0415
     63  CG        13.7570   39.4980   43.1530 C.3   371  GLU371      0.1163
     64  CD        15.1580   40.1310   43.0640 C.2   371  GLU371      0.3649
     65  OE1       15.4710   40.9280   42.1340 O.co2 371  GLU371     -0.2457
     66  OE2       15.9960   39.8580   43.9550 O.co2 371  GLU371     -0.2457
     67  N          9.9120   44.4240   40.2280 N.3   373  GLY373     -0.1210
     68  CA         9.7300   45.8860   40.1430 C.3   373  GLY373      0.1956
     69  C          9.2190   46.5330   41.4100 C.2   373  GLY373      0.2611
     70  O          8.4930   47.5220   41.3310 O.2   373  GLY373     -0.2717
     71  N          9.5990   45.9950   42.5650 N.am  374  LEU374     -0.1979
     72  CA         9.2050   46.6140   43.8660 C.3   374  LEU374      0.1596
     73  C          7.6790   46.5420   44.0150 C.2   374  LEU374      0.2287
     74  O          7.0690   47.4300   44.5880 O.2   374  LEU374     -0.2864
     75  CB         9.7060   48.0970   43.9860 C.3   374  LEU374      0.0297
     76  CG        11.1360   48.3270   43.4010 C.3   374  LEU374      0.0022
     77  CD1       11.5110   49.8310   43.5920 C.3   374  LEU374      0.0001
     78  CD2       12.1680   47.4220   44.0790 C.3   374  LEU374      0.0001
     79  N         16.9980   44.2720   52.7820 N.3   399  ASP399     -0.1225
     80  CA        17.3320   43.3000   51.7630 C.3   399  ASP399      0.1805
     81  C         18.7230   42.7410   52.1700 C.2   399  ASP399      0.2598
     82  O         19.0690   42.7620   53.3450 O.2   399  ASP399     -0.2718
     83  CB        17.3580   43.9510   50.3670 C.3   399  ASP399      0.1424
     84  CG        17.2490   42.9330   49.2360 C.2   399  ASP399      0.3668
     85  OD1       17.2610   41.7350   49.5270 O.co2 399  ASP399     -0.2456
     86  OD2       17.1730   43.3510   48.0530 O.co2 399  ASP399     -0.2456
     87  N         19.4520   42.2120   51.2030 N.am  400  SER400     -0.1952
     88  CA        20.7200   41.5090   51.4660 C.3   400  SER400      0.1924
     89  C         21.5520   42.1130   52.6390 C.2   400  SER400      0.2314
     90  O         21.8300   43.3270   52.6680 O.2   400  SER400     -0.2863
     91  CB        21.5760   41.4520   50.2070 C.3   400  SER400      0.2116
     92  OG        20.8110   41.0100   49.0850 O.3   400  SER400     -0.2180
     93  N         17.9380   53.8340   44.1540 N.3   463  SER463     -0.1202
     94  CA        16.6870   53.0550   44.1380 C.3   463  SER463      0.2020
     95  C         17.0360   51.6410   43.7040 C.2   463  SER463      0.2619
     96  O         18.1870   51.1680   43.8780 O.2   463  SER463     -0.2717
     97  CB        15.6460   53.6990   43.2230 C.3   463  SER463      0.2103
     98  OG        14.4020   52.9830   43.3120 O.3   463  SER463     -0.2182
     99  N         16.0460   50.9340   43.1470 N.am  464  GLY464     -0.1942
    100  CA        16.2620   49.5160   42.8830 C.3   464  GLY464      0.2014
    101  C         16.0330   48.6880   44.1480 C.2   464  GLY464      0.2638
    102  O         16.5500   47.5690   44.2640 O.2   464  GLY464     -0.2714
    103  N         15.2580   49.2120   45.1010 N.am  465  ASN465     -0.1972
    104  CA        14.8640   48.4170   46.2700 C.3   465  ASN465      0.1688
    105  C         13.6240   48.9940   46.9400 C.2   465  ASN465      0.2292
    106  O         13.1240   50.0590   46.5260 O.2   465  ASN465     -0.2864
    107  CB        16.0290   48.2310   47.2760 C.3   465  ASN465      0.1181
    108  CG        16.0630   46.7990   47.8070 C.2   465  ASN465      0.2629
    109  OD1       15.1620   46.3360   48.5780 O.2   465  ASN465     -0.2716
    110  ND2       17.0710   46.0470   47.3270 N.am  465  ASN465     -0.0877
    111  N         19.1970   52.3430   54.9240 N.3   480  ARG480     -0.1245
    112  CA        19.5650   50.9440   54.7300 C.3   480  ARG480      0.1563
    113  C         21.0050   50.7490   55.1730 C.2   480  ARG480      0.2260
    114  O         21.7850   51.6870   55.1570 O.2   480  ARG480     -0.2867
    115  CB        19.3830   50.5310   53.2630 C.3   480  ARG480      0.0307
    116  CG        20.3540   51.2580   52.3290 C.3   480  ARG480      0.0489
    117  CD        19.9920   51.1150   50.8320 C.3   480  ARG480      0.2205
    118  NE        19.8330   49.7110   50.4130 N.pl3 480  ARG480     -0.0865
    119  CZ        19.7880   49.3160   49.1340 C.cat 480  ARG480      0.5346
    120  NH1       19.5800   48.0180   48.8730 N.pl3 480  ARG480      0.1354
    121  NH2       19.9150   50.2000   48.1120 N.pl3 480  ARG480      0.1354
    122  N         24.2570   47.4490   55.2000 N.3   482  ARG482     -0.1245
    123  CA        24.6780   46.0450   55.0270 C.3   482  ARG482      0.1563
    124  C         26.1860   45.9860   55.0650 C.2   482  ARG482      0.2260
    125  O         26.8430   47.0270   55.0560 O.2   482  ARG482     -0.2867
    126  CB        24.1490   45.5270   53.6710 C.3   482  ARG482      0.0307
    127  CG        24.7520   46.3250   52.4190 C.3   482  ARG482      0.0489
    128  CD        24.4190   45.5740   51.1220 C.3   482  ARG482      0.2205
    129  NE        22.9610   45.3730   50.9730 N.pl3 482  ARG482     -0.0865
    130  CZ        22.3060   45.4100   49.8150 C.cat 482  ARG482      0.5346
    131  NH1       22.9650   45.6270   48.6540 N.pl3 482  ARG482      0.1354
    132  NH2       20.9840   45.2280   49.8120 N.pl3 482  ARG482      0.1354
    133  N         25.3640   37.1990   41.8660 N.3   490  TYR490     -0.1227
    134  CA        24.0570   37.8790   41.9330 C.3   490  TYR490      0.1736
    135  C         23.0380   37.3380   40.9100 C.2   490  TYR490      0.2595
    136  O         23.3030   37.3230   39.6840 O.2   490  TYR490     -0.2718
    137  CB        24.3560   39.3520   41.6890 C.3   490  TYR490      0.0548
    138  CG        23.1700   40.3010   41.5450 C.ar  490  TYR490     -0.0200
    139  CD1       22.3010   40.5290   42.6080 C.ar  490  TYR490     -0.0009
    140  CD2       22.9850   41.0140   40.3260 C.ar  490  TYR490     -0.0009
    141  CE1       21.2210   41.4690   42.4620 C.ar  490  TYR490      0.0417
    142  CE2       21.9560   41.9560   40.1860 C.ar  490  TYR490      0.0417
    143  CZ        21.0960   42.1640   41.2510 C.ar  490  TYR490      0.1957
    144  OH        20.0570   43.0600   41.0940 O.3   490  TYR490     -0.2866
    145  N         21.8830   36.8990   41.4280 N.am  491  HIS491     -0.1975
    146  CA        20.7260   36.4150   40.6260 C.3   491  HIS491      0.1656
    147  C         21.0070   35.1570   39.7750 C.2   491  HIS491      0.2291
    148  O         20.2520   34.8860   38.8260 O.2   491  HIS491     -0.2864
    149  CB        20.1990   37.5160   39.6650 C.3   491  HIS491      0.0771
    150  CG        19.4770   38.6350   40.3630 C.ar  491  HIS491      0.0820
    151  ND1       18.9070   39.6740   39.6600 N.ar  491  HIS491     -0.2267
    152  CD2       19.2780   38.9060   41.6740 C.ar  491  HIS491      0.1154
    153  CE1       18.3370   40.5140   40.5090 C.ar  491  HIS491      0.1986
    154  NE2       18.5040   40.0470   41.7360 N.ar  491  HIS491     -0.2212
    155  N         18.8200   53.6630   37.5900 N.3   635  LYS635     -0.1231
    156  CA        17.9220   53.5570   38.7670 C.3   635  LYS635      0.1693
    157  C         18.6580   53.2680   40.0820 C.2   635  LYS635      0.2592
    158  O         18.1720   53.6600   41.1480 O.2   635  LYS635     -0.2718
    159  CB        16.9320   52.4130   38.4720 C.3   635  LYS635      0.0285
    160  CG        15.7890   52.3930   39.4900 C.3   635  LYS635      0.0035
    161  CD        14.7710   51.3540   38.9680 C.3   635  LYS635      0.0206
    162  CE        13.4530   51.5380   39.7880 C.3   635  LYS635      0.1093
    163  NZ        12.5270   50.3960   39.4960 N.3   635  LYS635     -0.1314
    164  N         19.8110   52.5780   40.0500 N.am  636  TYR636     -0.1976
    165  CA        20.4560   52.2680   41.3190 C.3   636  TYR636      0.1639
    166  C         21.0570   53.4790   41.9820 C.2   636  TYR636      0.2290
    167  O         21.2680   53.4440   43.1690 O.2   636  TYR636     -0.2864
    168  CB        21.5940   51.2620   41.1240 C.3   636  TYR636      0.0560
    169  CG        21.1330   49.8720   40.7180 C.ar  636  TYR636     -0.0198
    170  CD1       20.0710   49.2470   41.3820 C.ar  636  TYR636     -0.0009
    171  CD2       21.8310   49.1570   39.7420 C.ar  636  TYR636     -0.0009
    172  CE1       19.6610   47.9130   41.0420 C.ar  636  TYR636      0.0417
    173  CE2       21.4650   47.8150   39.3740 C.ar  636  TYR636      0.0417
    174  CZ        20.3650   47.2130   40.0610 C.ar  636  TYR636      0.1957
    175  OH        19.9720   45.9390   39.7010 O.3   636  TYR636     -0.2866
@<TRIPOS>BOND
     1    15    14    2
     2    14    13    1
     3    13    16    1
     4    13    12    1
     5    16    17    1
     6     4     3    2
     7    17    18    1
     8    18    19    1
     9    25    26    2
    10    25    24    1
    11    12     3   am
    12     3     2    1
    13    24    23    1
    14    24    27    1
    15    19    20    2
    16     8    10   ar
    17     8     6   ar
    18    10    11   ar
    19    27    28    1
    20    29    28    2
    21     1     2    1
    22     2     5    1
    23     6     5    1
    24     6     7   ar
    25    28    30   am
    26    11     9   ar
    27    20    21    1
    28    20    22    1
    29   155   156    1
    30     7     9   ar
    31   159   156    1
    32   159   160    1
    33   156   157    1
    34   148   147    2
    35   161   160    1
    36   161   162    1
    37   173   171   ar
    38   173   174   ar
    39   163   162    1
    40    61    60    2
    41   151   150   ar
    42   151   153   ar
    43   149   150    1
    44   149   146    1
    45   136   135    2
    46   175   174    1
    47   171   169   ar
    48   147   146    1
    49   164   157   am
    50   164   165    1
    51   174   172   ar
    52   157   158    2
    53    68    67    1
    54    68    69    1
    55   142   140   ar
    56   142   143   ar
    57   140   138   ar
    58   150   152   ar
    59   153   154   ar
    60    60    59    1
    61   146   145    1
    62   169   168    1
    63   169   170   ar
    64   135   145   am
    65   135   134    1
    66   172   170   ar
    67   144   143    1
    68   168   165    1
    69   143   141   ar
    70   165   166    1
    71    70    69    2
    72    69    71   am
    73   138   137    1
    74   138   139   ar
    75   152   154   ar
    76   137   134    1
    77   133   134    1
    78    62    59    1
    79    62    63    1
    80    59    58    1
    81   166   167    2
    82    65    64   ar
    83   141   139   ar
    84    71    72    1
    85    52    51    2
    86   100    99    1
    87   100   101    1
    88    64    63    1
    89    64    66   ar
    90    58    51   am
    91    99    95   am
    92    97    98    1
    93    97    94    1
    94    76    77    1
    95    76    75    1
    96    76    78    1
    97    51    50    1
    98    95    96    2
    99    95    94    1
   100    72    75    1
   101    72    73    1
   102    73    74    2
   103    94    93    1
   104   101   102    2
   105   101   103   am
   106    56    55   ar
   107    50    49    1
   108    50    53    1
   109    48    46   ar
   110    57    55   ar
   111    55    54    1
   112   103   104    1
   113    46    45    1
   114    46    47   ar
   115    53    54    1
   116   104   105    1
   117   104   107    1
   118   106   105    2
   119    45    42    1
   120    44    43    2
   121    39    40   ar
   122    39    37   ar
   123    40    38   ar
   124   107   108    1
   125   110   108   am
   126    37    36   ar
   127    43    42    1
   128   108   109    2
   129    42    41    1
   130    86    84   ar
   131    38    36   ar
   132   121   119    1
   133    36    35    1
   134   131   130    1
   135   120   119    1
   136    35    32    1
   137    92    91    1
   138   119   118    2
   139    84    85   ar
   140    84    83    1
   141   132   130    1
   142   130   129    2
   143    91    88    1
   144    83    80    1
   145   118   117    1
   146    32    33    1
   147    32    31    1
   148    33    34    2
   149   117   116    1
   150   129   128    1
   151   128   127    1
   152    87    88    1
   153    87    81   am
   154    88    89    1
   155    80    81    1
   156    80    79    1
   157    81    82    2
   158   116   115    1
   159   127   126    1
   160    89    90    2
   161   115   112    1
   162   126   123    1
   163   112   111    1
   164   112   113    1
   165   123   124    1
   166   123   122    1
   167   125   124    2
   168   114   113    2
