@<TRIPOS>MOLECULE
tmp/4p4oA01.pdb
 147 141 0 0 0
SMALL
GASTEIGER

@<TRIPOS>ATOM
      1  N         17.4740   35.8160   78.5370 N.3    90  LYS90      -0.1245
      2  CA        16.8840   36.9940   77.9290 C.3    90  LYS90       0.1561
      3  C         17.7370   37.4720   76.7720 C.2    90  LYS90       0.2260
      4  O         18.9510   37.3020   76.7770 O.2    90  LYS90      -0.2867
      5  CB        16.7030   38.1060   78.9640 C.3    90  LYS90       0.0271
      6  CG        15.6090   37.7990   79.9650 C.3    90  LYS90       0.0035
      7  CD        14.3970   37.2070   79.2460 C.3    90  LYS90       0.0206
      8  CE        13.2920   36.8330   80.2130 C.3    90  LYS90       0.1093
      9  NZ        12.7200   38.0430   80.8630 N.3    90  LYS90      -0.1314
     10  N          6.7220   43.2260   70.0120 N.3   121  GLY121     -0.1210
     11  CA         6.9660   42.7440   71.3520 C.3   121  GLY121      0.1956
     12  C          7.6700   43.7820   72.2060 C.2   121  GLY121      0.2612
     13  O          7.6120   44.9780   71.9280 O.2   121  GLY121     -0.2717
     14  N          8.3320   43.3120   73.2540 N.am  122  SER122     -0.1952
     15  CA         8.9400   44.1830   74.2570 C.3   122  SER122      0.1924
     16  C         10.0800   44.9790   73.6440 C.2   122  SER122      0.2314
     17  O         10.5070   46.0050   74.1870 O.2   122  SER122     -0.2863
     18  CB         9.4330   43.3480   75.4430 C.3   122  SER122      0.2116
     19  OG        10.3090   42.3190   74.9920 O.3   122  SER122     -0.2180
     20  N          8.8020   48.0690   72.3880 N.3   125  ARG125     -0.1245
     21  CA         8.5500   48.8830   73.5810 C.3   125  ARG125      0.1563
     22  C          9.8550   49.3270   74.2580 C.2   125  ARG125      0.2260
     23  O          9.8400   49.8470   75.3670 O.2   125  ARG125     -0.2867
     24  CB         7.6560   48.1500   74.5850 C.3   125  ARG125      0.0307
     25  CG         6.3110   47.7370   74.0190 C.3   125  ARG125      0.0489
     26  CD         5.2780   47.5290   75.1050 C.3   125  ARG125      0.2205
     27  NE         5.7170   46.6440   76.1890 N.pl3 125  ARG125     -0.0865
     28  CZ         5.8570   45.3200   76.0880 C.cat 125  ARG125      0.5346
     29  NH1        5.6340   44.6980   74.9330 N.pl3 125  ARG125      0.1354
     30  NH2        6.2320   44.6150   77.1510 N.pl3 125  ARG125      0.1354
     31  N         12.3700   47.8810   75.7630 N.3   127  HIS127     -0.1241
     32  CA        12.9830   47.2220   76.9120 C.3   127  HIS127      0.1621
     33  C         14.4230   46.8250   76.5620 C.2   127  HIS127      0.2264
     34  O         14.6950   46.4360   75.4240 O.2   127  HIS127     -0.2867
     35  CB        12.2040   45.9700   77.2930 C.3   127  HIS127      0.0745
     36  CG        10.8390   46.2420   77.8400 C.ar  127  HIS127      0.0817
     37  ND1       10.1470   45.3130   78.5910 N.ar  127  HIS127     -0.2268
     38  CD2       10.0360   47.3270   77.7440 C.ar  127  HIS127      0.1154
     39  CE1        8.9710   45.8160   78.9280 C.ar  127  HIS127      0.1986
     40  NE2        8.8810   47.0380   78.4320 N.ar  127  HIS127     -0.2212
     41  N         15.9970   44.2410   77.5030 N.3   129  PHE129     -0.1227
     42  CA        15.9780   42.8110   77.2120 C.3   129  PHE129      0.1736
     43  C         14.5770   42.3500   76.7980 C.2   129  PHE129      0.2596
     44  O         13.5640   42.8980   77.2590 O.2   129  PHE129     -0.2718
     45  CB        16.4240   42.0060   78.4330 C.3   129  PHE129      0.0547
     46  CG        17.8480   42.2520   78.8420 C.ar  129  PHE129     -0.0202
     47  CD1       18.1750   43.3260   79.6590 C.ar  129  PHE129     -0.0042
     48  CD2       18.8600   41.3940   78.4280 C.ar  129  PHE129     -0.0042
     49  CE1       19.4930   43.5500   80.0460 C.ar  129  PHE129     -0.0003
     50  CE2       20.1820   41.6080   78.8150 C.ar  129  PHE129     -0.0003
     51  CZ        20.4980   42.6900   79.6230 C.ar  129  PHE129     -0.0000
     52  N         14.5240   41.3280   75.9470 N.am  130  SER130     -0.1938
     53  CA        13.2590   40.7250   75.5360 C.3   130  SER130      0.2055
     54  C         13.2920   39.2120   75.7360 C.2   130  SER130      0.2644
     55  O         14.3500   38.5960   75.6640 O.2   130  SER130     -0.2714
     56  CB        12.9560   41.0560   74.0710 C.3   130  SER130      0.2130
     57  OG        12.6800   42.4350   73.9130 O.3   130  SER130     -0.2179
     58  N         12.1320   38.6230   76.0030 N.am  131  GLY131     -0.1939
     59  CA        12.0270   37.1840   76.1380 C.3   131  GLY131      0.2014
     60  C         12.1070   36.4410   74.8080 C.2   131  GLY131      0.2638
     61  O         12.5120   35.2830   74.7700 O.2   131  GLY131     -0.2714
     62  N         11.7140   37.0970   73.7170 N.am  132  ASP132     -0.1971
     63  CA        11.6960   36.4420   72.4110 C.3   132  ASP132      0.1709
     64  C         11.6400   37.4240   71.2480 C.2   132  ASP132      0.2293
     65  O         11.7780   38.6370   71.4290 O.2   132  ASP132     -0.2864
     66  CB        10.5330   35.4510   72.3190 C.3   132  ASP132      0.1436
     67  CG         9.1720   36.1280   72.4320 C.2   132  ASP132      0.3671
     68  OD1        9.0550   37.2790   71.9830 O.co2 132  ASP132     -0.2456
     69  OD2        8.2250   35.5130   72.9610 O.co2 132  ASP132     -0.2456
     70  N          9.2040   38.6970   68.2790 N.3   134  ASP134     -0.1239
     71  CA         7.8460   38.7180   67.7410 C.3   134  ASP134      0.1674
     72  C          7.7960   39.4670   66.4350 C.2   134  ASP134      0.2266
     73  O          7.7530   40.6980   66.4290 O.2   134  ASP134     -0.2867
     74  CB         6.8940   39.3940   68.7110 C.3   134  ASP134      0.1410
     75  CG         6.7740   38.6480   70.0000 C.2   134  ASP134      0.3668
     76  OD1        6.2920   37.4980   69.9880 O.co2 134  ASP134     -0.2456
     77  OD2        7.1550   39.2210   71.0270 O.co2 134  ASP134     -0.2456
     78  N         -1.4720   44.8970   68.6670 N.3   216  THR216     -0.1203
     79  CA        -1.5690   43.6270   69.3860 C.3   216  THR216      0.1994
     80  C         -0.2010   43.0250   69.7140 C.2   216  THR216      0.2618
     81  O          0.0830   42.6900   70.8670 O.2   216  THR216     -0.2717
     82  CB        -2.3570   42.5930   68.5700 C.3   216  THR216      0.1784
     83  OG1       -3.7250   43.0040   68.4890 O.3   216  THR216     -0.2211
     84  CG2       -2.2640   41.1970   69.2140 C.3   216  THR216      0.0376
     85  N          0.6400   42.8900   68.6940 N.am  217  PHE217     -0.1961
     86  CA         1.9150   42.1950   68.8450 C.3   217  PHE217      0.1771
     87  C          2.9980   43.0500   69.5260 C.2   217  PHE217      0.2620
     88  O          4.0380   42.5410   69.9340 O.2   217  PHE217     -0.2715
     89  CB         2.3640   41.6130   67.4960 C.3   217  PHE217      0.0574
     90  CG         1.3430   40.6740   66.8870 C.ar  217  PHE217     -0.0200
     91  CD1        0.7470   39.6830   67.6570 C.ar  217  PHE217     -0.0042
     92  CD2        0.9560   40.8050   65.5680 C.ar  217  PHE217     -0.0042
     93  CE1       -0.2040   38.8220   67.1150 C.ar  217  PHE217     -0.0003
     94  CE2        0.0140   39.9540   65.0170 C.ar  217  PHE217     -0.0003
     95  CZ        -0.5670   38.9510   65.7930 C.ar  217  PHE217     -0.0000
     96  N          2.7370   44.3430   69.6790 N.am  218  THR218     -0.1937
     97  CA         3.6070   45.1910   70.4950 C.3   218  THR218      0.2028
     98  C          3.2080   45.0890   71.9670 C.2   218  THR218      0.2643
     99  O          4.0630   45.0550   72.8530 O.2   218  THR218     -0.2714
    100  CB         3.5480   46.6430   70.0240 C.3   218  THR218      0.1808
    101  OG1        3.9790   46.6960   68.6580 O.3   218  THR218     -0.2208
    102  CG2        4.4250   47.5680   70.9060 C.3   218  THR218      0.0379
    103  N          1.9020   45.0170   72.2240 N.am  219  GLY219     -0.1939
    104  CA         1.4100   44.8640   73.5840 C.3   219  GLY219      0.2014
    105  C          1.7360   46.1050   74.4020 C.2   219  GLY219      0.2640
    106  O          1.7190   47.2120   73.8620 O.2   219  GLY219     -0.2714
    107  N          2.0510   45.9410   75.6880 N.am  220  SER220     -0.1935
    108  CA         2.1410   44.6410   76.3490 C.3   220  SER220      0.2055
    109  C          0.7960   43.9400   76.4350 C.2   220  SER220      0.2642
    110  O         -0.2460   44.4890   76.0640 O.2   220  SER220     -0.2714
    111  CB         2.6530   44.8280   77.7730 C.3   220  SER220      0.2130
    112  OG         1.6220   45.3860   78.5790 O.3   220  SER220     -0.2179
    113  N          0.8240   42.7220   76.9570 N.am  221  LYS221     -0.1977
    114  CA        -0.3930   41.9350   77.1180 C.3   221  LYS221      0.1596
    115  C         -1.4510   42.6530   77.9580 C.2   221  LYS221      0.2287
    116  O         -2.6090   42.6960   77.5760 O.2   221  LYS221     -0.2864
    117  CB        -0.0580   40.5610   77.7130 C.3   221  LYS221      0.0298
    118  CG        -1.2510   39.6450   77.9050 C.3   221  LYS221      0.0038
    119  CD        -1.7480   39.7410   79.3430 C.3   221  LYS221      0.0206
    120  CE        -2.6370   38.5660   79.7180 C.3   221  LYS221      0.1093
    121  NZ        -3.3790   38.8360   80.9940 N.3   221  LYS221     -0.1314
    122  N         -2.9840   45.3400   76.0360 N.3   224  ASN224     -0.1225
    123  CA        -3.9500   44.8640   75.0570 C.3   224  ASN224      0.1785
    124  C         -5.2900   44.6270   75.6980 C.2   224  ASN224      0.2597
    125  O         -6.3220   44.9530   75.1130 O.2   224  ASN224     -0.2718
    126  CB        -3.4890   43.5760   74.3680 C.3   224  ASN224      0.1169
    127  CG        -2.3340   43.8140   73.4530 C.2   224  ASN224      0.2627
    128  OD1       -2.0560   44.9620   73.0990 O.2   224  ASN224     -0.2716
    129  ND2       -1.6420   42.7460   73.0600 N.am  224  ASN224     -0.0877
    130  N         -5.2740   44.0340   76.8910 N.am  225  VAL225     -0.1980
    131  CA        -6.5250   43.6860   77.5630 C.3   225  VAL225      0.1595
    132  C         -7.2810   44.9740   77.9220 C.2   225  VAL225      0.2287
    133  O         -8.4910   45.0790   77.7210 O.2   225  VAL225     -0.2864
    134  CB        -6.2770   42.8040   78.8190 C.3   225  VAL225      0.0276
    135  CG1       -7.5590   42.6320   79.6390 C.3   225  VAL225      0.0022
    136  CG2       -5.7030   41.4460   78.4100 C.3   225  VAL225      0.0022
    137  N         -8.7270   46.5570   74.7380 N.3   228  ARG228     -0.1245
    138  CA        -9.8470   45.7160   74.3150 C.3   228  ARG228      0.1563
    139  C        -11.0840   45.8550   75.2050 C.2   228  ARG228      0.2260
    140  O        -12.2140   45.7560   74.7130 O.2   228  ARG228     -0.2867
    141  CB        -9.4060   44.2590   74.2070 C.3   228  ARG228      0.0307
    142  CG        -8.4370   44.0490   73.0390 C.3   228  ARG228      0.0489
    143  CD        -7.8710   42.6320   72.9320 C.3   228  ARG228      0.2205
    144  NE        -6.9180   42.5570   71.8250 N.pl3 228  ARG228     -0.0865
    145  CZ        -6.4970   41.4320   71.2490 C.cat 228  ARG228      0.5346
    146  NH1       -6.9190   40.2490   71.6810 N.pl3 228  ARG228      0.1354
    147  NH2       -5.6510   41.4970   70.2280 N.pl3 228  ARG228      0.1354
@<TRIPOS>BOND
     1    94    92   ar
     2    94    95   ar
     3    92    90   ar
     4    95    93   ar
     5    73    72    2
     6    72    71    1
     7    90    89    1
     8    90    91   ar
     9    93    91   ar
    10    89    86    1
    11    71    70    1
    12    71    74    1
    13    83    82    1
    14    82    84    1
    15    82    79    1
    16   101   100    1
    17    78    79    1
    18    85    86    1
    19    85    80   am
    20    74    75    1
    21    86    87    1
    22    79    80    1
    23    87    96   am
    24    87    88    2
    25    96    97    1
    26    80    81    2
    27    76    75   ar
    28    75    77   ar
    29    10    11    1
    30   100    97    1
    31   100   102    1
    32   147   145    1
    33    97    98    1
    34    64    65    2
    35    64    63    1
    36   145   146    1
    37   145   144    2
    38    11    12    1
    39   144   143    1
    40    13    12    2
    41    98   103   am
    42    98    99    2
    43    68    67   ar
    44    12    14   am
    45   103   104    1
    46    66    63    1
    47    66    67    1
    48    20    21    1
    49    63    62    1
    50    67    69   ar
    51   143   142    1
    52   142   141    1
    53   129   127   am
    54   128   127    2
    55    14    15    1
    56   127   126    1
    57    21    22    1
    58    21    24    1
    59   104   105    1
    60    16    17    2
    61    16    15    1
    62    62    60   am
    63   106   105    2
    64    57    56    1
    65    25    24    1
    66    25    26    1
    67    56    53    1
    68   141   138    1
    69    15    18    1
    70    22    23    2
    71   138   137    1
    72   138   139    1
    73   126   123    1
    74   105   107   am
    75   140   139    2
    76    61    60    2
    77    60    59    1
    78    29    28    1
    79    19    18    1
    80   123   124    1
    81   123   122    1
    82    26    27    1
    83   125   124    2
    84    34    33    2
    85    53    54    1
    86    53    52    1
    87    55    54    2
    88   107   108    1
    89   124   130   am
    90    54    58   am
    91    31    32    1
    92    52    43   am
    93    58    59    1
    94   110   109    2
    95    28    27    2
    96    28    30    1
    97   108   109    1
    98   108   111    1
    99   109   113   am
   100    33    32    1
   101     3     4    2
   102     3     2    1
   103    43    42    1
   104    43    44    2
   105   130   131    1
   106    32    35    1
   107   113   114    1
   108   114   117    1
   109   114   115    1
   110    42    41    1
   111    42    45    1
   112    35    36    1
   113   131   132    1
   114   131   134    1
   115   116   115    2
   116   117   118    1
   117   133   132    2
   118    38    36   ar
   119    38    40   ar
   120   111   112    1
   121    36    37   ar
   122   118   119    1
   123     2     1    1
   124     2     5    1
   125   136   134    1
   126    48    50   ar
   127    48    46   ar
   128    40    39   ar
   129    45    46    1
   130    37    39   ar
   131    50    51   ar
   132   134   135    1
   133    46    47   ar
   134     5     6    1
   135     7     6    1
   136     7     8    1
   137   119   120    1
   138    51    49   ar
   139    47    49   ar
   140   120   121    1
   141     8     9    1
