@<TRIPOS>MOLECULE
tmp/4p4sB00.pdb
 176 167 0 0 0
SMALL
GASTEIGER

@<TRIPOS>ATOM
      1  N         24.5790    9.5120   14.9710 N.3    29  GLN29      -0.1231
      2  CA        23.1690    9.5220   15.3320 C.3    29  GLN29       0.1698
      3  C         22.6700    8.1150   15.5600 C.2    29  GLN29       0.2593
      4  O         23.0490    7.2040   14.8410 O.2    29  GLN29      -0.2718
      5  CB        22.3430   10.1170   14.1950 C.3    29  GLN29       0.0381
      6  CG        21.1110   10.9180   14.6170 C.3    29  GLN29       0.0905
      7  CD        21.5230   12.2660   15.2200 C.2    29  GLN29       0.2608
      8  OE1       22.4170   12.9400   14.6830 O.2    29  GLN29      -0.2717
      9  NE2       20.9570   12.6250   16.3810 N.am   29  GLN29      -0.0878
     10  N         21.8350    7.9270   16.5640 N.am   30  SER30      -0.1938
     11  CA        21.2680    6.5840   16.8720 C.3    30  SER30       0.2055
     12  C         22.3290    5.5230   16.7720 C.2    30  SER30       0.2644
     13  O         22.2830    4.6920   15.8710 O.2    30  SER30      -0.2714
     14  CB        20.1280    6.2050   15.9070 C.3    30  SER30       0.2130
     15  OG        18.9790    6.9970   16.1100 O.3    30  SER30      -0.2179
     16  N         23.3370    5.5990   17.6210 N.am   31  SER31      -0.1935
     17  CA        24.3280    4.5300   17.6960 C.3    31  SER31       0.2055
     18  C         24.3370    3.9460   19.0890 C.2    31  SER31       0.2644
     19  O         25.1410    3.0510   19.3800 O.2    31  SER31      -0.2714
     20  CB        25.7330    5.0230   17.2900 C.3    31  SER31       0.2130
     21  OG        25.9440    6.3390   17.7280 O.3    31  SER31      -0.2179
     22  N         23.4450    4.4360   19.9540 N.am   32  GLY32      -0.1939
     23  CA        23.2770    3.8540   21.2800 C.3    32  GLY32       0.2014
     24  C         24.1130    4.5110   22.3660 C.2    32  GLY32       0.2639
     25  O         24.2350    3.9620   23.4770 O.2    32  GLY32      -0.2714
     26  N         24.6550    5.6990   22.0960 N.am   33  LYS33      -0.1963
     27  CA        25.5680    6.2960   23.0420 C.3    33  LYS33       0.1728
     28  C         24.9250    6.7170   24.3740 C.2    33  LYS33       0.2617
     29  O         25.3810    6.2840   25.4240 O.2    33  LYS33      -0.2715
     30  CB        26.3710    7.3920   22.3670 C.3    33  LYS33       0.0311
     31  CG        25.6510    8.6840   22.1110 C.3    33  LYS33       0.0038
     32  CD        26.5500    9.6020   21.2910 C.3    33  LYS33       0.0206
     33  CE        26.4070    9.3300   19.8260 C.3    33  LYS33       0.1093
     34  NZ        25.0500    9.6960   19.3410 N.3    33  LYS33      -0.1314
     35  N         23.8330    7.4730   24.3530 N.am   34  SER34      -0.1936
     36  CA        23.0360    7.6860   25.6000 C.3    34  SER34       0.2055
     37  C         22.7370    6.3600   26.3460 C.2    34  SER34       0.2643
     38  O         22.8760    6.2760   27.5530 O.2    34  SER34      -0.2714
     39  CB        21.7240    8.3850   25.2900 C.3    34  SER34       0.2130
     40  OG        21.9460    9.6050   24.6160 O.3    34  SER34      -0.2179
     41  N         22.3410    5.3270   25.5990 N.am   35  SER35      -0.1949
     42  CA        22.1210    3.9900   26.1630 C.3    35  SER35       0.1924
     43  C         23.3160    3.4110   26.9370 C.2    35  SER35       0.2314
     44  O         23.1420    2.8110   28.0070 O.2    35  SER35      -0.2863
     45  CB        21.6550    3.0170   25.0640 C.3    35  SER35       0.2116
     46  OG        20.2470    3.0180   24.9120 O.3    35  SER35      -0.2180
     47  N         17.0390    8.3110   25.7380 N.3    47  ARG47      -0.1231
     48  CA        17.4290    7.3680   24.6820 C.3    47  ARG47       0.1698
     49  C         16.3110    7.1280   23.6760 C.2    47  ARG47       0.2632
     50  O         15.1550    6.9430   24.0820 O.2    47  ARG47      -0.2714
     51  CB        17.6350    5.9730   25.2770 C.3    47  ARG47       0.0321
     52  CG        18.8000    5.7400   26.2030 C.3    47  ARG47       0.0489
     53  CD        18.5030    5.8110   27.6930 C.3    47  ARG47       0.2205
     54  NE        17.6030    4.8360   28.3300 N.pl3  47  ARG47      -0.0865
     55  CZ        16.4530    5.1280   28.9600 C.cat  47  ARG47       0.5346
     56  NH1       15.9730    6.3790   29.0090 N.pl3  47  ARG47       0.1354
     57  NH2       15.7540    4.1410   29.5380 N.pl3  47  ARG47       0.1354
     58  N         16.6310    7.0580   22.3840 N.am   48  GLY48      -0.1718
     59  CA        15.6070    6.6650   21.4400 C.2    48  GLY48       0.1480
     60  C         15.9240    6.6330   19.9560 C.2    48  GLY48       0.2821
     61  O         17.0890    6.6380   19.5210 O.2    48  GLY48      -0.2669
     62  N         14.8220    6.6010   19.2030 N.am   49  SER49      -0.1901
     63  CA        14.8120    6.6790   17.7500 C.3    49  SER49       0.2058
     64  C         15.0360    8.0990   17.2960 C.2    49  SER49       0.2643
     65  O         14.4060    9.0220   17.8050 O.2    49  SER49      -0.2714
     66  CB        13.4520    6.2360   17.1910 C.3    49  SER49       0.2130
     67  OG        13.3270    4.8210   17.1750 O.3    49  SER49      -0.2179
     68  N         15.9170    8.2650   16.3170 N.am   50  GLY50      -0.1954
     69  CA        16.1300    9.5550   15.6840 C.3    50  GLY50       0.1869
     70  C         17.0210   10.4700   16.5010 C.2    50  GLY50       0.2309
     71  O         17.9900   10.0290   17.1340 O.2    50  GLY50      -0.2863
     72  N         17.7860   12.3820   19.5710 N.3    52  VAL52      -0.1231
     73  CA        17.3550   12.3020   20.9560 C.3    52  VAL52       0.1692
     74  C         18.2640   12.9670   21.9540 C.2    52  VAL52       0.2592
     75  O         17.8440   13.2650   23.0580 O.2    52  VAL52      -0.2718
     76  CB        17.1140   10.8450   21.3800 C.3    52  VAL52       0.0266
     77  CG1       16.2260   10.8210   22.6160 C.3    52  VAL52       0.0020
     78  CG2       16.4260   10.1020   20.2550 C.3    52  VAL52       0.0020
     79  N         19.5200   13.1610   21.6230 N.am   53  THR53      -0.1953
     80  CA        20.3510   13.9680   22.4820 C.3    53  THR53       0.1897
     81  C         20.5620   15.2110   21.6520 C.2    53  THR53       0.2313
     82  O         21.1680   15.1720   20.5970 O.2    53  THR53      -0.2863
     83  CB        21.6650   13.2620   22.8820 C.3    53  THR53       0.1794
     84  OG1       21.3830   12.0090   23.5380 O.3    53  THR53      -0.2208
     85  CG2       22.4540   14.1510   23.8130 C.3    53  THR53       0.0378
     86  N         26.6220   13.6420   24.3680 N.3   129  LEU129     -0.1245
     87  CA        26.7560   14.6270   23.3110 C.3   129  LEU129      0.1561
     88  C         25.9140   14.1340   22.1550 C.2   129  LEU129      0.2260
     89  O         25.8090   12.9200   21.9480 O.2   129  LEU129     -0.2867
     90  CB        28.1910   14.7220   22.8410 C.3   129  LEU129      0.0270
     91  CG        29.2690   15.0340   23.8560 C.3   129  LEU129      0.0019
     92  CD1       30.6210   14.5960   23.2980 C.3   129  LEU129      0.0001
     93  CD2       29.2710   16.5150   24.2180 C.3   129  LEU129      0.0001
     94  N         24.5120   12.9680   18.4900 N.3   131  GLY131     -0.1225
     95  CA        25.0990   12.1460   17.4600 C.3   131  GLY131      0.1811
     96  C         25.5560   12.9410   16.2500 C.2   131  GLY131      0.2280
     97  O         25.0770   14.0360   15.9970 O.2   131  GLY131     -0.2866
     98  N         27.7910   -2.0290   19.9810 N.3   197  THR197     -0.1203
     99  CA        26.4380   -1.9350   20.4870 C.3   197  THR197      0.1994
    100  C         25.5540   -2.6450   19.4660 C.2   197  THR197      0.2617
    101  O         26.0210   -3.0390   18.4110 O.2   197  THR197     -0.2717
    102  CB        26.0020   -0.4670   20.5640 C.3   197  THR197      0.1784
    103  OG1       26.3430    0.2050   19.3490 O.3   197  THR197     -0.2211
    104  CG2       26.6990    0.2500   21.6840 C.3   197  THR197      0.0376
    105  N         24.2940   -2.8590   19.7790 N.am  198  LYS198     -0.1979
    106  CA        23.4140   -3.5620   18.8410 C.3   198  LYS198      0.1596
    107  C         24.0360   -4.8440   18.2890 C.2   198  LYS198      0.2287
    108  O         23.9280   -5.1320   17.1080 O.2   198  LYS198     -0.2864
    109  CB        23.0670   -2.6510   17.6790 C.3   198  LYS198      0.0298
    110  CG        22.9020   -1.2000   18.0880 C.3   198  LYS198      0.0038
    111  CD        22.0610   -0.4220   17.0730 C.3   198  LYS198      0.0206
    112  CE        22.3560    1.0670   17.1040 C.3   198  LYS198      0.1093
    113  NZ        21.0840    1.8080   16.9830 N.3   198  LYS198     -0.1314
    114  N         22.9170   -7.5650   18.8720 N.3   200  ASP200     -0.1225
    115  CA        21.7590   -8.4000   18.5350 C.3   200  ASP200      0.1805
    116  C         21.1800   -8.1400   17.1530 C.2   200  ASP200      0.2597
    117  O         20.1860   -8.7500   16.7840 O.2   200  ASP200     -0.2718
    118  CB        20.6630   -8.2230   19.5710 C.3   200  ASP200      0.1424
    119  CG        20.2440   -6.7830   19.7340 C.2   200  ASP200      0.3668
    120  OD1       21.1440   -5.8870   19.7140 O.co2 200  ASP200     -0.2456
    121  OD2       19.0130   -6.5580   19.8860 O.co2 200  ASP200     -0.2456
    122  N         21.7870   -7.2360   16.3920 N.am  201  LEU201     -0.1979
    123  CA        21.2550   -6.8450   15.0950 C.3   201  LEU201      0.1596
    124  C         22.2550   -7.0060   13.9760 C.2   201  LEU201      0.2287
    125  O         22.3410   -6.1680   13.0820 O.2   201  LEU201     -0.2864
    126  CB        20.8130   -5.3970   15.1730 C.3   201  LEU201      0.0297
    127  CG        19.4950   -5.3100   15.8830 C.3   201  LEU201      0.0022
    128  CD1       19.1540   -3.8730   16.2230 C.3   201  LEU201      0.0001
    129  CD2       18.4530   -5.9620   14.9960 C.3   201  LEU201      0.0001
    130  N         25.0910   -4.8430   24.8900 N.3   229  LYS229     -0.1231
    131  CA        23.8260   -4.7190   24.2630 C.3   229  LYS229      0.1693
    132  C         22.9240   -4.0040   25.2060 C.2   229  LYS229      0.2592
    133  O         22.8860   -4.3130   26.3670 O.2   229  LYS229     -0.2718
    134  CB        23.3330   -6.0860   23.7660 C.3   229  LYS229      0.0285
    135  CG        22.1620   -6.7260   24.4240 C.3   229  LYS229      0.0035
    136  CD        21.1030   -6.9640   23.3790 C.3   229  LYS229      0.0206
    137  CE        19.9630   -7.6580   24.0820 C.3   229  LYS229      0.1093
    138  NZ        19.1200   -8.4610   23.1570 N.3   229  LYS229     -0.1314
    139  N         22.2450   -2.9920   24.6870 N.am  230  CYS230     -0.1956
    140  CA        21.3600   -2.2100   25.4900 C.3   230  CYS230      0.1843
    141  C         19.9270   -2.4790   25.0900 C.2   230  CYS230      0.2625
    142  O         19.6290   -3.1860   24.1400 O.2   230  CYS230     -0.2714
    143  CB        21.6920   -0.7280   25.3300 C.3   230  CYS230      0.0997
    144  SG        23.4630   -0.3690   25.4140 S.3   230  CYS230     -0.0797
    145  N         19.0420   -1.8680   25.8350 N.am  231  ARG231     -0.1963
    146  CA        17.6600   -1.8830   25.4680 C.3   231  ARG231      0.1729
    147  C         17.5110   -1.5440   23.9940 C.2   231  ARG231      0.2617
    148  O         17.8450   -0.4370   23.5540 O.2   231  ARG231     -0.2715
    149  CB        16.8400   -0.9150   26.3380 C.3   231  ARG231      0.0348
    150  CG        16.1900   -1.6230   27.5270 C.3   231  ARG231      0.0492
    151  CD        15.7590   -0.7220   28.6550 C.3   231  ARG231      0.2205
    152  NE        16.9150   -0.1090   29.3100 N.pl3 231  ARG231     -0.0865
    153  CZ        16.8900    0.4300   30.5160 C.cat 231  ARG231      0.5346
    154  NH1       15.7680    0.4420   31.2290 N.pl3 231  ARG231      0.1354
    155  NH2       17.9950    0.9610   31.0010 N.pl3 231  ARG231      0.1354
    156  N         16.9970   -2.5240   23.2530 N.am  232  GLY232     -0.1940
    157  CA        16.3930   -2.2620   21.9550 C.3   232  GLY232      0.2014
    158  C         15.1920   -1.3520   22.1450 C.2   232  GLY232      0.2638
    159  O         14.6410   -1.2310   23.2600 O.2   232  GLY232     -0.2714
    160  N         14.7710   -0.7070   21.0630 N.am  233  GLN233     -0.1977
    161  CA        13.7170    0.2820   21.1810 C.3   233  GLN233      0.1601
    162  C         12.4320   -0.3060   21.7600 C.2   233  GLN233      0.2287
    163  O         11.7800    0.3290   22.5510 O.2   233  GLN233     -0.2864
    164  CB        13.4300    0.9370   19.8390 C.3   233  GLN233      0.0394
    165  CG        12.3710    2.0300   19.9290 C.3   233  GLN233      0.0908
    166  CD        12.7030    3.1340   20.9130 C.2   233  GLN233      0.2608
    167  OE1       13.8530    3.4450   21.1360 O.2   233  GLN233     -0.2717
    168  NE2       11.6860    3.7500   21.4810 N.am  233  GLN233     -0.0878
    169  N         12.6180   -0.2520   25.5310 N.3   236  ILE236     -0.1245
    170  CA        12.4290    1.0970   26.0600 C.3   236  ILE236      0.1561
    171  C         10.9400    1.4080   26.1850 C.2   236  ILE236      0.2260
    172  O         10.4910    1.8660   27.2310 O.2   236  ILE236     -0.2867
    173  CB        13.1000    2.1380   25.1480 C.3   236  ILE236      0.0252
    174  CG1       14.5990    1.9580   25.2030 C.3   236  ILE236      0.0019
    175  CG2       12.7310    3.5440   25.5520 C.3   236  ILE236      0.0019
    176  CD1       15.3700    2.9320   24.3520 C.3   236  ILE236      0.0001
@<TRIPOS>BOND
     1   125   124    2
     2   124   123    1
     3     5     6    1
     4     5     2    1
     5     6     7    1
     6     8     7    2
     7     4     3    2
     8     1     2    1
     9   129   127    1
    10   123   126    1
    11   123   122    1
    12   126   127    1
    13     7     9   am
    14     2     3    1
    15     3    10   am
    16    69    68    1
    17    69    70    1
    18    13    12    2
    19   127   128    1
    20    14    15    1
    21    14    11    1
    22    97    96    2
    23    96    95    1
    24    68    64   am
    25   122   116   am
    26    70    71    2
    27    10    11    1
    28    12    11    1
    29    12    16   am
    30   117   116    2
    31   113   112    1
    32   111   112    1
    33   111   110    1
    34   108   107    2
    35   116   115    1
    36    67    66    1
    37    66    63    1
    38    20    17    1
    39    20    21    1
    40    64    63    1
    41    64    65    2
    42    95    94    1
    43    16    17    1
    44   109   110    1
    45   109   106    1
    46    17    18    1
    47    63    62    1
    48   107   106    1
    49   101   100    2
    50   115   114    1
    51   115   118    1
    52   106   105    1
    53    18    19    2
    54    18    22   am
    55    62    60   am
    56    34    33    1
    57   103   102    1
    58   100   105   am
    59   100    99    1
    60    61    60    2
    61   118   119    1
    62    72    73    1
    63   120   119   ar
    64   119   121   ar
    65    33    32    1
    66   164   165    1
    67   164   161    1
    68   165   166    1
    69    22    23    1
    70    60    59    1
    71    98    99    1
    72    78    76    1
    73    99   102    1
    74   102   104    1
    75    82    81    2
    76   166   167    2
    77   166   168   am
    78    73    76    1
    79    73    74    1
    80   160   161    1
    81   160   158   am
    82   161   162    1
    83    23    24    1
    84    32    31    1
    85    76    77    1
    86    59    58    2
    87    79    74   am
    88    79    80    1
    89    81    80    1
    90   162   163    2
    91    89    88    2
    92    74    75    2
    93   157   158    1
    94   157   156    1
    95    26    24   am
    96    26    27    1
    97    31    30    1
    98   158   159    2
    99    88    87    1
   100    24    25    2
   101    30    27    1
   102    58    49    1
   103    80    83    1
   104    90    87    1
   105    90    91    1
   106    83    84    1
   107    83    85    1
   108    27    28    1
   109   138   137    1
   110   156   147   am
   111    92    91    1
   112    87    86    1
   113   136   137    1
   114   136   135    1
   115   148   147    2
   116    49    50    2
   117    49    48    1
   118   134   131    1
   119   134   135    1
   120    91    93    1
   121   147   146    1
   122   142   141    2
   123   131   130    1
   124   131   132    1
   125   176   174    1
   126    35    28   am
   127    35    36    1
   128    28    29    2
   129    40    39    1
   130    48    51    1
   131    48    47    1
   132   139   132   am
   133   139   140    1
   134    46    45    1
   135    45    42    1
   136   141   140    1
   137   141   145   am
   138   173   174    1
   139   173   175    1
   140   173   170    1
   141   132   133    2
   142    51    52    1
   143    39    36    1
   144   143   144    1
   145   143   140    1
   146   146   145    1
   147   146   149    1
   148   169   170    1
   149    41    42    1
   150    41    37   am
   151    36    37    1
   152   170   171    1
   153    42    43    1
   154   171   172    2
   155    52    53    1
   156   149   150    1
   157    37    38    2
   158    43    44    2
   159   150   151    1
   160    53    54    1
   161    54    55    2
   162   151   152    1
   163    55    56    1
   164    55    57    1
   165   152   153    2
   166   153   155    1
   167   153   154    1
