@<TRIPOS>MOLECULE
tmp/4p4tA00.pdb
 151 145 0 0 0
SMALL
GASTEIGER

@<TRIPOS>ATOM
      1  N          3.9620   12.6210   80.7280 N.3    35  ASP35      -0.1225
      2  CA         4.5790   13.9370   80.6740 C.3    35  ASP35       0.1805
      3  C          5.7610   13.9510   81.6250 C.2    35  ASP35       0.2598
      4  O          5.7720   13.2220   82.6110 O.2    35  ASP35      -0.2718
      5  CB         3.5620   15.0230   81.0340 C.3    35  ASP35       0.1424
      6  CG         2.4190   15.1300   80.0050 C.2    35  ASP35       0.3668
      7  OD1        2.4640   14.4150   78.9640 O.co2  35  ASP35      -0.2456
      8  OD2        1.4730   15.9310   80.2260 O.co2  35  ASP35      -0.2456
      9  N          6.7660   14.7520   81.3140 N.am   36  GLN36      -0.1965
     10  CA         7.8970   14.9440   82.2110 C.3    36  GLN36       0.1733
     11  C          7.4150   15.3090   83.6240 C.2    36  GLN36       0.2617
     12  O          6.4990   16.1190   83.7820 O.2    36  GLN36      -0.2715
     13  CB         8.8060   16.0320   81.6490 C.3    36  GLN36       0.0408
     14  CG        10.0670   16.2950   82.4470 C.3    36  GLN36       0.0908
     15  CD        10.9460   17.3220   81.7740 C.2    36  GLN36       0.2608
     16  OE1       11.4940   17.0770   80.6990 O.2    36  GLN36      -0.2717
     17  NE2       11.0750   18.4850   82.3930 N.am   36  GLN36      -0.0878
     18  N          8.0240   14.6770   84.6280 N.am   37  SER37      -0.1936
     19  CA         7.6740   14.8640   86.0490 C.3    37  SER37       0.2055
     20  C          6.2660   14.3840   86.4170 C.2    37  SER37       0.2644
     21  O          5.6300   14.9370   87.3090 O.2    37  SER37      -0.2714
     22  CB         7.8670   16.3160   86.4850 C.3    37  SER37       0.2130
     23  OG         9.1690   16.7780   86.1460 O.3    37  SER37      -0.2179
     24  N          5.7810   13.3530   85.7350 N.am   38  SER38      -0.1935
     25  CA         4.5030   12.7670   86.0990 C.3    38  SER38       0.2055
     26  C          4.6850   11.6660   87.1400 C.2    38  SER38       0.2644
     27  O          3.7100   11.1480   87.6800 O.2    38  SER38      -0.2714
     28  CB         3.7720   12.2320   84.8630 C.3    38  SER38       0.2130
     29  OG         4.5980   11.3310   84.1490 O.3    38  SER38      -0.2179
     30  N          5.9340   11.3250   87.4370 N.am   39  GLY39      -0.1939
     31  CA         6.2130   10.2560   88.3830 C.3    39  GLY39       0.2014
     32  C          6.3800    8.8970   87.7350 C.2    39  GLY39       0.2639
     33  O          6.1940    7.8730   88.3850 O.2    39  GLY39      -0.2714
     34  N          6.7690    8.8940   86.4630 N.am   40  LYS40      -0.1963
     35  CA         6.9050    7.6680   85.6780 C.3    40  LYS40       0.1728
     36  C          8.0430    6.7690   86.1700 C.2    40  LYS40       0.2617
     37  O          7.8340    5.5830   86.4140 O.2    40  LYS40      -0.2715
     38  CB         7.0750    8.0100   84.1860 C.3    40  LYS40       0.0311
     39  CG         7.2650    6.8100   83.2680 C.3    40  LYS40       0.0038
     40  CD         7.0000    7.1740   81.8040 C.3    40  LYS40       0.0206
     41  CE         7.9730    8.2280   81.2800 C.3    40  LYS40       0.1093
     42  NZ         9.3460    7.6720   81.1060 N.3    40  LYS40      -0.1314
     43  N          9.2320    7.3330   86.3300 N.am   41  SER41      -0.1936
     44  CA        10.3680    6.5540   86.8180 C.3    41  SER41       0.2055
     45  C         10.1990    6.1310   88.2860 C.2    41  SER41       0.2643
     46  O         10.7240    5.0840   88.7040 O.2    41  SER41      -0.2714
     47  CB        11.6650    7.3260   86.6340 C.3    41  SER41       0.2130
     48  OG        11.6870    8.4140   87.5260 O.3    41  SER41      -0.2179
     49  N          9.4550    6.9340   89.0520 N.am   42  SER42      -0.1949
     50  CA         9.0670    6.5640   90.4220 C.3    42  SER42       0.1924
     51  C          8.2730    5.2500   90.4350 C.2    42  SER42       0.2314
     52  O          8.5550    4.3460   91.2340 O.2    42  SER42      -0.2863
     53  CB         8.2470    7.6810   91.0680 C.3    42  SER42       0.2116
     54  OG         9.0090    8.8660   91.1700 O.3    42  SER42      -0.2180
     55  N         18.4480   10.0130   88.1000 N.3    54  ARG54      -0.1245
     56  CA        17.7350   11.2940   88.0230 C.3    54  ARG54       0.1563
     57  C         17.1940   11.5680   86.6180 C.2    54  ARG54       0.2260
     58  O         15.9870   11.5130   86.3800 O.2    54  ARG54      -0.2867
     59  CB        18.6700   12.4390   88.4410 C.3    54  ARG54       0.0307
     60  CG        17.9670   13.7640   88.7080 C.3    54  ARG54       0.0489
     61  CD        18.8150   14.9680   88.3060 C.3    54  ARG54       0.2205
     62  NE        18.9990   15.0690   86.8550 N.pl3  54  ARG54      -0.0865
     63  CZ        18.0840   15.5220   85.9960 C.cat  54  ARG54       0.5346
     64  NH1       16.8920   15.9230   86.4230 N.pl3  54  ARG54       0.1354
     65  NH2       18.3590   15.5690   84.6990 N.pl3  54  ARG54       0.1354
     66  N         -0.6470    9.1630   90.0010 N.3   196  THR196     -0.1203
     67  CA         0.3970    9.2750   90.9960 C.3   196  THR196      0.1994
     68  C          0.1270   10.4980   91.8600 C.2   196  THR196      0.2617
     69  O         -0.8530   11.2160   91.6480 O.2   196  THR196     -0.2717
     70  CB         1.8070    9.3470   90.3400 C.3   196  THR196      0.1784
     71  OG1        1.8860   10.4860   89.4820 O.3   196  THR196     -0.2211
     72  CG2        2.0990    8.0950   89.5160 C.3   196  THR196      0.0376
     73  N          0.9890   10.7190   92.8460 N.am  197  LYS197     -0.1979
     74  CA         0.9270   11.9090   93.7010 C.3   197  LYS197      0.1596
     75  C         -0.4390   12.1470   94.3400 C.2   197  LYS197      0.2287
     76  O         -0.8940   13.2910   94.3840 O.2   197  LYS197     -0.2864
     77  CB         1.3490   13.1460   92.9010 C.3   197  LYS197      0.0298
     78  CG         2.6970   12.9950   92.2090 C.3   197  LYS197      0.0038
     79  CD         3.0430   14.2240   91.3830 C.3   197  LYS197      0.0206
     80  CE         4.3250   14.0140   90.5910 C.3   197  LYS197      0.1093
     81  NZ         4.5740   15.1810   89.7050 N.3   197  LYS197     -0.1314
     82  N         -1.1760   12.0850   97.3690 N.3   199  ASP199     -0.1225
     83  CA        -0.9640   12.8850   98.5800 C.3   199  ASP199      0.1805
     84  C         -0.9320   14.3890   98.3010 C.2   199  ASP199      0.2597
     85  O         -1.1000   15.1850   99.2210 O.2   199  ASP199     -0.2718
     86  CB         0.3020   12.4430   99.3460 C.3   199  ASP199      0.1424
     87  CG         1.5550   12.3900   98.4630 C.2   199  ASP199      0.3668
     88  OD1        1.4790   11.9750   97.2850 O.co2 199  ASP199     -0.2456
     89  OD2        2.6380   12.7480   98.9680 O.co2 199  ASP199     -0.2456
     90  N         -0.7370   14.7770   97.0390 N.am  200  LEU200     -0.1979
     91  CA        -0.5900   16.2000   96.7040 C.3   200  LEU200      0.1596
     92  C         -1.8750   16.8260   96.1860 C.2   200  LEU200      0.2287
     93  O         -1.8900   17.9830   95.7850 O.2   200  LEU200     -0.2864
     94  CB         0.5500   16.4170   95.7070 C.3   200  LEU200      0.0297
     95  CG         1.9480   16.0210   96.1780 C.3   200  LEU200      0.0022
     96  CD1        2.9540   16.2350   95.0560 C.3   200  LEU200      0.0001
     97  CD2        2.3610   16.7710   97.4320 C.3   200  LEU200      0.0001
     98  N         -1.4710    5.1440   92.7390 N.3   227  VAL227     -0.1231
     99  CA        -0.3100    4.7520   93.5300 C.3   227  VAL227      0.1692
    100  C          0.3040    5.9580   94.2340 C.2   227  VAL227      0.2592
    101  O          0.1110    7.0980   93.8060 O.2   227  VAL227     -0.2718
    102  CB         0.7830    4.0270   92.6900 C.3   227  VAL227      0.0266
    103  CG1        0.2620    2.7260   92.0970 C.3   227  VAL227      0.0020
    104  CG2        1.3490    4.9450   91.6070 C.3   227  VAL227      0.0020
    105  N          1.0290    5.6940   95.3170 N.am  228  LYS228     -0.1966
    106  CA         1.7900    6.7190   96.0100 C.3   228  LYS228      0.1728
    107  C          3.2520    6.2690   96.0760 C.2   228  LYS228      0.2616
    108  O          3.5690    5.2370   96.6590 O.2   228  LYS228     -0.2715
    109  CB         1.1730    7.0060   97.3960 C.3   228  LYS228      0.0311
    110  CG         2.1100    7.4460   98.5160 C.3   228  LYS228      0.0038
    111  CD         2.6580    8.8590   98.3650 C.3   228  LYS228      0.0206
    112  CE         3.5390    9.2200   99.5630 C.3   228  LYS228      0.1093
    113  NZ         4.7360   10.0320   99.1760 N.3   228  LYS228     -0.1314
    114  N          4.1290    7.0370   95.4360 N.am  229  CYS229     -0.1954
    115  CA         5.5550    6.7350   95.4110 C.3   229  CYS229      0.1843
    116  C          6.2930    7.7630   96.2430 C.2   229  CYS229      0.2625
    117  O          5.6850    8.6840   96.7890 O.2   229  CYS229     -0.2714
    118  CB         6.0800    6.7380   93.9710 C.3   229  CYS229      0.0997
    119  SG         5.2820    5.5110   92.9110 S.3   229  CYS229     -0.0797
    120  N          7.6030    7.6080   96.3470 N.am  230  ARG230     -0.1963
    121  CA         8.3980    8.5210   97.1430 C.3   230  ARG230      0.1729
    122  C          8.2520    9.9600   96.6490 C.2   230  ARG230      0.2617
    123  O          8.3160   10.2230   95.4400 O.2   230  ARG230     -0.2715
    124  CB         9.8570    8.0870   97.1330 C.3   230  ARG230      0.0348
    125  CG        10.0540    6.6750   97.6640 C.3   230  ARG230      0.0492
    126  CD        11.5180    6.3550   97.8470 C.3   230  ARG230      0.2205
    127  NE        12.2150    6.2790   96.5660 N.pl3 230  ARG230     -0.0865
    128  CZ        13.5350    6.3100   96.4410 C.cat 230  ARG230      0.5346
    129  NH1       14.3060    6.4240   97.5110 N.pl3 230  ARG230      0.1354
    130  NH2       14.0850    6.2330   95.2460 N.pl3 230  ARG230      0.1354
    131  N          8.0000   10.8690   97.5930 N.am  231  GLY231     -0.1940
    132  CA         8.0590   12.3050   97.3490 C.3   231  GLY231      0.2014
    133  C          9.5110   12.7420   97.3400 C.2   231  GLY231      0.2638
    134  O         10.3960   11.9630   97.7030 O.2   231  GLY231     -0.2714
    135  N          9.7690   13.9850   96.9390 N.am  232  GLN232     -0.1977
    136  CA        11.1460   14.4440   96.7580 C.3   232  GLN232      0.1601
    137  C         11.9600   14.4540   98.0590 C.2   232  GLN232      0.2287
    138  O         13.1600   14.1640   98.0500 O.2   232  GLN232     -0.2864
    139  CB        11.1840   15.8140   96.0650 C.3   232  GLN232      0.0394
    140  CG        12.5870   16.3050   95.7040 C.3   232  GLN232      0.0908
    141  CD        13.2790   15.4090   94.6910 C.2   232  GLN232      0.2608
    142  OE1       12.6260   14.7680   93.8570 O.2   232  GLN232     -0.2717
    143  NE2       14.6090   15.3600   94.7530 N.am  232  GLN232     -0.0878
    144  N         13.0150   10.8480   98.7530 N.3   235  ILE235     -0.1245
    145  CA        14.1650   10.5860   97.8870 C.3   235  ILE235      0.1561
    146  C         15.4110   11.2780   98.4530 C.2   235  ILE235      0.2260
    147  O         16.4790   10.6710   98.5500 O.2   235  ILE235     -0.2867
    148  CB        13.8910   11.0440   96.4340 C.3   235  ILE235      0.0252
    149  CG1       12.8700   10.1130   95.7720 C.3   235  ILE235      0.0019
    150  CG2       15.1840   11.0890   95.6240 C.3   235  ILE235      0.0019
    151  CD1       12.1630   10.7080   94.5720 C.3   235  ILE235      0.0001
@<TRIPOS>BOND
     1     7     6   ar
     2     6     8   ar
     3     6     5    1
     4     2     1    1
     5     2     5    1
     6     2     3    1
     7    16    15    2
     8    42    41    1
     9    41    40    1
    10     9     3   am
    11     9    10    1
    12     3     4    2
    13    13    10    1
    14    13    14    1
    15    15    17   am
    16    15    14    1
    17    40    39    1
    18    10    11    1
    19    39    38    1
    20    11    12    2
    21    11    18   am
    22    29    28    1
    23    38    35    1
    24    18    19    1
    25    65    63    1
    26    28    25    1
    27    35    36    1
    28    35    34    1
    29    24    25    1
    30    24    20   am
    31    63    64    1
    32    63    62    2
    33    19    20    1
    34    19    22    1
    35    25    26    1
    36    23    22    1
    37    36    43   am
    38    36    37    2
    39    43    44    1
    40    58    57    2
    41    20    21    2
    42    34    32   am
    43    57    56    1
    44    47    44    1
    45    47    48    1
    46    44    45    1
    47    62    61    1
    48    26    30   am
    49    26    27    2
    50    30    31    1
    51    32    31    1
    52    32    33    2
    53    56    55    1
    54    56    59    1
    55    45    46    2
    56    45    49   am
    57    61    60    1
    58    59    60    1
    59    49    50    1
    60    71    70    1
    61    72    70    1
    62    81    80    1
    63    66    67    1
    64    70    67    1
    65    50    51    1
    66    50    53    1
    67    51    52    2
    68    80    79    1
    69    67    68    1
    70    53    54    1
    71    79    78    1
    72   104   102    1
    73    69    68    2
    74    68    73   am
    75   103   102    1
    76    78    77    1
    77   102    99    1
    78    98    99    1
    79    73    74    1
    80    77    74    1
    81   119   118    1
    82    99   100    1
    83    74    75    1
    84   101   100    2
    85   142   141    2
    86   118   115    1
    87   100   105   am
    88    75    76    2
    89   151   149    1
    90   141   143   am
    91   141   140    1
    92    96    95    1
    93   130   128    1
    94   105   106    1
    95   115   114    1
    96   115   116    1
    97   114   107   am
    98   123   122    2
    99   150   148    1
   100   140   139    1
   101    94    95    1
   102    94    91    1
   103   149   148    1
   104    93    92    2
   105   106   107    1
   106   106   109    1
   107   139   136    1
   108   107   108    2
   109    95    97    1
   110    92    91    1
   111   116   120   am
   112   116   117    2
   113   120   121    1
   114   148   145    1
   115   128   127    2
   116   128   129    1
   117   127   126    1
   118   122   121    1
   119   122   131   am
   120    91    90    1
   121   136   135    1
   122   136   137    1
   123   135   133   am
   124    90    84   am
   125   124   121    1
   126   124   125    1
   127    88    87   ar
   128   133   132    1
   129   133   134    2
   130   132   131    1
   131    82    83    1
   132   109   110    1
   133   125   126    1
   134   145   146    1
   135   145   144    1
   136   138   137    2
   137    84    83    1
   138    84    85    2
   139   111   110    1
   140   111   112    1
   141   146   147    2
   142    87    89   ar
   143    87    86    1
   144    83    86    1
   145   113   112    1
