@<TRIPOS>MOLECULE
tmp/4p56A01.pdb
 95 91 0 0 0
SMALL
GASTEIGER

@<TRIPOS>ATOM
      1  N         23.2220   48.7920   21.4080 N.3    47  ALA47      -0.1245
      2  CA        24.0790   49.9400   21.6110 C.3    47  ALA47       0.1562
      3  C         25.3430   49.5760   22.3940 C.2    47  ALA47       0.2260
      4  O         26.3990   50.1530   22.1670 O.2    47  ALA47      -0.2867
      5  CB        23.3210   51.0380   22.3060 C.3    47  ALA47       0.0290
      6  N         29.4680   48.6470   21.0470 N.3    50  PHE50      -0.1227
      7  CA        30.6920   49.4140   20.8460 C.3    50  PHE50       0.1736
      8  C         31.6350   49.1620   22.0330 C.2    50  PHE50       0.2595
      9  O         32.8130   48.8100   21.8650 O.2    50  PHE50      -0.2718
     10  CB        30.3820   50.9110   20.7270 C.3    50  PHE50       0.0547
     11  CG        31.5810   51.7280   20.3390 C.ar   50  PHE50      -0.0202
     12  CD1       32.5480   52.0250   21.2620 C.ar   50  PHE50      -0.0042
     13  CD2       31.7470   52.1790   19.0440 C.ar   50  PHE50      -0.0042
     14  CE1       33.6850   52.7420   20.9120 C.ar   50  PHE50      -0.0003
     15  CE2       32.8920   52.9310   18.6820 C.ar   50  PHE50      -0.0003
     16  CZ        33.8470   53.1970   19.6120 C.ar   50  PHE50      -0.0000
     17  N         31.1150   49.3570   23.2390 N.am   51  ASP51      -0.1974
     18  CA        31.9030   49.1000   24.4450 C.3    51  ASP51       0.1709
     19  C         32.3380   47.6220   24.5740 C.2    51  ASP51       0.2293
     20  O         33.4150   47.3470   25.1090 O.2    51  ASP51      -0.2864
     21  CB        31.1390   49.5320   25.7010 C.3    51  ASP51       0.1436
     22  CG        31.0700   51.0530   25.8470 C.2    51  ASP51       0.3671
     23  OD1       31.9640   51.7320   25.3130 O.co2  51  ASP51      -0.2456
     24  OD2       30.1120   51.5600   26.4590 O.co2  51  ASP51      -0.2456
     25  N         35.4650   47.6610   22.6990 N.3    54  ARG54      -0.1245
     26  CA        36.4670   48.4720   23.3360 C.3    54  ARG54       0.1563
     27  C         36.9970   47.7760   24.5850 C.2    54  ARG54       0.2260
     28  O         38.1940   47.7940   24.8510 O.2    54  ARG54      -0.2867
     29  CB        35.8860   49.8450   23.6960 C.3    54  ARG54       0.0307
     30  CG        36.9380   50.8600   24.1650 C.3    54  ARG54       0.0489
     31  CD        36.2510   52.2150   24.4080 C.3    54  ARG54       0.2205
     32  NE        35.0590   52.0170   25.2320 N.pl3  54  ARG54      -0.0865
     33  CZ        35.0860   51.6150   26.5050 C.cat  54  ARG54       0.5346
     34  NH1       36.2410   51.3900   27.1170 N.pl3  54  ARG54       0.1354
     35  NH2       33.9650   51.4530   27.1840 N.pl3  54  ARG54       0.1354
     36  N         23.9010   56.1250   19.0990 N.3    68  TYR68      -0.1241
     37  CA        24.7380   56.8780   20.0730 C.3    68  TYR68       0.1605
     38  C         24.5310   58.3800   19.9820 C.2    68  TYR68       0.2264
     39  O         25.3190   59.0850   19.3700 O.2    68  TYR68      -0.2867
     40  CB        26.2250   56.5400   19.8780 C.3    68  TYR68       0.0534
     41  CG        26.4210   55.0590   19.8200 C.ar   68  TYR68      -0.0201
     42  CD1       26.6790   54.3470   20.9680 C.ar   68  TYR68      -0.0009
     43  CD2       26.3320   54.3770   18.6190 C.ar   68  TYR68      -0.0009
     44  CE1       26.8370   52.9470   20.9270 C.ar   68  TYR68       0.0417
     45  CE2       26.4880   53.0010   18.5550 C.ar   68  TYR68       0.0417
     46  CZ        26.7480   52.3030   19.7040 C.ar   68  TYR68       0.1957
     47  OH        26.8830   50.9400   19.6400 O.3    68  TYR68      -0.2866
     48  N         27.3330   61.3350   19.2330 N.3    71  ARG71      -0.1231
     49  CA        28.7000   60.8120   19.1450 C.3    71  ARG71       0.1694
     50  C         29.3030   60.6320   17.7560 C.2    71  ARG71       0.2592
     51  O         30.5430   60.5200   17.5810 O.2    71  ARG71      -0.2718
     52  CB        28.7470   59.4810   19.8940 C.3    71  ARG71       0.0321
     53  CG        28.5740   59.7350   21.3840 C.3    71  ARG71       0.0489
     54  CD        29.2400   58.6730   22.2300 C.3    71  ARG71       0.2205
     55  NE        28.8550   58.7970   23.6360 N.pl3  71  ARG71      -0.0865
     56  CZ        29.5200   59.4860   24.5660 C.cat  71  ARG71       0.5346
     57  NH1       30.6310   60.1670   24.2840 N.pl3  71  ARG71       0.1354
     58  NH2       29.0580   59.4940   25.8000 N.pl3  71  ARG71       0.1354
     59  N         28.4100   60.5900   16.7900 N.am   72  PHE72      -0.1976
     60  CA        28.7420   60.3280   15.3950 C.3    72  PHE72       0.1639
     61  C         28.0640   61.3790   14.5240 C.2    72  PHE72       0.2290
     62  O         27.5460   61.0900   13.4370 O.2    72  PHE72      -0.2864
     63  CB        28.3370   58.9150   14.9900 C.3    72  PHE72       0.0560
     64  CG        29.1150   57.8640   15.7090 C.ar   72  PHE72      -0.0200
     65  CD1       30.4730   57.6580   15.4230 C.ar   72  PHE72      -0.0042
     66  CD2       28.5230   57.1030   16.7060 C.ar   72  PHE72      -0.0042
     67  CE1       31.2220   56.6980   16.1260 C.ar   72  PHE72      -0.0003
     68  CE2       29.2810   56.1580   17.4350 C.ar   72  PHE72      -0.0003
     69  CZ        30.6290   55.9530   17.1340 C.ar   72  PHE72      -0.0000
     70  N         38.3520   61.4970   15.2940 N.3   106  ASP106     -0.1225
     71  CA        38.4200   60.4500   16.3300 C.3   106  ASP106      0.1805
     72  C         37.0440   60.0970   16.9120 C.2   106  ASP106      0.2597
     73  O         36.9360   59.7650   18.0930 O.2   106  ASP106     -0.2718
     74  CB        39.3660   60.9070   17.4660 C.3   106  ASP106      0.1424
     75  CG        39.9190   59.7670   18.2900 C.2   106  ASP106      0.3668
     76  OD1       39.9610   58.6150   17.7780 O.co2 106  ASP106     -0.2456
     77  OD2       40.3510   60.0570   19.4500 O.co2 106  ASP106     -0.2456
     78  N         35.9970   60.1160   16.0930 N.am  107  GLU107     -0.1979
     79  CA        34.6730   59.7370   16.5980 C.3   107  GLU107      0.1602
     80  C         34.6250   58.2950   17.1170 C.2   107  GLU107      0.2287
     81  O         33.8220   58.0040   18.0080 O.2   107  GLU107     -0.2864
     82  CB        33.6160   59.9040   15.5240 C.3   107  GLU107      0.0415
     83  CG        33.3640   61.3310   15.1040 C.3   107  GLU107      0.1163
     84  CD        32.1560   61.4600   14.2350 C.2   107  GLU107      0.3649
     85  OE1       31.9590   60.6090   13.3020 O.co2 107  GLU107     -0.2457
     86  OE2       31.3650   62.4110   14.5120 O.co2 107  GLU107     -0.2457
     87  N         36.7710   56.6260   18.8860 N.3   109  LYS109     -0.1245
     88  CA        37.8790   56.5320   19.8250 C.3   109  LYS109      0.1561
     89  C         37.8490   55.1920   20.5470 C.2   109  LYS109      0.2260
     90  O         36.7890   54.7550   20.9950 O.2   109  LYS109     -0.2867
     91  CB        37.7770   57.6510   20.8630 C.3   109  LYS109      0.0271
     92  CG        38.9040   57.6580   21.8750 C.3   109  LYS109      0.0035
     93  CD        38.7220   58.7730   22.9130 C.3   109  LYS109      0.0206
     94  CE        39.9960   58.9600   23.7330 C.3   109  LYS109      0.1093
     95  NZ        39.7860   59.9860   24.7740 N.3   109  LYS109     -0.1314
@<TRIPOS>BOND
     1    85    84   ar
     2    62    61    2
     3    84    86   ar
     4    84    83    1
     5    61    60    1
     6    63    60    1
     7    63    64    1
     8    83    82    1
     9    70    71    1
    10    60    59    1
    11    65    64   ar
    12    65    67   ar
    13    82    79    1
    14    64    66   ar
    15    78    79    1
    16    78    72   am
    17    67    69   ar
    18    71    72    1
    19    71    74    1
    20    79    80    1
    21    66    68   ar
    22    59    50   am
    23    72    73    2
    24    80    81    2
    25    69    68   ar
    26    74    75    1
    27    51    50    2
    28    50    49    1
    29    76    75   ar
    30    75    77   ar
    31    45    43   ar
    32    45    46   ar
    33    43    41   ar
    34    15    13   ar
    35    15    16   ar
    36    87    88    1
    37    13    11   ar
    38    36    37    1
    39    49    48    1
    40    49    52    1
    41    39    38    2
    42    16    14   ar
    43    47    46    1
    44    46    44   ar
    45    41    40    1
    46    41    42   ar
    47    88    89    1
    48    88    91    1
    49    40    37    1
    50    52    53    1
    51    38    37    1
    52    11    10    1
    53    11    12   ar
    54    89    90    2
    55    10     7    1
    56     7     6    1
    57     7     8    1
    58    91    92    1
    59    14    12   ar
    60    44    42   ar
    61    53    54    1
    62     1     2    1
    63     2     5    1
    64     2     3    1
    65     9     8    2
    66    92    93    1
    67     8    17   am
    68     4     3    2
    69    54    55    1
    70    25    26    1
    71    93    94    1
    72    17    18    1
    73    26    29    1
    74    26    27    1
    75    55    56    2
    76    29    30    1
    77    94    95    1
    78    30    31    1
    79    57    56    1
    80    31    32    1
    81    18    19    1
    82    18    21    1
    83    56    58    1
    84    19    20    2
    85    27    28    2
    86    32    33    2
    87    23    22   ar
    88    21    22    1
    89    22    24   ar
    90    33    34    1
    91    33    35    1
