@<TRIPOS>MOLECULE
tmp/4p56B00.pdb
 170 168 0 0 0
SMALL
GASTEIGER

@<TRIPOS>ATOM
      1  N         23.4600   34.9030   46.2610 N.3     9  TRP9       -0.1227
      2  CA        23.5400   34.9280   44.8030 C.3     9  TRP9        0.1737
      3  C         24.2630   33.6960   44.3180 C.2     9  TRP9        0.2595
      4  O         24.6000   33.6180   43.1420 O.2     9  TRP9       -0.2718
      5  CB        24.2370   36.2120   44.2730 C.3     9  TRP9        0.0564
      6  CG        25.4290   36.6830   45.0870 C.ar    9  TRP9        0.0003
      7  CD1       25.4000   37.4750   46.2000 C.ar    9  TRP9        0.0946
      8  CD2       26.8160   36.4100   44.8190 C.ar    9  TRP9        0.0152
      9  NE1       26.6920   37.7220   46.6300 N.ar    9  TRP9       -0.2442
     10  CE2       27.5700   37.0660   45.8150 C.ar    9  TRP9        0.0810
     11  CE3       27.4860   35.6680   43.8440 C.ar    9  TRP9        0.0012
     12  CZ2       28.9560   36.9960   45.8580 C.ar    9  TRP9        0.0191
     13  CZ3       28.8770   35.6070   43.8840 C.ar    9  TRP9        0.0001
     14  CH2       29.5960   36.2600   44.8870 C.ar    9  TRP9        0.0015
     15  N         24.5150   32.7510   45.2260 N.am   10  LEU10      -0.1980
     16  CA        25.0930   31.4460   44.8520 C.3    10  LEU10       0.1596
     17  C         24.0980   30.3690   45.1560 C.2    10  LEU10       0.2287
     18  O         23.2850   30.5330   46.0720 O.2    10  LEU10      -0.2864
     19  CB        26.3520   31.1600   45.6590 C.3    10  LEU10       0.0297
     20  CG        27.5210   32.0980   45.3470 C.3    10  LEU10       0.0022
     21  CD1       28.7140   31.8270   46.2550 C.3    10  LEU10       0.0001
     22  CD2       27.8940   31.9590   43.9000 C.3    10  LEU10       0.0001
     23  N         26.3940   25.4420   47.1050 N.3    14  HIS14      -0.1241
     24  CA        27.7560   25.9290   47.0430 C.3    14  HIS14       0.1621
     25  C         28.3500   25.9840   48.4430 C.2    14  HIS14       0.2264
     26  O         27.6530   26.2580   49.4260 O.2    14  HIS14      -0.2867
     27  CB        27.8150   27.3320   46.4280 C.3    14  HIS14       0.0745
     28  CG        29.1990   27.7820   46.0870 C.ar   14  HIS14       0.0817
     29  ND1       29.9900   28.4970   46.9620 N.ar   14  HIS14      -0.2268
     30  CD2       29.9490   27.5880   44.9730 C.ar   14  HIS14       0.1154
     31  CE1       31.1610   28.7350   46.4030 C.ar   14  HIS14       0.1986
     32  NE2       31.1640   28.1970   45.1910 N.ar   14  HIS14      -0.2212
     33  N         31.0690   40.1580   47.1810 N.3    65  SER65      -0.1217
     34  CA        32.4410   40.0510   46.7380 C.3    65  SER65       0.1889
     35  C         33.0830   41.4190   46.5110 C.2    65  SER65       0.2288
     36  O         32.5430   42.2760   45.7940 O.2    65  SER65      -0.2866
     37  CB        32.5460   39.2560   45.4500 C.3    65  SER65       0.2089
     38  OG        33.8450   39.4820   44.9280 O.3    65  SER65      -0.2183
     39  N         33.4660   42.8720   42.9780 N.3    68  TYR68      -0.1241
     40  CA        32.3230   43.2430   42.1320 C.3    68  TYR68       0.1605
     41  C         31.9680   44.7330   42.1830 C.2    68  TYR68       0.2264
     42  O         30.9130   45.1250   41.6930 O.2    68  TYR68      -0.2867
     43  CB        31.0700   42.4190   42.5050 C.3    68  TYR68       0.0534
     44  CG        31.1760   40.9290   42.2860 C.ar   68  TYR68      -0.0201
     45  CD1       32.3200   40.3550   41.7580 C.ar   68  TYR68      -0.0009
     46  CD2       30.1130   40.0840   42.6270 C.ar   68  TYR68      -0.0009
     47  CE1       32.4050   38.9930   41.5810 C.ar   68  TYR68       0.0417
     48  CE2       30.1970   38.7460   42.4760 C.ar   68  TYR68       0.0417
     49  CZ        31.3320   38.1910   41.9380 C.ar   68  TYR68       0.1957
     50  OH        31.3640   36.8210   41.7810 O.3    68  TYR68      -0.2866
     51  N         38.7030   33.0330   49.2400 N.3   120  HIS120     -0.1241
     52  CA        38.6950   31.6790   48.7150 C.3   120  HIS120      0.1621
     53  C         40.1130   31.1230   48.5890 C.2   120  HIS120      0.2264
     54  O         41.1090   31.7650   48.9640 O.2   120  HIS120     -0.2867
     55  CB        37.8140   31.5120   47.4460 C.3   120  HIS120      0.0745
     56  CG        38.3070   32.2180   46.2130 C.ar  120  HIS120      0.0817
     57  ND1       39.5370   31.9710   45.6530 N.ar  120  HIS120     -0.2268
     58  CD2       37.7040   33.1380   45.4110 C.ar  120  HIS120      0.1154
     59  CE1       39.6840   32.7160   44.5680 C.ar  120  HIS120      0.1986
     60  NE2       38.5790   33.4220   44.3920 N.ar  120  HIS120     -0.2212
     61  N         37.2560   35.1100   32.0420 N.3   144  ARG144     -0.1245
     62  CA        36.2410   35.5030   33.0120 C.3   144  ARG144      0.1563
     63  C         36.9140   35.6780   34.3690 C.2   144  ARG144      0.2260
     64  O         37.5690   34.7560   34.8510 O.2   144  ARG144     -0.2867
     65  CB        35.1640   34.4460   33.1340 C.3   144  ARG144      0.0307
     66  CG        33.8250   34.9470   33.6350 C.3   144  ARG144      0.0489
     67  CD        33.7170   35.4000   35.0890 C.3   144  ARG144      0.2205
     68  NE        34.5570   34.6630   36.0260 N.pl3 144  ARG144     -0.0865
     69  CZ        34.5380   34.8110   37.3420 C.cat 144  ARG144      0.5346
     70  NH1       33.6730   35.6090   37.9280 N.pl3 144  ARG144      0.1354
     71  NH2       35.3840   34.1230   38.0960 N.pl3 144  ARG144      0.1354
     72  N         36.2600   37.8300   38.4040 N.3   146  GLY146     -0.1225
     73  CA        35.2610   38.5140   39.1990 C.3   146  GLY146      0.1811
     74  C         35.3890   40.0210   39.0470 C.2   146  GLY146      0.2280
     75  O         34.3950   40.7340   39.0780 O.2   146  GLY146     -0.2866
     76  N         30.5090   35.4180   39.2050 N.3   165  ALA165     -0.1245
     77  CA        30.8090   33.9950   39.0190 C.3   165  ALA165      0.1562
     78  C         29.7150   33.1890   38.2850 C.2   165  ALA165      0.2260
     79  O         30.0310   32.3650   37.4480 O.2   165  ALA165     -0.2867
     80  CB        31.0750   33.3820   40.3370 C.3   165  ALA165      0.0290
     81  N         39.4350   32.5590   35.6800 N.3   181  PHE181     -0.1227
     82  CA        40.1220   32.4740   36.9720 C.3   181  PHE181      0.1736
     83  C         39.1120   32.1050   38.0560 C.2   181  PHE181      0.2595
     84  O         38.1660   32.8530   38.3550 O.2   181  PHE181     -0.2718
     85  CB        40.7680   33.8180   37.3480 C.3   181  PHE181      0.0547
     86  CG        41.9980   34.1920   36.5480 C.ar  181  PHE181     -0.0202
     87  CD1       42.5270   33.3630   35.5920 C.ar  181  PHE181     -0.0042
     88  CD2       42.6310   35.4240   36.7810 C.ar  181  PHE181     -0.0042
     89  CE1       43.6700   33.7220   34.8580 C.ar  181  PHE181     -0.0003
     90  CE2       43.7700   35.7830   36.0670 C.ar  181  PHE181     -0.0003
     91  CZ        44.2740   34.9380   35.0820 C.ar  181  PHE181     -0.0000
     92  N         39.3170   30.9460   38.6540 N.am  182  PHE182     -0.1963
     93  CA        38.4710   30.4490   39.7040 C.3   182  PHE182      0.1756
     94  C         39.3860   29.6160   40.6110 C.2   182  PHE182      0.2461
     95  O         40.4260   29.1010   40.1610 O.2   182  PHE182     -0.2730
     96  CB        37.4340   29.4910   39.1170 C.3   182  PHE182      0.0574
     97  CG        36.0280   30.0490   38.9530 C.ar  182  PHE182     -0.0200
     98  CD1       35.5340   31.0610   39.7470 C.ar  182  PHE182     -0.0042
     99  CD2       35.1730   29.4570   38.0320 C.ar  182  PHE182     -0.0042
    100  CE1       34.2460   31.4870   39.6030 C.ar  182  PHE182     -0.0003
    101  CE2       33.8790   29.8840   37.8830 C.ar  182  PHE182     -0.0003
    102  CZ        33.4090   30.8900   38.6690 C.ar  182  PHE182     -0.0000
    103  N         38.9730   29.4260   41.8680 N.am  183  PRO183     -0.2727
    104  CA        39.5820   28.3650   42.6710 C.3   183  PRO183      0.1402
    105  C         39.1250   26.9790   42.2460 C.2   183  PRO183      0.2269
    106  O         38.1770   26.8200   41.4750 O.2   183  PRO183     -0.2865
    107  CB        39.0880   28.6850   44.0850 C.3   183  PRO183      0.0296
    108  CG        37.7370   29.2760   43.8630 C.3   183  PRO183      0.0237
    109  CD        37.8650   30.0900   42.5850 C.3   183  PRO183      0.0939
    110  N         35.3270   25.6400   42.1740 N.3   186  SER186     -0.1217
    111  CA        34.3920   26.2670   41.2400 C.3   186  SER186      0.1889
    112  C         34.3100   25.4970   39.9000 C.2   186  SER186      0.2288
    113  O         33.2790   25.5070   39.1940 O.2   186  SER186     -0.2866
    114  CB        34.8170   27.7160   40.9870 C.3   186  SER186      0.2089
    115  OG        34.9660   28.4480   42.2060 O.3   186  SER186     -0.2183
    116  N         30.3560   25.0930   39.3640 N.3   190  PHE190     -0.1241
    117  CA        29.7160   25.8010   38.2660 C.3   190  PHE190      0.1605
    118  C         29.6190   24.9250   37.0260 C.2   190  PHE190      0.2264
    119  O         29.2990   25.3970   35.9300 O.2   190  PHE190     -0.2867
    120  CB        30.4390   27.1130   37.9770 C.3   190  PHE190      0.0534
    121  CG        30.3070   28.1270   39.0900 C.ar  190  PHE190     -0.0203
    122  CD1       31.1840   28.1260   40.1370 C.ar  190  PHE190     -0.0042
    123  CD2       29.3090   29.0830   39.0710 C.ar  190  PHE190     -0.0042
    124  CE1       31.0890   29.0580   41.1580 C.ar  190  PHE190     -0.0003
    125  CE2       29.2130   30.0210   40.0830 C.ar  190  PHE190     -0.0003
    126  CZ        30.0940   29.9940   41.1350 C.ar  190  PHE190     -0.0000
    127  N         46.0240   34.2910   42.5880 N.3   207  TYR207     -0.1241
    128  CA        45.3020   35.4510   43.1290 C.3   207  TYR207      0.1605
    129  C         44.2580   34.8450   44.1000 C.2   207  TYR207      0.2264
    130  O         44.1110   33.6040   44.2260 O.2   207  TYR207     -0.2867
    131  CB        44.5710   36.2190   42.0180 C.3   207  TYR207      0.0534
    132  CG        43.3840   35.4480   41.5850 C.ar  207  TYR207     -0.0201
    133  CD1       43.5190   34.3810   40.7060 C.ar  207  TYR207     -0.0009
    134  CD2       42.1360   35.6990   42.1300 C.ar  207  TYR207     -0.0009
    135  CE1       42.4480   33.6150   40.3520 C.ar  207  TYR207      0.0417
    136  CE2       41.0500   34.9140   41.7990 C.ar  207  TYR207      0.0417
    137  CZ        41.2220   33.8610   40.9130 C.ar  207  TYR207      0.1957
    138  OH        40.1390   33.0710   40.5890 O.3   207  TYR207     -0.2866
    139  N         40.1540   36.1460   46.0040 N.3   209  ASP209     -0.1239
    140  CA        39.1180   37.1550   46.1320 C.3   209  ASP209      0.1674
    141  C         38.6480   37.1120   47.5710 C.2   209  ASP209      0.2266
    142  O         38.6510   36.0530   48.2000 O.2   209  ASP209     -0.2867
    143  CB        37.9630   36.8650   45.1830 C.3   209  ASP209      0.1410
    144  CG        36.8720   37.9730   45.1990 C.2   209  ASP209      0.3668
    145  OD1       37.1440   39.1490   45.5590 O.co2 209  ASP209     -0.2456
    146  OD2       35.7290   37.6560   44.8200 O.co2 209  ASP209     -0.2456
    147  N         35.3570   38.1230   50.2840 N.3   211  HIS211     -0.1241
    148  CA        33.9590   38.5340   50.4520 C.3   211  HIS211      0.1621
    149  C         33.7660   39.0830   51.8690 C.2   211  HIS211      0.2264
    150  O         34.4970   38.7270   52.7870 O.2   211  HIS211     -0.2867
    151  CB        32.9760   37.3590   50.2970 C.3   211  HIS211      0.0745
    152  CG        33.0420   36.6480   48.9710 C.ar  211  HIS211      0.0817
    153  ND1       32.2860   35.5200   48.7070 N.ar  211  HIS211     -0.2268
    154  CD2       33.8090   36.8530   47.8670 C.ar  211  HIS211      0.1154
    155  CE1       32.5150   35.1210   47.4650 C.ar  211  HIS211      0.1986
    156  NE2       33.4470   35.9020   46.9370 N.ar  211  HIS211     -0.2212
    157  N         35.5800   26.5550   51.9640 N.3   247  TRP247     -0.1241
    158  CA        36.2350   26.6340   50.6680 C.3   247  TRP247      0.1605
    159  C         37.3150   25.5890   50.5390 C.2   247  TRP247      0.2264
    160  O         37.5150   25.0250   49.4460 O.2   247  TRP247     -0.2867
    161  CB        36.8910   27.9750   50.4970 C.3   247  TRP247      0.0550
    162  CG        36.0360   29.1660   50.2750 C.ar  247  TRP247      0.0003
    163  CD1       35.8060   30.1960   51.1710 C.ar  247  TRP247      0.0946
    164  CD2       35.4240   29.5640   49.0540 C.ar  247  TRP247      0.0152
    165  NE1       35.0750   31.1770   50.5800 N.ar  247  TRP247     -0.2442
    166  CE2       34.8130   30.8160   49.2850 C.ar  247  TRP247      0.0810
    167  CE3       35.3100   28.9760   47.7880 C.ar  247  TRP247      0.0012
    168  CZ2       34.1120   31.4850   48.3030 C.ar  247  TRP247      0.0191
    169  CZ3       34.5920   29.6640   46.8170 C.ar  247  TRP247      0.0001
    170  CH2       34.0210   30.8970   47.0820 C.ar  247  TRP247      0.0015
@<TRIPOS>BOND
     1    61    62    1
     2    62    65    1
     3    62    63    1
     4    65    66    1
     5    66    67    1
     6    63    64    2
     7    89    91   ar
     8    89    87   ar
     9    91    90   ar
    10    67    68    1
    11    87    86   ar
    12    81    82    1
    13   119   118    2
    14    68    69    2
    15    90    88   ar
    16    86    88   ar
    17    86    85    1
    18    82    85    1
    19    82    83    1
    20   118   117    1
    21    69    70    1
    22    69    71    1
    23    79    78    2
    24   101    99   ar
    25   101   102   ar
    26   120   117    1
    27   120   121    1
    28    99    97   ar
    29    83    84    2
    30    83    92   am
    31   117   116    1
    32    78    77    1
    33    72    73    1
    34    92    93    1
    35   102   100   ar
    36    97    96    1
    37    97    98   ar
    38    77    76    1
    39    77    80    1
    40    74    75    2
    41    74    73    1
    42   123   121   ar
    43   123   125   ar
    44   121   122   ar
    45    96    93    1
    46   113   112    2
    47   100    98   ar
    48    93    94    1
    49   112   111    1
    50   125   126   ar
    51   122   124   ar
    52    95    94    2
    53   135   133   ar
    54   135   137   ar
    55   138   137    1
    56    94   103   am
    57   133   132   ar
    58   137   136   ar
    59   114   111    1
    60   114   115    1
    61   126   124   ar
    62   111   110    1
    63   106   105    2
    64    47    45   ar
    65    47    49   ar
    66   132   131    1
    67   132   134   ar
    68    42    41    2
    69    45    44   ar
    70    50    49    1
    71   136   134   ar
    72   103   109    1
    73   103   104    1
    74    49    48   ar
    75   131   128    1
    76    40    41    1
    77    40    43    1
    78    40    39    1
    79   105   104    1
    80    44    43    1
    81    44    46   ar
    82    48    46   ar
    83   109   108    1
    84   127   128    1
    85   104   107    1
    86   128   129    1
    87     4     3    2
    88    11    13   ar
    89    11     8   ar
    90   108   107    1
    91    13    14   ar
    92    22    20    1
    93   129   130    2
    94     5     2    1
    95     5     6    1
    96     3     2    1
    97     3    15   am
    98    60    59   ar
    99    60    58   ar
   100    59    57   ar
   101     2     1    1
   102     8     6   ar
   103     8    10   ar
   104   146   144   ar
   105    16    17    1
   106    16    15    1
   107    16    19    1
   108    14    12   ar
   109    38    37    1
   110    30    32   ar
   111    30    28   ar
   112     6     7   ar
   113    17    18    2
   114   143   144    1
   115   143   140    1
   116    32    31   ar
   117   144   145   ar
   118    20    19    1
   119    20    21    1
   120    58    56   ar
   121    37    34    1
   122    57    56   ar
   123    36    35    2
   124    10    12   ar
   125    10     9   ar
   126   139   140    1
   127    28    27    1
   128    28    29   ar
   129   140   141    1
   130     7     9   ar
   131    56    55    1
   132    31    29   ar
   133    27    24    1
   134    35    34    1
   135    34    33    1
   136   169   170   ar
   137   169   167   ar
   138   156   155   ar
   139   156   154   ar
   140    24    23    1
   141    24    25    1
   142   170   168   ar
   143    55    52    1
   144   155   153   ar
   145   141   142    2
   146   167   164   ar
   147   154   152   ar
   148   168   166   ar
   149    25    26    2
   150    53    52    1
   151    53    54    2
   152   153   152   ar
   153    52    51    1
   154   152   151    1
   155   164   166   ar
   156   164   162   ar
   157   166   165   ar
   158   160   159    2
   159   162   161    1
   160   162   163   ar
   161   147   148    1
   162   151   148    1
   163   148   149    1
   164   161   158    1
   165   159   158    1
   166   165   163   ar
   167   158   157    1
   168   149   150    2
