@<TRIPOS>MOLECULE
tmp/4p58A00.pdb
 120 118 0 0 0
SMALL
GASTEIGER

@<TRIPOS>ATOM
      1  N         14.1370   13.5310   21.4580 N.3    55  LEU55      -0.1231
      2  CA        14.6720   14.4240   20.4440 C.3    55  LEU55       0.1693
      3  C         13.5370   15.3050   19.9790 C.2    55  LEU55       0.2592
      4  O         12.6230   14.8280   19.3330 O.2    55  LEU55      -0.2718
      5  CB        15.2540   13.6050   19.3030 C.3    55  LEU55       0.0284
      6  CG        16.3910   12.6680   19.7290 C.3    55  LEU55       0.0019
      7  CD1       16.8640   11.8010   18.5630 C.3    55  LEU55       0.0001
      8  CD2       17.5480   13.4560   20.3200 C.3    55  LEU55       0.0001
      9  N         13.5820   16.5820   20.3540 N.am   56  GLY56      -0.1957
     10  CA        12.4930   17.5130   20.0940 C.3    56  GLY56       0.1869
     11  C         11.5820   17.6600   21.2960 C.2    56  GLY56       0.2309
     12  O         10.9900   16.6880   21.7420 O.2    56  GLY56      -0.2863
     13  N          9.4720   20.9830   21.8590 N.3    58  TYR58      -0.1241
     14  CA         8.3390   21.8700   21.5390 C.3    58  TYR58       0.1605
     15  C          7.7740   22.4930   22.8140 C.2    58  TYR58       0.2264
     16  O          8.5270   23.0990   23.5640 O.2    58  TYR58      -0.2867
     17  CB         7.2670   21.1580   20.6980 C.3    58  TYR58       0.0534
     18  CG         7.8510   20.5100   19.4670 C.ar   58  TYR58      -0.0201
     19  CD1        8.1500   21.2570   18.3260 C.ar   58  TYR58      -0.0009
     20  CD2        8.1580   19.1580   19.4670 C.ar   58  TYR58      -0.0009
     21  CE1        8.7140   20.6560   17.2140 C.ar   58  TYR58       0.0417
     22  CE2        8.7230   18.5520   18.3670 C.ar   58  TYR58       0.0417
     23  CZ         8.9960   19.2980   17.2510 C.ar   58  TYR58       0.1957
     24  OH         9.5560   18.6580   16.1910 O.3    58  TYR58      -0.2866
     25  N         16.4430   16.8930   24.2260 N.3    79  MET79      -0.1230
     26  CA        17.1750   17.8190   23.3650 C.3    79  MET79       0.1702
     27  C         16.1970   18.6470   22.5620 C.2    79  MET79       0.2592
     28  O         15.1980   18.1450   22.0370 O.2    79  MET79      -0.2718
     29  CB        18.1150   17.0950   22.4010 C.3    79  MET79       0.0401
     30  CG        19.2030   16.2910   23.0800 C.3    79  MET79       0.0596
     31  SD        20.1440   15.3510   21.8730 S.3    79  MET79      -0.1393
     32  CE        21.3970   14.5980   22.9070 C.3    79  MET79       0.0692
     33  N         16.5120   19.9270   22.4530 N.am   80  GLU80      -0.1966
     34  CA        15.6630   20.8670   21.7480 C.3    80  GLU80       0.1733
     35  C         16.5350   21.9480   21.1500 C.2    80  GLU80       0.2616
     36  O         17.3290   22.5710   21.8530 O.2    80  GLU80      -0.2715
     37  CB        14.6600   21.4610   22.7220 C.3    80  GLU80       0.0429
     38  CG        13.8810   22.6610   22.2170 C.3    80  GLU80       0.1163
     39  CD        13.1060   22.4080   20.9430 C.2    80  GLU80       0.3649
     40  OE1       12.2370   21.5040   20.9290 O.co2  80  GLU80      -0.2457
     41  OE2       13.3480   23.1510   19.9630 O.co2  80  GLU80      -0.2457
     42  N         16.3820   22.1670   19.8530 N.am   81  ILE81      -0.1977
     43  CA        17.2400   23.0930   19.1220 C.3    81  ILE81       0.1596
     44  C         16.8720   24.5650   19.3900 C.2    81  ILE81       0.2287
     45  O         17.7380   25.4420   19.3940 O.2    81  ILE81      -0.2864
     46  CB        17.2630   22.7400   17.6000 C.3    81  ILE81       0.0276
     47  CG1       18.5050   23.3260   16.9240 C.3    81  ILE81       0.0022
     48  CG2       15.9760   23.1440   16.8830 C.3    81  ILE81       0.0022
     49  CD1       18.7150   22.8580   15.4990 C.3    81  ILE81       0.0001
     50  N         11.6290   27.2340   22.7400 N.3    85  TYR85      -0.1241
     51  CA        10.8900   26.0100   23.0920 C.3    85  TYR85       0.1605
     52  C         11.4230   25.3160   24.3430 C.2    85  TYR85       0.2264
     53  O         10.6600   24.7400   25.1170 O.2    85  TYR85      -0.2867
     54  CB        10.9100   25.0010   21.9410 C.3    85  TYR85       0.0534
     55  CG        10.1060   25.3660   20.7030 C.ar   85  TYR85      -0.0201
     56  CD1        9.2450   26.4580   20.6790 C.ar   85  TYR85      -0.0009
     57  CD2       10.1970   24.5870   19.5580 C.ar   85  TYR85      -0.0009
     58  CE1        8.5130   26.7710   19.5420 C.ar   85  TYR85       0.0417
     59  CE2        9.4630   24.8830   18.4190 C.ar   85  TYR85       0.0417
     60  CZ         8.6240   25.9760   18.4150 C.ar   85  TYR85       0.1957
     61  OH         7.8940   26.2790   17.2860 O.3    85  TYR85      -0.2866
     62  N         20.3310   22.4600   21.8210 N.3   107  GLY107     -0.1210
     63  CA        21.2210   22.3490   20.6840 C.3   107  GLY107      0.1956
     64  C         20.7160   21.3430   19.6850 C.2   107  GLY107      0.2612
     65  O         19.6550   20.7700   19.8590 O.2   107  GLY107     -0.2717
     66  N         21.5020   21.1260   18.6400 N.am  108  ALA108     -0.1965
     67  CA        21.1580   20.1900   17.5730 C.3   108  ALA108      0.1728
     68  C         21.5520   18.7680   17.9510 C.2   108  ALA108      0.2617
     69  O         22.6410   18.5340   18.4790 O.2   108  ALA108     -0.2715
     70  CB        21.8590   20.6010   16.2970 C.3   108  ALA108      0.0334
     71  N         20.6720   17.8190   17.6580 N.am  109  SER109     -0.1936
     72  CA        20.9180   16.4180   17.9750 C.3   109  SER109      0.2055
     73  C         22.2700   15.9150   17.4520 C.2   109  SER109      0.2642
     74  O         23.0030   15.2420   18.1740 O.2   109  SER109     -0.2714
     75  CB        19.7740   15.5400   17.4530 C.3   109  SER109      0.2130
     76  OG        19.5840   15.6980   16.0570 O.3   109  SER109     -0.2179
     77  N         22.6210   16.2460   16.2120 N.am  110  GLN110     -0.1976
     78  CA        23.8680   15.7230   15.6600 C.3   110  GLN110      0.1601
     79  C         25.1020   16.2400   16.3850 C.2   110  GLN110      0.2287
     80  O         26.1390   15.6050   16.3510 O.2   110  GLN110     -0.2864
     81  CB        23.9890   15.9730   14.1580 C.3   110  GLN110      0.0394
     82  CG        24.2030   17.4170   13.7470 C.3   110  GLN110      0.0908
     83  CD        22.9170   18.2020   13.5810 C.2   110  GLN110      0.2608
     84  OE1       21.8460   17.7910   14.0120 O.2   110  GLN110     -0.2717
     85  NE2       23.0280   19.3540   12.9540 N.am  110  GLN110     -0.0878
     86  N         11.8090   15.0960   16.2050 N.3   132  HIS132     -0.1226
     87  CA        12.4950   16.3220   15.8380 C.3   132  HIS132      0.1752
     88  C         12.3960   16.4650   14.3560 C.2   132  HIS132      0.2596
     89  O         11.2870   16.4000   13.8270 O.2   132  HIS132     -0.2718
     90  CB        13.9360   16.3620   16.3790 C.3   132  HIS132      0.0759
     91  CG        14.8460   15.2270   15.9170 C.ar  132  HIS132      0.0818
     92  ND1       14.4390   13.9390   15.7720 N.ar  132  HIS132     -0.2268
     93  CD2       16.2030   15.2320   15.6340 C.ar  132  HIS132      0.1154
     94  CE1       15.4790   13.1810   15.3910 C.ar  132  HIS132      0.1986
     95  NE2       16.5570   13.9660   15.3150 N.ar  132  HIS132     -0.2212
     96  N         13.5040   16.6620   13.6490 N.am  133  TRP133     -0.1976
     97  CA        13.4320   16.6960   12.2010 C.3   133  TRP133      0.1640
     98  C         13.4550   15.3280   11.6210 C.2   133  TRP133      0.2290
     99  O         14.1920   14.4320   11.9890 O.2   133  TRP133     -0.2864
    100  CB        14.5210   17.5310   11.5510 C.3   133  TRP133      0.0576
    101  CG        14.5700   18.9550   12.0280 C.ar  133  TRP133      0.0006
    102  CD1       13.5580   19.6940   12.6310 C.ar  133  TRP133      0.0946
    103  CD2       15.6970   19.8520   11.9470 C.ar  133  TRP133      0.0152
    104  NE1       13.9860   20.9450   12.9340 N.ar  133  TRP133     -0.2442
    105  CE2       15.2600   21.1110   12.5440 C.ar  133  TRP133      0.0810
    106  CE3       16.9890   19.7450   11.4660 C.ar  133  TRP133      0.0012
    107  CZ2       16.1000   22.1980   12.6510 C.ar  133  TRP133      0.0191
    108  CZ3       17.8290   20.8570   11.5700 C.ar  133  TRP133      0.0001
    109  CH2       17.3930   22.0510   12.1520 C.ar  133  TRP133      0.0015
    110  N         16.5080   13.9070   10.0370 N.3   136  ARG136     -0.1245
    111  CA        17.4790   13.4080   11.0110 C.3   136  ARG136      0.1563
    112  C         17.1440   12.0550   11.6220 C.2   136  ARG136      0.2260
    113  O         17.9520   11.5180   12.3580 O.2   136  ARG136     -0.2867
    114  CB        17.6560   14.3850   12.1760 C.3   136  ARG136      0.0307
    115  CG        18.2620   15.7400   11.8420 C.3   136  ARG136      0.0489
    116  CD        19.6770   15.6700   11.3110 C.3   136  ARG136      0.2205
    117  NE        20.5450   14.8100   12.1080 N.pl3 136  ARG136     -0.0865
    118  CZ        21.7510   14.3920   11.7090 C.cat 136  ARG136      0.5346
    119  NH1       22.4710   13.5810   12.4860 N.pl3 136  ARG136      0.1354
    120  NH2       22.2490   14.7700   10.5290 N.pl3 136  ARG136      0.1354
@<TRIPOS>BOND
     1   110   111    1
     2   120   118    1
     3   111   112    1
     4   111   114    1
     5   116   115    1
     6   116   117    1
     7   106   108   ar
     8   106   103   ar
     9   100   101    1
    10   100    97    1
    11   108   109   ar
    12    98    99    2
    13    98    97    1
    14   112   113    2
    15   118   117    2
    16   118   119    1
    17   115   114    1
    18   103   101   ar
    19   103   105   ar
    20   101   102   ar
    21   109   107   ar
    22    97    96    1
    23   105   107   ar
    24   105   104   ar
    25   102   104   ar
    26    85    83   am
    27    83    82    1
    28    83    84    2
    29    96    88   am
    30    82    81    1
    31    89    88    2
    32    81    78    1
    33    88    87    1
    34    95    94   ar
    35    95    93   ar
    36    94    92   ar
    37    49    47    1
    38    93    91   ar
    39    78    77    1
    40    78    79    1
    41    92    91   ar
    42    87    86    1
    43    87    90    1
    44    91    90    1
    45    76    75    1
    46    24    23    1
    47    77    73   am
    48    70    67    1
    49    80    79    2
    50    48    46    1
    51    47    46    1
    52    21    23   ar
    53    21    19   ar
    54    23    22   ar
    55    61    60    1
    56    73    72    1
    57    73    74    2
    58    75    72    1
    59    67    68    1
    60    67    66    1
    61    46    43    1
    62    71    68   am
    63    71    72    1
    64    68    69    2
    65    19    18   ar
    66    22    20   ar
    67    60    59   ar
    68    60    58   ar
    69    59    57   ar
    70     7     6    1
    71    66    64   am
    72    43    44    1
    73    43    42    1
    74     5     6    1
    75     5     2    1
    76     4     3    2
    77    44    45    2
    78    20    18   ar
    79    18    17    1
    80    58    56   ar
    81    57    55   ar
    82    64    65    2
    83    64    63    1
    84     6     8    1
    85    42    35   am
    86    41    39   ar
    87     3     9   am
    88     3     2    1
    89    10     9    1
    90    10    11    1
    91     2     1    1
    92    56    55   ar
    93    63    62    1
    94    17    14    1
    95    55    54    1
    96    40    39   ar
    97    39    38    1
    98    35    34    1
    99    35    36    2
   100    11    12    2
   101    14    13    1
   102    14    15    1
   103    34    33    1
   104    34    37    1
   105    31    32    1
   106    31    30    1
   107    54    51    1
   108    28    27    2
   109    38    37    1
   110    29    30    1
   111    29    26    1
   112    33    27   am
   113    27    26    1
   114    50    51    1
   115    15    16    2
   116    51    52    1
   117    26    25    1
   118    52    53    2
