@<TRIPOS>MOLECULE
tmp/4p5bB03.pdb
 112 114 0 0 0
SMALL
GASTEIGER

@<TRIPOS>ATOM
      1  N        -42.1940    0.9190   23.3050 N.3    82  ARG82      -0.1231
      2  CA       -41.3800    1.1250   22.1150 C.3    82  ARG82       0.1694
      3  C        -40.0760    1.7620   22.4840 C.2    82  ARG82       0.2592
      4  O        -39.2240    1.8000   21.6690 O.2    82  ARG82      -0.2718
      5  CB       -42.0900    1.9830   21.0430 C.3    82  ARG82       0.0321
      6  CG       -43.3410    1.2880   20.4650 C.3    82  ARG82       0.0489
      7  CD       -42.9340   -0.1000   19.8990 C.3    82  ARG82       0.2205
      8  NE       -41.9640    0.1130   18.8160 N.pl3  82  ARG82      -0.0865
      9  CZ       -42.3100    0.2910   17.5310 C.cat  82  ARG82       0.5346
     10  NH1      -41.3500    0.4980   16.6460 N.pl3  82  ARG82       0.1354
     11  NH2      -43.5940    0.2140   17.1250 N.pl3  82  ARG82       0.1354
     12  N        -39.9030    2.2690   23.7190 N.am   83  HIS83      -0.1962
     13  CA       -38.6890    3.0380   24.0500 C.3    83  HIS83       0.1787
     14  C        -37.6600    2.0620   24.6210 C.2    83  HIS83       0.2620
     15  O        -37.6970    1.6790   25.8110 O.2    83  HIS83      -0.2715
     16  CB       -39.0280    4.1750   25.0250 C.3    83  HIS83       0.0785
     17  CG       -39.9630    5.1670   24.4130 C.ar   83  HIS83       0.0821
     18  ND1      -39.5200    6.2680   23.7230 N.ar   83  HIS83      -0.2267
     19  CD2      -41.3070    5.1650   24.2970 C.ar   83  HIS83       0.1154
     20  CE1      -40.5500    6.8980   23.1940 C.ar   83  HIS83       0.1986
     21  NE2      -41.6480    6.2510   23.5310 N.ar   83  HIS83      -0.2212
     22  N        -36.7160    1.7070   23.7590 N.am   84  ARG84      -0.1963
     23  CA       -35.8740    0.5820   23.9750 C.3    84  ARG84       0.1729
     24  C        -34.7420    0.7770   24.9880 C.2    84  ARG84       0.2617
     25  O        -34.0770   -0.1710   25.2640 O.2    84  ARG84      -0.2715
     26  CB       -35.3050    0.0570   22.6400 C.3    84  ARG84       0.0348
     27  CG       -36.3440   -0.3360   21.6490 C.3    84  ARG84       0.0492
     28  CD       -35.6980   -0.5320   20.2660 C.3    84  ARG84       0.2205
     29  NE       -35.3120    0.7530   19.7420 N.pl3  84  ARG84      -0.0865
     30  CZ       -34.7680    0.9920   18.5490 C.cat  84  ARG84       0.5346
     31  NH1      -34.4360   -0.0370   17.7230 N.pl3  84  ARG84       0.1354
     32  NH2      -34.5230    2.2900   18.2010 N.pl3  84  ARG84       0.1354
     33  N        -34.4850    1.9810   25.4770 N.am   85  THR85      -0.1937
     34  CA       -33.4120    2.1510   26.4980 C.3    85  THR85       0.2028
     35  C        -34.0020    2.0340   27.9100 C.2    85  THR85       0.2642
     36  O        -33.2400    2.0800   28.8780 O.2    85  THR85      -0.2714
     37  CB       -32.6570    3.4970   26.3780 C.3    85  THR85       0.1808
     38  OG1      -33.6280    4.5630   26.3610 O.3    85  THR85      -0.2208
     39  CG2      -31.8260    3.5720   25.0350 C.3    85  THR85       0.0379
     40  N        -35.3250    1.8580   28.0300 N.am   86  TRP86      -0.1973
     41  CA       -35.9880    1.6970   29.3220 C.3    86  TRP86       0.1640
     42  C        -35.9740    0.2270   29.7350 C.2    86  TRP86       0.2290
     43  O        -35.6680   -0.6150   28.9060 O.2    86  TRP86      -0.2864
     44  CB       -37.4370    2.1110   29.2250 C.3    86  TRP86       0.0576
     45  CG       -37.6190    3.5830   29.0850 C.ar   86  TRP86       0.0006
     46  CD1      -37.0970    4.4110   28.1130 C.ar   86  TRP86       0.0946
     47  CD2      -38.4410    4.3880   29.8960 C.ar   86  TRP86       0.0152
     48  NE1      -37.5340    5.6900   28.2920 N.ar   86  TRP86      -0.2442
     49  CE2      -38.3890    5.6970   29.3750 C.ar   86  TRP86       0.0810
     50  CE3      -39.1760    4.1470   31.0520 C.ar   86  TRP86       0.0012
     51  CZ2      -39.0390    6.7530   29.9860 C.ar   86  TRP86       0.0191
     52  CZ3      -39.8080    5.2020   31.6730 C.ar   86  TRP86       0.0001
     53  CH2      -39.7800    6.4910   31.1030 C.ar   86  TRP86       0.0015
     54  N        -52.5460   11.4980   12.8680 N.3   117  PRO117     -0.2116
     55  CA       -51.4630   12.1900   13.6340 C.3   117  PRO117      0.1372
     56  C        -50.3990   12.8880   12.7600 C.2   117  PRO117      0.2244
     57  O        -49.7670   12.2440   11.9080 O.2   117  PRO117     -0.2868
     58  CB       -50.7890   11.0680   14.4300 C.3   117  PRO117      0.0268
     59  CG       -51.6850    9.9110   14.3460 C.3   117  PRO117      0.0207
     60  CD       -52.6810   10.0830   13.2320 C.3   117  PRO117      0.0892
     61  N        -35.5530   12.0160   25.9900 N.3   184  HIS184     -0.1241
     62  CA       -35.8830   11.5250   24.6630 C.3   184  HIS184      0.1621
     63  C        -37.4170   11.1120   24.5750 C.2   184  HIS184      0.2264
     64  O        -38.1620   11.5260   23.6990 O.2   184  HIS184     -0.2867
     65  CB       -34.9020   10.4310   24.2580 C.3   184  HIS184      0.0745
     66  CG       -35.2380    9.7940   22.9460 C.ar  184  HIS184      0.0817
     67  ND1      -34.9700   10.3920   21.7350 N.ar  184  HIS184     -0.2268
     68  CD2      -35.8800    8.6420   22.6540 C.ar  184  HIS184      0.1154
     69  CE1      -35.4370    9.6440   20.7550 C.ar  184  HIS184      0.1986
     70  NE2      -35.9890    8.5710   21.2860 N.ar  184  HIS184     -0.2212
     71  N        -40.8500   12.9650   22.3640 N.3   188  LEU188     -0.1231
     72  CA       -41.7360   12.2900   21.4390 C.3   188  LEU188      0.1693
     73  C        -43.1260   12.1220   22.0350 C.2   188  LEU188      0.2591
     74  O        -44.1040   12.0110   21.2910 O.2   188  LEU188     -0.2718
     75  CB       -41.1850   10.8780   21.0670 C.3   188  LEU188      0.0284
     76  CG       -39.8780   10.8040   20.2580 C.3   188  LEU188      0.0019
     77  CD1      -39.2680    9.4360   20.3040 C.3   188  LEU188      0.0001
     78  CD2      -40.1450   11.1210   18.8200 C.3   188  LEU188      0.0001
     79  N        -43.2480   12.0580   23.3630 N.am  189  ARG189     -0.1980
     80  CA       -44.5170   11.6740   23.9210 C.3   189  ARG189      0.1597
     81  C        -45.2570   12.8220   24.5590 C.2   189  ARG189      0.2287
     82  O        -46.2850   12.5940   25.2270 O.2   189  ARG189     -0.2864
     83  CB       -44.4050   10.4400   24.9230 C.3   189  ARG189      0.0334
     84  CG       -43.7840    9.1630   24.2940 C.3   189  ARG189      0.0492
     85  CD       -44.5240    8.7630   22.9730 C.3   189  ARG189      0.2205
     86  NE       -44.1300    7.4280   22.5450 N.pl3 189  ARG189     -0.0865
     87  CZ       -44.7070    6.7000   21.5980 C.cat 189  ARG189      0.5346
     88  NH1      -45.7810    7.1690   20.9350 N.pl3 189  ARG189      0.1354
     89  NH2      -44.2050    5.4600   21.3620 N.pl3 189  ARG189      0.1354
     90  N        -44.1440   16.7920   18.2820 N.3   199  SER199     -0.1202
     91  CA       -44.5670   15.4140   18.1590 C.3   199  SER199      0.2020
     92  C        -46.0550   15.3110   18.3030 C.2   199  SER199      0.2619
     93  O        -46.6610   16.1690   18.9430 O.2   199  SER199     -0.2717
     94  CB       -43.8760   14.6340   19.2650 C.3   199  SER199      0.2103
     95  OG       -43.6770   13.3200   18.8170 O.3   199  SER199     -0.2182
     96  N        -46.6540   14.2480   17.7380 N.am  200  HIS200     -0.1961
     97  CA       -48.1210   14.0230   17.8830 C.3   200  HIS200      0.1772
     98  C        -48.5450   12.6960   18.5310 C.2   200  HIS200      0.2462
     99  O        -49.1300   11.8420   17.8700 O.2   200  HIS200     -0.2730
    100  CB       -48.8640   14.2510   16.5660 C.3   200  HIS200      0.0785
    101  CG       -48.5390   15.5650   15.9340 C.ar  200  HIS200      0.0821
    102  ND1      -49.3530   16.6770   16.0630 N.ar  200  HIS200     -0.2267
    103  CD2      -47.4720   15.9540   15.1820 C.ar  200  HIS200      0.1154
    104  CE1      -48.7940   17.6960   15.4270 C.ar  200  HIS200      0.1986
    105  NE2      -47.6680   17.2810   14.8670 N.ar  200  HIS200     -0.2212
    106  N        -48.2610   12.5180   19.8140 N.am  201  PRO201     -0.2727
    107  CA       -48.6140   11.2340   20.4450 C.3   201  PRO201      0.1402
    108  C        -50.0730   11.1960   20.7940 C.2   201  PRO201      0.2269
    109  O        -50.6650   12.2440   21.0150 O.2   201  PRO201     -0.2865
    110  CB       -47.8790   11.2610   21.8050 C.3   201  PRO201      0.0296
    111  CG       -47.6420   12.8380   22.0830 C.3   201  PRO201      0.0237
    112  CD       -47.4620   13.4170   20.6810 C.3   201  PRO201      0.0939
@<TRIPOS>BOND
     1    57    56    2
     2    56    55    1
     3    54    60    1
     4    54    55    1
     5    60    59    1
     6    55    58    1
     7    59    58    1
     8   105   103   ar
     9   105   104   ar
    10   103   101   ar
    11   104   102   ar
    12   101   102   ar
    13   101   100    1
    14   100    97    1
    15    10     9    1
    16    11     9    1
    17     9     8    2
    18    31    30    1
    19    96    97    1
    20    96    92   am
    21    99    98    2
    22    97    98    1
    23    91    90    1
    24    91    92    1
    25    91    94    1
    26    32    30    1
    27    92    93    2
    28    98   106   am
    29    30    29    2
    30     8     7    1
    31    95    94    1
    32    78    76    1
    33    29    28    1
    34   106   107    1
    35   106   112    1
    36     7     6    1
    37    76    77    1
    38    76    75    1
    39    28    27    1
    40   107   108    1
    41   107   110    1
    42     6     5    1
    43   112   111    1
    44    69    70   ar
    45    69    67   ar
    46   108   109    2
    47    88    87    1
    48     5     2    1
    49    75    72    1
    50    70    68   ar
    51    74    73    2
    52    89    87    1
    53    72    73    1
    54    72    71    1
    55    87    86    2
    56    27    26    1
    57     4     3    2
    58    67    66   ar
    59   110   111    1
    60    73    79   am
    61     2     3    1
    62     2     1    1
    63     3    12   am
    64    86    85    1
    65    26    23    1
    66    68    66   ar
    67    66    65    1
    68    85    84    1
    69    20    21   ar
    70    20    18   ar
    71    79    80    1
    72    21    19   ar
    73    64    63    2
    74    12    13    1
    75    18    17   ar
    76    22    23    1
    77    22    14   am
    78    80    81    1
    79    80    83    1
    80    23    24    1
    81    13    14    1
    82    13    16    1
    83    65    62    1
    84    84    83    1
    85    19    17   ar
    86    17    16    1
    87    81    82    2
    88    63    62    1
    89    14    15    2
    90    62    61    1
    91    24    25    2
    92    24    33   am
    93    39    37    1
    94    33    34    1
    95    38    37    1
    96    37    34    1
    97    34    35    1
    98    35    40   am
    99    35    36    2
   100    40    41    1
   101    46    48   ar
   102    46    45   ar
   103    48    49   ar
   104    43    42    2
   105    45    44    1
   106    45    47   ar
   107    44    41    1
   108    41    42    1
   109    49    47   ar
   110    49    51   ar
   111    47    50   ar
   112    51    53   ar
   113    50    52   ar
   114    53    52   ar
