@<TRIPOS>MOLECULE
tmp/4p5bB00.pdb
 103 103 0 0 0
SMALL
GASTEIGER

@<TRIPOS>ATOM
      1  N        -43.6610    1.0650   25.6300 N.3    81  MET81      -0.1245
      2  CA       -42.7120   -0.0020   25.5050 C.3    81  MET81       0.1570
      3  C        -41.8660    0.0250   24.2530 C.2    81  MET81       0.2261
      4  O        -40.9240   -0.7390   24.1650 O.2    81  MET81      -0.2867
      5  CB       -43.3610   -1.3760   25.7760 C.3    81  MET81       0.0387
      6  CG       -43.7690   -1.5340   27.3030 C.3    81  MET81       0.0595
      7  SD       -43.7790   -3.2880   27.8150 S.3    81  MET81      -0.1393
      8  CE       -44.4380   -3.1000   29.4000 C.3    81  MET81       0.0692
      9  N        -36.7160    1.7070   23.7590 N.3    84  ARG84      -0.1231
     10  CA       -35.8740    0.5820   23.9750 C.3    84  ARG84       0.1694
     11  C        -34.7420    0.7770   24.9880 C.2    84  ARG84       0.2593
     12  O        -34.0770   -0.1710   25.2640 O.2    84  ARG84      -0.2718
     13  CB       -35.3050    0.0570   22.6400 C.3    84  ARG84       0.0321
     14  CG       -36.3440   -0.3360   21.6490 C.3    84  ARG84       0.0489
     15  CD       -35.6980   -0.5320   20.2660 C.3    84  ARG84       0.2205
     16  NE       -35.3120    0.7530   19.7420 N.pl3  84  ARG84      -0.0865
     17  CZ       -34.7680    0.9920   18.5490 C.cat  84  ARG84       0.5346
     18  NH1      -34.4360   -0.0370   17.7230 N.pl3  84  ARG84       0.1354
     19  NH2      -34.5230    2.2900   18.2010 N.pl3  84  ARG84       0.1354
     20  N        -34.4850    1.9810   25.4770 N.am   85  THR85      -0.1939
     21  CA       -33.4120    2.1510   26.4980 C.3    85  THR85       0.2028
     22  C        -34.0020    2.0340   27.9100 C.2    85  THR85       0.2642
     23  O        -33.2400    2.0800   28.8780 O.2    85  THR85      -0.2714
     24  CB       -32.6570    3.4970   26.3780 C.3    85  THR85       0.1808
     25  OG1      -33.6280    4.5630   26.3610 O.3    85  THR85      -0.2208
     26  CG2      -31.8260    3.5720   25.0350 C.3    85  THR85       0.0379
     27  N        -35.3250    1.8580   28.0300 N.am   86  TRP86      -0.1959
     28  CA       -35.9880    1.6970   29.3220 C.3    86  TRP86       0.1771
     29  C        -35.9740    0.2270   29.7350 C.2    86  TRP86       0.2620
     30  O        -35.6680   -0.6150   28.9060 O.2    86  TRP86      -0.2715
     31  CB       -37.4370    2.1110   29.2250 C.3    86  TRP86       0.0590
     32  CG       -37.6190    3.5830   29.0850 C.ar   86  TRP86       0.0006
     33  CD1      -37.0970    4.4110   28.1130 C.ar   86  TRP86       0.0946
     34  CD2      -38.4410    4.3880   29.8960 C.ar   86  TRP86       0.0152
     35  NE1      -37.5340    5.6900   28.2920 N.ar   86  TRP86      -0.2442
     36  CE2      -38.3890    5.6970   29.3750 C.ar   86  TRP86       0.0810
     37  CE3      -39.1760    4.1470   31.0520 C.ar   86  TRP86       0.0012
     38  CZ2      -39.0390    6.7530   29.9860 C.ar   86  TRP86       0.0191
     39  CZ3      -39.8080    5.2020   31.6730 C.ar   86  TRP86       0.0001
     40  CH2      -39.7800    6.4910   31.1030 C.ar   86  TRP86       0.0015
     41  N        -36.2210   -0.0730   31.0040 N.am   87  SER87      -0.1936
     42  CA       -36.4540   -1.4440   31.4120 C.3    87  SER87       0.2055
     43  C        -37.8840   -1.5580   31.8890 C.2    87  SER87       0.2643
     44  O        -38.3960   -0.6380   32.5210 O.2    87  SER87      -0.2714
     45  CB       -35.5430   -1.8320   32.5510 C.3    87  SER87       0.2130
     46  OG       -34.1930   -1.4350   32.2620 O.3    87  SER87      -0.2179
     47  N        -38.5290   -2.6750   31.5990 N.am   88  PHE88      -0.1959
     48  CA       -39.9150   -2.8190   31.9210 C.3    88  PHE88       0.1771
     49  C        -40.1830   -4.1690   32.5500 C.2    88  PHE88       0.2620
     50  O        -39.5950   -5.1590   32.1400 O.2    88  PHE88      -0.2715
     51  CB       -40.8150   -2.7020   30.6850 C.3    88  PHE88       0.0574
     52  CG       -40.6600   -1.4290   29.9050 C.ar   88  PHE88      -0.0200
     53  CD1      -41.1800   -0.1980   30.3900 C.ar   88  PHE88      -0.0042
     54  CD2      -39.9780   -1.4320   28.6990 C.ar   88  PHE88      -0.0042
     55  CE1      -41.0250    0.9870   29.6580 C.ar   88  PHE88      -0.0003
     56  CE2      -39.8530   -0.2570   27.9200 C.ar   88  PHE88      -0.0003
     57  CZ       -40.3740    0.9450   28.4010 C.ar   88  PHE88      -0.0000
     58  N        -41.1190   -4.1960   33.4690 N.am   89  ASN89      -0.1958
     59  CA       -41.6870   -5.4350   33.9670 C.3    89  ASN89       0.1819
     60  C        -43.1770   -5.2360   34.1720 C.2    89  ASN89       0.2621
     61  O        -43.5930   -4.3520   34.9400 O.2    89  ASN89      -0.2715
     62  CB       -41.0260   -5.8150   35.2960 C.3    89  ASN89       0.1195
     63  CG       -39.9470   -6.7720   35.0890 C.2    89  ASN89       0.2630
     64  OD1      -40.2540   -7.9340   34.8430 O.2    89  ASN89      -0.2716
     65  ND2      -38.6610   -6.3130   35.0750 N.am   89  ASN89      -0.0877
     66  N        -43.9640   -6.0570   33.4910 N.am   90  GLU90      -0.1977
     67  CA       -45.3610   -5.8420   33.3600 C.3    90  GLU90       0.1602
     68  C        -46.0890   -7.0340   33.9210 C.2    90  GLU90       0.2287
     69  O        -45.5870   -8.1580   33.9340 O.2    90  GLU90      -0.2864
     70  CB       -45.7350   -5.6550   31.8580 C.3    90  GLU90       0.0415
     71  CG       -47.2330   -5.3410   31.5980 C.3    90  GLU90       0.1163
     72  CD       -47.5520   -5.0720   30.1400 C.2    90  GLU90       0.3649
     73  OE1      -46.6090   -5.0970   29.2670 O.co2  90  GLU90      -0.2457
     74  OE2      -48.7550   -4.8410   29.8460 O.co2  90  GLU90      -0.2457
     75  N        -48.5620  -10.0730   33.8240 N.3    92  SER92      -0.1217
     76  CA       -48.7100  -11.0450   32.7440 C.3    92  SER92       0.1889
     77  C        -50.0290  -11.6940   32.8150 C.2    92  SER92       0.2288
     78  O        -50.4570  -12.2050   33.8650 O.2    92  SER92      -0.2866
     79  CB       -47.6500  -12.1390   32.7980 C.3    92  SER92       0.2089
     80  OG       -47.9820  -13.3140   32.0230 O.3    92  SER92      -0.2183
     81  N        -50.6230  -14.2080   30.8940 N.3    94  ARG94      -0.1231
     82  CA       -50.3810  -15.6500   30.8200 C.3    94  ARG94       0.1694
     83  C        -50.3500  -16.3230   32.2130 C.2    94  ARG94       0.2592
     84  O        -50.6550  -17.5560   32.3460 O.2    94  ARG94      -0.2718
     85  CB       -49.0280  -16.0120   30.1520 C.3    94  ARG94       0.0321
     86  CG       -48.8590  -15.5720   28.6810 C.3    94  ARG94       0.0489
     87  CD       -47.4830  -15.9740   28.2010 C.3    94  ARG94       0.2205
     88  NE       -47.3730  -17.4400   28.0100 N.pl3  94  ARG94      -0.0865
     89  CZ       -46.2290  -18.1450   28.1550 C.cat  94  ARG94       0.5346
     90  NH1      -45.0950  -17.5400   28.5180 N.pl3  94  ARG94       0.1354
     91  NH2      -46.2140  -19.4770   27.9920 N.pl3  94  ARG94       0.1354
     92  N        -49.9030  -15.5530   33.2010 N.am   95  TYR95      -0.1976
     93  CA       -49.6510  -16.0320   34.5840 C.3    95  TYR95       0.1639
     94  C        -50.8030  -15.7020   35.5020 C.2    95  TYR95       0.2290
     95  O        -50.9940  -16.3820   36.4890 O.2    95  TYR95      -0.2864
     96  CB       -48.3620  -15.4350   35.2100 C.3    95  TYR95       0.0560
     97  CG       -47.0830  -16.0380   34.6660 C.ar   95  TYR95      -0.0198
     98  CD1      -46.1970  -16.7390   35.4890 C.ar   95  TYR95      -0.0009
     99  CD2      -46.7630  -15.9520   33.3100 C.ar   95  TYR95      -0.0009
    100  CE1      -45.0040  -17.3290   34.9640 C.ar   95  TYR95       0.0417
    101  CE2      -45.5770  -16.5380   32.7830 C.ar   95  TYR95       0.0417
    102  CZ       -44.7130  -17.2110   33.6100 C.ar   95  TYR95       0.1957
    103  OH       -43.5700  -17.7770   33.0630 O.3    95  TYR95      -0.2866
@<TRIPOS>BOND
     1    18    17    1
     2    19    17    1
     3    17    16    2
     4    16    15    1
     5    15    14    1
     6    14    13    1
     7    13    10    1
     8     9    10    1
     9    10    11    1
    10     4     3    2
    11     3     2    1
    12    11    12    2
    13    11    20   am
    14    26    24    1
    15    20    21    1
    16     2     1    1
    17     2     5    1
    18     5     6    1
    19    25    24    1
    20    24    21    1
    21    21    22    1
    22     6     7    1
    23     7     8    1
    24    22    27   am
    25    22    23    2
    26    56    57   ar
    27    56    54   ar
    28    91    89    1
    29    88    89    2
    30    88    87    1
    31    27    28    1
    32    33    35   ar
    33    33    32   ar
    34    89    90    1
    35    87    86    1
    36    35    36   ar
    37    57    55   ar
    38    86    85    1
    39    54    52   ar
    40    30    29    2
    41    32    31    1
    42    32    34   ar
    43    31    28    1
    44    73    72   ar
    45    28    29    1
    46    36    34   ar
    47    36    38   ar
    48    55    53   ar
    49    29    41   am
    50    74    72   ar
    51    34    37   ar
    52    52    53   ar
    53    52    51    1
    54    38    40   ar
    55    72    71    1
    56    85    82    1
    57    51    48    1
    58    82    81    1
    59    82    83    1
    60    41    42    1
    61    37    39   ar
    62    40    39   ar
    63    42    43    1
    64    42    45    1
    65    71    70    1
    66    47    43   am
    67    47    48    1
    68    70    67    1
    69    43    44    2
    70    48    49    1
    71    80    79    1
    72    50    49    2
    73    83    84    2
    74    83    92   am
    75    46    45    1
    76    49    58   am
    77    76    79    1
    78    76    77    1
    79    76    75    1
    80   101    99   ar
    81   101   102   ar
    82    77    78    2
    83   103   102    1
    84    92    93    1
    85    99    97   ar
    86    67    66    1
    87    67    68    1
    88    58    59    1
    89    66    60   am
    90   102   100   ar
    91    68    69    2
    92    59    60    1
    93    59    62    1
    94    60    61    2
    95    93    96    1
    96    93    94    1
    97    97    96    1
    98    97    98   ar
    99    64    63    2
   100   100    98   ar
   101    65    63   am
   102    63    62    1
   103    94    95    2
