@<TRIPOS>MOLECULE
tmp/4p5bB04.pdb
 107 102 0 0 0
SMALL
GASTEIGER

@<TRIPOS>ATOM
      1  N        -15.6280   15.6490   35.5160 N.3    28  VAL28      -0.1231
      2  CA       -14.5260   14.6950   35.3030 C.3    28  VAL28       0.1692
      3  C        -13.7830   14.8640   33.9540 C.2    28  VAL28       0.2592
      4  O        -12.5710   14.6640   33.9000 O.2    28  VAL28      -0.2718
      5  CB       -14.9860   13.2380   35.4480 C.3    28  VAL28       0.0266
      6  CG1      -15.5930   12.7570   34.1290 C.3    28  VAL28       0.0020
      7  CG2      -13.8440   12.3730   35.8220 C.3    28  VAL28       0.0020
      8  N        -14.4890   15.2510   32.8900 N.am   29  SER29      -0.1952
      9  CA       -13.8930   15.4270   31.5250 C.3    29  SER29       0.1924
     10  C        -12.8790   16.6000   31.3820 C.2    29  SER29       0.2314
     11  O        -11.8950   16.4800   30.6490 O.2    29  SER29      -0.2863
     12  CB       -15.0120   15.5210   30.4580 C.3    29  SER29       0.2116
     13  OG       -16.1300   14.6160   30.7320 O.3    29  SER29      -0.2180
     14  N        -25.9160   19.4070   23.2780 N.3    56  ARG56      -0.1231
     15  CA       -26.3190   17.9980   23.2130 C.3    56  ARG56       0.1694
     16  C        -25.2500   17.0420   23.7140 C.2    56  ARG56       0.2592
     17  O        -25.0870   15.9480   23.1600 O.2    56  ARG56      -0.2718
     18  CB       -26.7250   17.5720   21.7920 C.3    56  ARG56       0.0321
     19  CG       -27.9880   18.2130   21.1980 C.3    56  ARG56       0.0489
     20  CD       -28.1500   17.6770   19.7320 C.3    56  ARG56       0.2205
     21  NE       -26.8460   17.5810   19.0050 N.pl3  56  ARG56      -0.0865
     22  CZ       -26.6280   16.9600   17.8300 C.cat  56  ARG56       0.5346
     23  NH1      -27.6130   16.3700   17.1640 N.pl3  56  ARG56       0.1354
     24  NH2      -25.3930   16.9540   17.3060 N.pl3  56  ARG56       0.1354
     25  N        -24.5090   17.4350   24.7530 N.am   57  HIS57      -0.1962
     26  CA       -23.6470   16.4830   25.4360 C.3    57  HIS57       0.1787
     27  C        -24.5560   15.7280   26.4090 C.2    57  HIS57       0.2621
     28  O        -24.8380   16.1820   27.5170 O.2    57  HIS57      -0.2715
     29  CB       -22.4720   17.1610   26.1470 C.3    57  HIS57       0.0785
     30  CG       -21.4140   16.2110   26.6420 C.ar   57  HIS57       0.0821
     31  ND1      -20.9900   15.1090   25.9200 N.ar   57  HIS57      -0.2267
     32  CD2      -20.6640   16.2280   27.7730 C.ar   57  HIS57       0.1154
     33  CE1      -20.0450   14.4780   26.6020 C.ar   57  HIS57       0.1986
     34  NE2      -19.8240   15.1380   27.7270 N.ar   57  HIS57      -0.2212
     35  N        -25.0290   14.5770   25.9550 N.am   58  GLY58      -0.1940
     36  CA       -26.0570   13.8310   26.7080 C.3    58  GLY58       0.2014
     37  C        -25.6000   12.8110   27.7500 C.2    58  GLY58       0.2639
     38  O        -26.3260   12.5450   28.6520 O.2    58  GLY58      -0.2714
     39  N        -24.3900   12.2700   27.6210 N.am   59  SER59      -0.1949
     40  CA       -23.9300   11.1990   28.5120 C.3    59  SER59       0.1924
     41  C        -23.9360   11.5750   30.0100 C.2    59  SER59       0.2314
     42  O        -24.3820   10.7800   30.8190 O.2    59  SER59      -0.2863
     43  CB       -22.5650   10.7020   28.0170 C.3    59  SER59       0.2116
     44  OG       -21.8230   11.8230   27.5730 O.3    59  SER59      -0.2180
     45  N        -26.8830   10.5470   32.0120 N.3    62  GLU62      -0.1245
     46  CA       -27.2360    9.0920   32.1050 C.3    62  GLU62       0.1567
     47  C        -26.9920    8.4460   33.4990 C.2    62  GLU62       0.2260
     48  O        -27.4690    7.3440   33.7680 O.2    62  GLU62      -0.2867
     49  CB       -26.4730    8.2800   31.0240 C.3    62  GLU62       0.0388
     50  CG       -27.1270    8.4300   29.6080 C.3    62  GLU62       0.1160
     51  CD       -26.3120    7.7870   28.5450 C.2    62  GLU62       0.3649
     52  OE1      -25.4660    6.9490   28.9070 O.co2  62  GLU62      -0.2457
     53  OE2      -26.4930    8.0830   27.3570 O.co2  62  GLU62      -0.2457
     54  N        -34.4850    1.9810   25.4770 N.3    85  THR85      -0.1218
     55  CA       -33.4120    2.1510   26.4980 C.3    85  THR85       0.1862
     56  C        -34.0020    2.0340   27.9100 C.2    85  THR85       0.2287
     57  O        -33.2400    2.0800   28.8780 O.2    85  THR85      -0.2866
     58  CB       -32.6570    3.4970   26.3780 C.3    85  THR85       0.1770
     59  OG1      -33.6280    4.5630   26.3610 O.3    85  THR85      -0.2211
     60  CG2      -31.8260    3.5720   25.0350 C.3    85  THR85       0.0375
     61  N        -32.9860    6.2590   32.7670 N.3   178  ASN178     -0.1240
     62  CA       -32.2200    7.3490   33.2560 C.3   178  ASN178      0.1653
     63  C        -32.8190    8.6720   32.6660 C.2   178  ASN178      0.2266
     64  O        -33.7570    8.6120   31.8370 O.2   178  ASN178     -0.2867
     65  CB       -30.7450    7.1000   32.9170 C.3   178  ASN178      0.1155
     66  CG       -30.4380    7.1710   31.4520 C.2   178  ASN178      0.2627
     67  OD1      -30.8240    8.0840   30.7790 O.2   178  ASN178     -0.2716
     68  ND2      -29.6570    6.2390   30.9690 N.am  178  ASN178     -0.0877
     69  N        -31.6700   11.0220   30.5150 N.3   180  ARG180     -0.1231
     70  CA       -31.5500   11.1740   29.0980 C.3   180  ARG180      0.1694
     71  C        -32.6120   10.3640   28.3280 C.2   180  ARG180      0.2591
     72  O        -33.2150   10.8610   27.3650 O.2   180  ARG180     -0.2718
     73  CB       -30.1380   10.7370   28.6840 C.3   180  ARG180      0.0321
     74  CG       -29.7980   11.1320   27.2500 C.3   180  ARG180      0.0489
     75  CD       -28.5430   10.4620   26.7740 C.3   180  ARG180      0.2205
     76  NE       -28.2110   10.9400   25.4590 N.pl3 180  ARG180     -0.0865
     77  CZ       -27.0770   10.7030   24.8200 C.cat 180  ARG180      0.5346
     78  NH1      -26.8840   11.2220   23.6030 N.pl3 180  ARG180      0.1354
     79  NH2      -26.1470    9.9550   25.3810 N.pl3 180  ARG180      0.1354
     80  N        -32.8350    9.1100   28.7390 N.am  181  ALA181     -0.1980
     81  CA       -33.8680    8.2850   28.1220 C.3   181  ALA181      0.1597
     82  C        -35.2080    8.9700   28.4100 C.2   181  ALA181      0.2287
     83  O        -36.0580    9.0730   27.5060 O.2   181  ALA181     -0.2864
     84  CB       -33.8580    6.8490   28.6870 C.3   181  ALA181      0.0319
     85  N        -35.5530   12.0160   25.9900 N.3   184  HIS184     -0.1241
     86  CA       -35.8830   11.5250   24.6630 C.3   184  HIS184      0.1621
     87  C        -37.4170   11.1120   24.5750 C.2   184  HIS184      0.2264
     88  O        -38.1620   11.5260   23.6990 O.2   184  HIS184     -0.2867
     89  CB       -34.9020   10.4310   24.2580 C.3   184  HIS184      0.0745
     90  CG       -35.2380    9.7940   22.9460 C.ar  184  HIS184      0.0817
     91  ND1      -34.9700   10.3920   21.7350 N.ar  184  HIS184     -0.2268
     92  CD2      -35.8800    8.6420   22.6540 C.ar  184  HIS184      0.1154
     93  CE1      -35.4370    9.6440   20.7550 C.ar  184  HIS184      0.1986
     94  NE2      -35.9890    8.5710   21.2860 N.ar  184  HIS184     -0.2212
     95  N        -33.7000   16.1380   23.3060 N.3   234  SER234     -0.1203
     96  CA       -32.8650   15.3400   24.1990 C.3   234  SER234      0.2005
     97  C        -31.3850   15.5370   23.8570 C.2   234  SER234      0.2460
     98  O        -30.9950   15.3570   22.7310 O.2   234  SER234     -0.2732
     99  CB       -33.1970   13.8530   24.0940 C.3   234  SER234      0.2103
    100  OG       -32.4500   13.1370   25.1050 O.3   234  SER234     -0.2182
    101  N        -30.5440   15.8260   24.8670 N.am  235  PRO235     -0.2728
    102  CA       -29.0940   15.8350   24.5700 C.3   235  PRO235      0.1401
    103  C        -28.6110   14.4260   24.1130 C.2   235  PRO235      0.2269
    104  O        -29.3260   13.3940   24.2540 O.2   235  PRO235     -0.2865
    105  CB       -28.4330   16.1990   25.9290 C.3   235  PRO235      0.0296
    106  CG       -29.5140   16.1680   26.9590 C.3   235  PRO235      0.0237
    107  CD       -30.8510   15.8570   26.3050 C.3   235  PRO235      0.0939
@<TRIPOS>BOND
     1    23    22    1
     2    24    22    1
     3    22    21    2
     4    21    20    1
     5    20    19    1
     6    93    94   ar
     7    93    91   ar
     8    19    18    1
     9    94    92   ar
    10    91    90   ar
    11    18    15    1
    12    92    90   ar
    13    98    97    2
    14    90    89    1
    15    17    16    2
    16    15    14    1
    17    15    16    1
    18    95    96    1
    19    78    77    1
    20    88    87    2
    21    16    25   am
    22    97    96    1
    23    97   101   am
    24    99    96    1
    25    99   100    1
    26   103   104    2
    27   103   102    1
    28    89    86    1
    29   102   101    1
    30   102   105    1
    31    87    86    1
    32    86    85    1
    33    25    26    1
    34    77    79    1
    35    77    76    2
    36   101   107    1
    37    60    58    1
    38    26    29    1
    39    26    27    1
    40    76    75    1
    41    54    55    1
    42    31    33   ar
    43    31    30   ar
    44   105   106    1
    45    35    27   am
    46    35    36    1
    47    29    30    1
    48   107   106    1
    49    59    58    1
    50    58    55    1
    51    27    28    2
    52    55    56    1
    53    33    34   ar
    54    30    32   ar
    55    36    37    1
    56    75    74    1
    57    74    73    1
    58    53    51   ar
    59    72    71    2
    60    83    82    2
    61    44    43    1
    62    39    37   am
    63    39    40    1
    64    34    32   ar
    65    37    38    2
    66    56    57    2
    67    43    40    1
    68    81    82    1
    69    81    84    1
    70    81    80    1
    71    71    80   am
    72    71    70    1
    73    40    41    1
    74    51    52   ar
    75    51    50    1
    76    73    70    1
    77    70    69    1
    78    50    49    1
    79    41    42    2
    80    12    13    1
    81    12     9    1
    82    11    10    2
    83    67    66    2
    84    68    66   am
    85    49    46    1
    86    10     9    1
    87    66    65    1
    88     9     8    1
    89    64    63    2
    90    45    46    1
    91    46    47    1
    92    63    62    1
    93    61    62    1
    94     8     3   am
    95    65    62    1
    96    47    48    2
    97     4     3    2
    98     3     2    1
    99     6     5    1
   100     2     5    1
   101     2     1    1
   102     5     7    1
