@<TRIPOS>MOLECULE
tmp/4p5dA00.pdb
 187 178 0 0 0
SMALL
GASTEIGER

@<TRIPOS>ATOM
      1  N          1.1620   67.1980    1.1280 N.3     4  TYR4       -0.1241
      2  CA         1.8700   67.9630    0.0990 C.3     4  TYR4        0.1605
      3  C          1.1050   69.2610   -0.1720 C.2     4  TYR4        0.2264
      4  O         -0.0420   69.2250   -0.6260 O.2     4  TYR4       -0.2867
      5  CB         2.0110   67.1390   -1.1950 C.3     4  TYR4        0.0534
      6  CG         2.9730   67.7060   -2.2400 C.ar    4  TYR4       -0.0201
      7  CD1        2.6080   68.7750   -3.0510 C.ar    4  TYR4       -0.0009
      8  CD2        4.2410   67.1530   -2.4190 C.ar    4  TYR4       -0.0009
      9  CE1        3.4820   69.2910   -3.9980 C.ar    4  TYR4        0.0417
     10  CE2        5.1260   67.6600   -3.3700 C.ar    4  TYR4        0.0417
     11  CZ         4.7420   68.7300   -4.1510 C.ar    4  TYR4        0.1957
     12  OH         5.6170   69.2320   -5.0960 O.3     4  TYR4       -0.2866
     13  N          0.7360   72.6970   -2.3670 N.3     6  CYS6       -0.1221
     14  CA         1.1130   73.3980   -3.6020 C.3     6  CYS6        0.1808
     15  C          0.6940   74.8660   -3.6000 C.2     6  CYS6        0.2601
     16  O         -0.4650   75.1950   -3.3150 O.2     6  CYS6       -0.2717
     17  CB         0.4740   72.7490   -4.8380 C.3     6  CYS6        0.0970
     18  SG         0.3950   70.9800   -4.8740 S.3     6  CYS6       -0.0800
     19  N          1.6190   75.7420   -3.9660 N.am    7  GLY7       -0.1957
     20  CA         1.2920   77.1400   -4.1600 C.3     7  GLY7        0.1869
     21  C          2.2720   77.7730   -5.1290 C.2     7  GLY7        0.2309
     22  O          3.4050   77.3060   -5.2670 O.2     7  GLY7       -0.2863
     23  N          5.0270   79.8410   -7.0600 N.3     9  ILE9       -0.1231
     24  CA         6.3000   80.4690   -6.7300 C.3     9  ILE9        0.1692
     25  C          6.7370   81.3450   -7.9050 C.2     9  ILE9        0.2592
     26  O          6.5990   82.5640   -7.8440 O.2     9  ILE9       -0.2718
     27  CB         7.3650   79.4210   -6.3800 C.3     9  ILE9        0.0266
     28  CG1        6.9280   78.6470   -5.1350 C.3     9  ILE9        0.0019
     29  CG2        8.7250   80.0800   -6.1530 C.3     9  ILE9        0.0020
     30  CD1        7.8600   77.5330   -4.7370 C.3     9  ILE9        0.0001
     31  N          7.2030   80.7410   -8.9970 N.am   10  ARG10      -0.1966
     32  CA         7.5820   81.5420  -10.1580 C.3    10  ARG10       0.1729
     33  C          6.3490   82.0360  -10.9230 C.2    10  ARG10       0.2616
     34  O          6.4510   82.9370  -11.7480 O.2    10  ARG10      -0.2715
     35  CB         8.5350   80.7610  -11.0730 C.3    10  ARG10       0.0348
     36  CG         9.9780   80.7770  -10.5420 C.3    10  ARG10       0.0492
     37  CD        10.9720   79.9820  -11.4040 C.3    10  ARG10       0.2205
     38  NE        12.3270   80.0670  -10.8630 N.pl3  10  ARG10      -0.0865
     39  CZ        13.3180   79.2300  -11.1600 C.cat  10  ARG10       0.5346
     40  NH1       13.1160   78.2240  -12.0030 N.pl3  10  ARG10       0.1354
     41  NH2       14.5180   79.4000  -10.6110 N.pl3  10  ARG10       0.1354
     42  N          5.1800   81.4800  -10.6250 N.am   11  GLY11      -0.1955
     43  CA         3.9340   82.0420  -11.1260 C.3    11  GLY11       0.1869
     44  C          3.6190   83.3560  -10.4250 C.2    11  GLY11       0.2309
     45  O          2.7170   84.0880  -10.8260 O.2    11  GLY11      -0.2863
     46  N          6.0570   70.0850    1.9990 N.3    34  THR34      -0.1218
     47  CA         6.3660   71.2360    1.1540 C.3    34  THR34       0.1862
     48  C          6.4730   72.6000    1.8320 C.2    34  THR34       0.2287
     49  O          6.2920   73.6200    1.1570 O.2    34  THR34      -0.2866
     50  CB         5.3880   71.3400    0.0090 C.3    34  THR34       0.1770
     51  OG1        4.0560   71.2370    0.5170 O.3    34  THR34      -0.2211
     52  CG2        5.6540   70.1930   -0.9330 C.3    34  THR34       0.0375
     53  N          8.2470   74.8970    2.7760 N.3    36  HIS36      -0.1226
     54  CA         9.0120   75.9890    2.1680 C.3    36  HIS36       0.1752
     55  C          8.2440   76.8430    1.1440 C.2    36  HIS36       0.2595
     56  O          8.6140   77.9920    0.9040 O.2    36  HIS36      -0.2718
     57  CB        10.2380   75.4010    1.4900 C.3    36  HIS36       0.0759
     58  CG         9.9020   74.2850    0.5570 C.ar   36  HIS36       0.0818
     59  ND1        9.7800   72.9780    0.9850 N.ar   36  HIS36      -0.2268
     60  CD2        9.6070   74.2800   -0.7620 C.ar   36  HIS36       0.1154
     61  CE1        9.4520   72.2160   -0.0430 C.ar   36  HIS36       0.1986
     62  NE2        9.3410   72.9800   -1.1150 N.ar   36  HIS36      -0.2212
     63  N          7.2020   76.2800    0.5240 N.am   37  VAL37      -0.1980
     64  CA         6.3900   77.0120   -0.4550 C.3    37  VAL37       0.1595
     65  C          5.7670   78.2650    0.1740 C.2    37  VAL37       0.2287
     66  O          5.5220   79.2670   -0.5040 O.2    37  VAL37      -0.2864
     67  CB         5.2630   76.1180   -1.0520 C.3    37  VAL37       0.0276
     68  CG1        4.4230   76.8870   -2.0700 C.3    37  VAL37       0.0022
     69  CG2        5.8470   74.8700   -1.7010 C.3    37  VAL37       0.0022
     70  N         11.2630   83.2370    0.7880 N.3    42  LEU42      -0.1231
     71  CA        11.5580   82.7270   -0.5210 C.3    42  LEU42       0.1693
     72  C         11.0030   83.7940   -1.4330 C.2    42  LEU42       0.2592
     73  O          9.7790   83.9980   -1.5490 O.2    42  LEU42      -0.2718
     74  CB        10.8840   81.3580   -0.7640 C.3    42  LEU42       0.0284
     75  CG        11.1660   80.4700   -1.9960 C.3    42  LEU42       0.0019
     76  CD1       10.4760   79.1300   -1.8570 C.3    42  LEU42       0.0001
     77  CD2       10.7510   81.0900   -3.2960 C.3    42  LEU42       0.0001
     78  N         11.9320   84.4470   -2.1170 N.am   43  GLU43      -0.1966
     79  CA        11.5900   85.1110   -3.3350 C.3    43  GLU43       0.1718
     80  C         12.7120   84.6980   -4.2630 C.2    43  GLU43       0.2458
     81  O         13.8920   84.7680   -3.9050 O.2    43  GLU43      -0.2730
     82  CB        11.4780   86.6340   -3.1300 C.3    43  GLU43       0.0428
     83  CG        10.4980   87.0190   -2.0060 C.3    43  GLU43       0.1163
     84  CD        10.7520   88.3910   -1.3990 C.2    43  GLU43       0.3649
     85  OE1       10.2440   89.3870   -1.9580 O.co2  43  GLU43      -0.2457
     86  OE2       11.4240   88.4680   -0.3430 O.co2  43  GLU43      -0.2457
     87  N         12.3080   84.2510   -5.4540 N.am   44  PRO44      -0.2727
     88  CA        12.8950   83.8110   -6.7080 C.3    44  PRO44       0.1402
     89  C         13.1120   84.9590   -7.6420 C.2    44  PRO44       0.2269
     90  O         13.1610   86.1300   -7.2350 O.2    44  PRO44      -0.2865
     91  CB        11.8680   82.8330   -7.2480 C.3    44  PRO44       0.0296
     92  CG        10.6070   83.4590   -6.8680 C.3    44  PRO44       0.0237
     93  CD        10.8440   84.0720   -5.5100 C.3    44  PRO44       0.0939
     94  N         15.6540   85.2180   -8.8810 N.3    46  GLY46      -0.1210
     95  CA        17.0720   84.9670   -8.7850 C.3    46  GLY46       0.1956
     96  C         17.5110   83.9840   -9.8790 C.2    46  GLY46       0.2612
     97  O         18.3240   84.3620  -10.7020 O.2    46  GLY46      -0.2717
     98  N         16.8820   82.7940   -9.9510 N.am   47  GLU47      -0.1965
     99  CA        17.4430   81.5290  -10.5550 C.3    47  GLU47       0.1733
    100  C         18.2670   80.5290   -9.7110 C.2    47  GLU47       0.2616
    101  O         18.9340   79.6570  -10.2860 O.2    47  GLU47      -0.2715
    102  CB        18.2730   81.7860  -11.7960 C.3    47  GLU47       0.0429
    103  CG        17.5010   81.3420  -13.0290 C.3    47  GLU47       0.1163
    104  CD        17.3430   82.4750  -14.0020 C.2    47  GLU47       0.3649
    105  OE1       17.3420   82.2400  -15.2400 O.co2  47  GLU47      -0.2457
    106  OE2       17.2230   83.6110  -13.4880 O.co2  47  GLU47      -0.2457
    107  N         18.3560   80.7090   -8.4000 N.am   48  GLU48      -0.1963
    108  CA        19.1780   79.8400   -7.4930 C.3    48  GLU48       0.1733
    109  C         18.5650   78.4350   -7.2090 C.2    48  GLU48       0.2616
    110  O         17.7900   77.9010   -8.0220 O.2    48  GLU48      -0.2715
    111  CB        19.4460   80.5490   -6.1580 C.3    48  GLU48       0.0429
    112  CG        20.9690   80.7580   -5.8340 C.3    48  GLU48       0.1163
    113  CD        21.3340   80.5210   -4.3630 C.2    48  GLU48       0.3649
    114  OE1       20.9540   79.4570   -3.8450 O.co2  48  GLU48      -0.2457
    115  OE2       22.0070   81.3700   -3.7290 O.co2  48  GLU48      -0.2457
    116  N         18.9610   77.8850   -6.0500 N.am   49  ALA49      -0.1977
    117  CA        18.8280   76.5080   -5.5120 C.3    49  ALA49       0.1597
    118  C         20.0180   75.5770   -5.7070 C.2    49  ALA49       0.2287
    119  O         20.0350   74.4710   -5.1270 O.2    49  ALA49      -0.2864
    120  CB        17.5710   75.8190   -6.1120 C.3    49  ALA49       0.0319
    121  N         16.9750   72.9510  -11.1860 N.3    53  ASP53      -0.1239
    122  CA        15.5670   72.6190  -11.2870 C.3    53  ASP53       0.1674
    123  C         15.3660   71.1140  -11.2830 C.2    53  ASP53       0.2266
    124  O         14.3660   70.6250  -10.7750 O.2    53  ASP53      -0.2867
    125  CB        14.9760   73.2630  -12.5400 C.3    53  ASP53       0.1410
    126  CG        15.1300   74.7680  -12.5290 C.2    53  ASP53       0.3668
    127  OD1       14.8710   75.3760  -11.4740 O.co2  53  ASP53      -0.2456
    128  OD2       15.5410   75.3480  -13.5490 O.co2  53  ASP53      -0.2456
    129  N         15.1740   70.0580   -7.6600 N.3    56  ILE56      -0.1245
    130  CA        13.8710   70.5090   -7.1930 C.3    56  ILE56       0.1561
    131  C         12.7670   69.5780   -7.6880 C.2    56  ILE56       0.2260
    132  O         11.9420   69.1110   -6.9040 O.2    56  ILE56      -0.2867
    133  CB        13.5740   71.9480   -7.6580 C.3    56  ILE56       0.0252
    134  CG1       14.5320   72.9320   -6.9810 C.3    56  ILE56       0.0019
    135  CG2       12.1270   72.3210   -7.3620 C.3    56  ILE56       0.0019
    136  CD1       14.4620   74.3360   -7.5450 C.3    56  ILE56       0.0001
    137  N         13.1060   65.9600   -6.0440 N.3    59  GLN59      -0.1231
    138  CA        12.8160   66.0260   -4.6100 C.3    59  GLN59       0.1698
    139  C         11.3020   66.1590   -4.4000 C.2    59  GLN59       0.2592
    140  O         10.7200   65.4700   -3.5750 O.2    59  GLN59      -0.2718
    141  CB        13.5640   67.1910   -3.9640 C.3    59  GLN59       0.0381
    142  CG        13.2010   67.4850   -2.5050 C.3    59  GLN59       0.0905
    143  CD        14.1620   68.4860   -1.8620 C.2    59  GLN59       0.2608
    144  OE1       14.9860   68.1200   -1.0130 O.2    59  GLN59      -0.2717
    145  NE2       14.0650   69.7520   -2.2690 N.am   59  GLN59      -0.0878
    146  N         10.6620   67.0250   -5.1760 N.am   60  ASN60      -0.1974
    147  CA         9.2190   67.2150   -5.0550 C.3    60  ASN60       0.1688
    148  C          8.4040   65.9920   -5.4440 C.2    60  ASN60       0.2292
    149  O          7.4200   65.6600   -4.7780 O.2    60  ASN60      -0.2864
    150  CB         8.7830   68.4210   -5.8810 C.3    60  ASN60       0.1181
    151  CG         9.0180   69.6840   -5.1540 C.2    60  ASN60       0.2629
    152  OD1        9.1670   69.6720   -3.9330 O.2    60  ASN60      -0.2716
    153  ND2        9.0420   70.7870   -5.8600 N.am   60  ASN60      -0.0877
    154  N         -0.2430   79.0860  -12.0160 N.3    78  SER78      -0.1202
    155  CA         1.1170   78.5780  -11.9170 C.3    78  SER78       0.2020
    156  C          1.2740   77.2910  -12.7160 C.2    78  SER78       0.2619
    157  O          0.4790   76.3630  -12.5560 O.2    78  SER78      -0.2717
    158  CB         1.4730   78.3390  -10.4350 C.3    78  SER78       0.2103
    159  OG         2.5970   77.4780  -10.2940 O.3    78  SER78      -0.2182
    160  N          2.3260   77.1950  -13.5180 N.am   79  LEU79      -0.1965
    161  CA         2.6280   75.9470  -14.2200 C.3    79  LEU79       0.1728
    162  C          2.9630   74.8320  -13.2300 C.2    79  LEU79       0.2617
    163  O          2.4960   73.6930  -13.3590 O.2    79  LEU79      -0.2715
    164  CB         3.8040   76.1330  -15.1810 C.3    79  LEU79       0.0311
    165  CG         3.6070   77.0660  -16.3650 C.3    79  LEU79       0.0022
    166  CD1        4.9550   77.3110  -17.0230 C.3    79  LEU79       0.0001
    167  CD2        2.6040   76.4670  -17.3610 C.3    79  LEU79       0.0001
    168  N          3.7940   75.1670  -12.2470 N.am   80  GLY80      -0.1940
    169  CA         4.2230   74.1890  -11.2640 C.3    80  GLY80       0.2014
    170  C          3.0640   73.5840  -10.4910 C.2    80  GLY80       0.2638
    171  O          2.9760   72.3680  -10.3210 O.2    80  GLY80      -0.2714
    172  N          2.1710   74.4350  -10.0080 N.am   81  VAL81      -0.1977
    173  CA         1.0050   73.9490   -9.2780 C.3    81  VAL81       0.1596
    174  C          0.1540   73.0360  -10.1760 C.2    81  VAL81       0.2287
    175  O         -0.2400   71.9360   -9.7650 O.2    81  VAL81      -0.2864
    176  CB         0.1570   75.1190   -8.7440 C.3    81  VAL81       0.0276
    177  CG1       -1.1420   74.6110   -8.1530 C.3    81  VAL81       0.0022
    178  CG2        0.9350   75.8850   -7.7000 C.3    81  VAL81       0.0022
    179  N          1.9810   69.6690  -10.6290 N.3    84  GLU84      -0.1245
    180  CA         1.8610   68.8610   -9.4090 C.3    84  GLU84       0.1567
    181  C          0.4800   68.2200   -9.3080 C.2    84  GLU84       0.2260
    182  O          0.3650   67.0320   -9.0060 O.2    84  GLU84      -0.2867
    183  CB         2.1540   69.7100   -8.1640 C.3    84  GLU84       0.0388
    184  CG         3.6340   70.1050   -8.0200 C.3    84  GLU84       0.1160
    185  CD         3.8990   71.1930   -6.9690 C.2    84  GLU84       0.3649
    186  OE1        4.9590   71.1230   -6.3170 O.co2  84  GLU84      -0.2457
    187  OE2        3.0680   72.1180   -6.7960 O.co2  84  GLU84      -0.2457
@<TRIPOS>BOND
     1   167   165    1
     2   166   165    1
     3   165   164    1
     4   105   104   ar
     5   164   161    1
     6   161   160    1
     7   161   162    1
     8   104   106   ar
     9   104   103    1
    10   128   126   ar
    11   160   156   am
    12   163   162    2
    13   162   168   am
    14   103   102    1
    15   156   157    2
    16   156   155    1
    17   125   126    1
    18   125   122    1
    19   126   127   ar
    20   168   169    1
    21   154   155    1
    22    40    39    1
    23   155   158    1
    24   102    99    1
    25    34    33    2
    26    37    38    1
    27    37    36    1
    28   122   123    1
    29   122   121    1
    30   123   124    2
    31   169   170    1
    32    39    38    2
    33    39    41    1
    34    43    42    1
    35    43    44    1
    36    35    36    1
    37    35    32    1
    38    33    42   am
    39    33    32    1
    40    45    44    2
    41    97    96    2
    42   179   180    1
    43    99    98    1
    44    99   100    1
    45   170   171    2
    46   170   172   am
    47   158   159    1
    48   101   100    2
    49   174   175    2
    50   174   173    1
    51    32    31    1
    52   172   173    1
    53    98    96   am
    54    96    95    1
    55   100   107   am
    56   180   181    1
    57   180   183    1
    58   181   182    2
    59   173   176    1
    60    31    25   am
    61    94    95    1
    62   176   177    1
    63   176   178    1
    64   107   108    1
    65   183   184    1
    66   110   109    2
    67   184   185    1
    68    25    26    2
    69    25    24    1
    70   131   130    1
    71   131   132    2
    72   129   130    1
    73   133   135    1
    74   133   130    1
    75   133   134    1
    76    89    90    2
    77    89    88    1
    78   136   134    1
    79   108   109    1
    80   108   111    1
    81    91    92    1
    82    91    88    1
    83   109   116   am
    84    23    24    1
    85   185   187   ar
    86   185   186   ar
    87    92    93    1
    88    24    27    1
    89    88    87    1
    90    27    29    1
    91    27    28    1
    92   111   112    1
    93   120   117    1
    94   116   117    1
    95   137   138    1
    96   150   151    1
    97   150   147    1
    98   153   151   am
    99   112   113    1
   100   118   117    1
   101   118   119    2
   102    93    87    1
   103    87    80   am
   104   148   147    1
   105   148   149    2
   106    22    21    2
   107   146   147    1
   108   146   139   am
   109   151   152    2
   110    28    30    1
   111    21    20    1
   112    12    11    1
   113    18    17    1
   114    17    14    1
   115   138   139    1
   116   138   141    1
   117   139   140    2
   118   113   114   ar
   119   113   115   ar
   120    80    81    2
   121    80    79    1
   122    20    19    1
   123    11     9   ar
   124    11    10   ar
   125     9     7   ar
   126    19    15   am
   127   141   142    1
   128    14    15    1
   129    14    13    1
   130    15    16    2
   131    10     8   ar
   132    79    82    1
   133    79    78    1
   134    77    75    1
   135    82    83    1
   136     7     6   ar
   137   142   143    1
   138     8     6   ar
   139   145   143   am
   140     6     5    1
   141    78    72   am
   142    68    67    1
   143    83    84    1
   144    75    76    1
   145    75    74    1
   146    85    84   ar
   147   143   144    2
   148    69    67    1
   149    73    72    2
   150    72    71    1
   151    84    86   ar
   152     5     2    1
   153    62    60   ar
   154    62    61   ar
   155    67    64    1
   156    52    50    1
   157    74    71    1
   158    60    58   ar
   159     4     3    2
   160    71    70    1
   161    66    65    2
   162    64    65    1
   163    64    63    1
   164     3     2    1
   165    61    59   ar
   166    50    51    1
   167    50    47    1
   168     2     1    1
   169    63    55   am
   170    58    59   ar
   171    58    57    1
   172    56    55    2
   173    55    54    1
   174    47    48    1
   175    47    46    1
   176    49    48    2
   177    57    54    1
   178    54    53    1
