@<TRIPOS>MOLECULE
tmp/4p5fB00.pdb
 232 223 0 0 0
SMALL
GASTEIGER

@<TRIPOS>ATOM
      1  N          1.7590   32.6140  -12.3180 N.3    31  ASP31      -0.1239
      2  CA         0.3760   33.0020  -12.0160 C.3    31  ASP31       0.1674
      3  C         -0.1410   34.1300  -12.9320 C.2    31  ASP31       0.2266
      4  O         -0.3970   35.2410  -12.4780 O.2    31  ASP31      -0.2867
      5  CB         0.2690   33.4330  -10.5570 C.3    31  ASP31       0.1410
      6  CG         1.1600   34.6250  -10.2370 C.2    31  ASP31       0.3668
      7  OD1        2.1240   34.8860  -10.9980 O.co2  31  ASP31      -0.2456
      8  OD2        0.8890   35.3070   -9.2300 O.co2  31  ASP31      -0.2456
      9  N         -2.7470   38.6630  -13.9430 N.3    34  LYS34      -0.1231
     10  CA        -3.0170   39.5840  -12.8530 C.3    34  LYS34       0.1693
     11  C         -2.0460   40.7710  -12.9600 C.2    34  LYS34       0.2592
     12  O         -2.4630   41.9190  -13.1470 O.2    34  LYS34      -0.2718
     13  CB        -2.8790   38.8700  -11.5080 C.3    34  LYS34       0.0285
     14  CG        -3.1060   39.7810  -10.3080 C.3    34  LYS34       0.0035
     15  CD        -3.0480   38.9950   -9.0120 C.3    34  LYS34       0.0206
     16  CE        -2.2550   39.7540   -7.9770 C.3    34  LYS34       0.1093
     17  NZ        -3.0910   40.8120   -7.3720 N.3    34  LYS34      -0.1314
     18  N         -0.7550   40.4780  -12.8230 N.am   35  ASP35      -0.1960
     19  CA         0.3140   41.3920  -13.2190 C.3    35  ASP35       0.1825
     20  C          0.7140   40.9720  -14.6440 C.2    35  ASP35       0.2464
     21  O          0.8800   39.7790  -14.9010 O.2    35  ASP35      -0.2730
     22  CB         1.5070   41.2280  -12.2580 C.3    35  ASP35       0.1450
     23  CG         2.6460   42.2080  -12.5340 C.2    35  ASP35       0.3671
     24  OD1        2.8020   42.6650  -13.6840 O.co2  35  ASP35      -0.2456
     25  OD2        3.4130   42.5120  -11.5950 O.co2  35  ASP35      -0.2456
     26  N          0.8450   41.9370  -15.5780 N.am   36  PRO36      -0.2715
     27  CA         1.2360   41.5840  -16.9520 C.3    36  PRO36       0.1536
     28  C          2.5980   40.8950  -17.0830 C.2    36  PRO36       0.2599
     29  O          2.8500   40.3120  -18.1280 O.2    36  PRO36      -0.2715
     30  CB         1.2800   42.9450  -17.6700 C.3    36  PRO36       0.0310
     31  CG         0.3140   43.7820  -16.9240 C.3    36  PRO36       0.0237
     32  CD         0.4300   43.3510  -15.4740 C.3    36  PRO36       0.0939
     33  N          3.4510   40.9620  -16.0650 N.am   37  ASP37      -0.1958
     34  CA         4.8370   40.5260  -16.2400 C.3    37  ASP37       0.1840
     35  C          5.0110   39.0110  -16.4900 C.2    37  ASP37       0.2622
     36  O          5.9650   38.6070  -17.1680 O.2    37  ASP37      -0.2715
     37  CB         5.7270   41.0290  -15.0970 C.3    37  ASP37       0.1450
     38  CG         5.4660   40.3040  -13.7810 C.2    37  ASP37       0.3671
     39  OD1        4.3060   39.9060  -13.5240 O.co2  37  ASP37      -0.2456
     40  OD2        6.4330   40.1400  -13.0060 O.co2  37  ASP37      -0.2456
     41  N          4.1070   38.1770  -15.9630 N.am   38  ASP38      -0.1971
     42  CA         4.1290   36.7370  -16.2880 C.3    38  ASP38       0.1709
     43  C          4.0570   36.5100  -17.8090 C.2    38  ASP38       0.2293
     44  O          4.8550   35.7740  -18.3570 O.2    38  ASP38      -0.2864
     45  CB         2.9970   35.9700  -15.5920 C.3    38  ASP38       0.1436
     46  CG         3.2050   35.8510  -14.0740 C.2    38  ASP38       0.3671
     47  OD1        2.7750   36.7750  -13.3490 O.co2  38  ASP38      -0.2456
     48  OD2        3.7930   34.8350  -13.6090 O.co2  38  ASP38      -0.2456
     49  N          8.0450   32.1430  -10.6580 N.3   147  ILE147     -0.1245
     50  CA         7.5900   33.5270  -10.7550 C.3   147  ILE147      0.1561
     51  C          6.1870   33.7130  -10.1720 C.2   147  ILE147      0.2260
     52  O          5.4000   34.5480  -10.6250 O.2   147  ILE147     -0.2867
     53  CB         7.6720   34.0680  -12.2020 C.3   147  ILE147      0.0252
     54  CG1        6.9300   33.1580  -13.1860 C.3   147  ILE147      0.0019
     55  CG2        9.1180   34.2710  -12.6040 C.3   147  ILE147      0.0019
     56  CD1        6.9770   33.6550  -14.6180 C.3   147  ILE147      0.0001
     57  N         11.6420   34.5990   -8.0610 N.3   174  MET174     -0.1230
     58  CA        11.2230   35.9690   -7.8430 C.3   174  MET174      0.1702
     59  C         10.5940   36.0500   -6.4530 C.2   174  MET174      0.2592
     60  O          9.3920   35.8350   -6.2810 O.2   174  MET174     -0.2718
     61  CB        10.2130   36.4070   -8.9040 C.3   174  MET174      0.0401
     62  CG        10.1280   37.9160   -9.0940 C.3   174  MET174      0.0596
     63  SD         9.2000   38.7900   -7.8090 S.3   174  MET174     -0.1393
     64  CE        10.4510   39.9500   -7.2670 C.3   174  MET174      0.0692
     65  N         11.4050   36.3570   -5.4520 N.am  175  GLY175     -0.1957
     66  CA        10.8950   36.3810   -4.1000 C.3   175  GLY175      0.1869
     67  C         11.5250   37.4460   -3.2430 C.2   175  GLY175      0.2309
     68  O         11.5830   38.6090   -3.6200 O.2   175  GLY175     -0.2863
     69  N          7.2370   39.6830    2.9470 N.3   192  ARG192     -0.1231
     70  CA         6.7870   40.8570    2.1950 C.3   192  ARG192      0.1694
     71  C          6.5740   40.5710    0.6950 C.2   192  ARG192      0.2592
     72  O          5.5800   41.0170    0.1140 O.2   192  ARG192     -0.2718
     73  CB         7.7710   42.0220    2.4170 C.3   192  ARG192      0.0321
     74  CG         7.6800   43.1970    1.4260 C.3   192  ARG192      0.0489
     75  CD         6.3510   43.9270    1.4920 C.3   192  ARG192      0.2205
     76  NE         6.3230   45.0370    0.5420 N.pl3 192  ARG192     -0.0865
     77  CZ         6.0070   44.9120   -0.7460 C.cat 192  ARG192      0.5346
     78  NH1        5.6810   43.7210   -1.2440 N.pl3 192  ARG192      0.1354
     79  NH2        6.0180   45.9790   -1.5430 N.pl3 192  ARG192      0.1354
     80  N          7.5040   39.8280    0.0870 N.am  193  ALA193     -0.1966
     81  CA         7.4060   39.4150   -1.3230 C.3   193  ALA193      0.1728
     82  C          6.0890   38.7060   -1.6270 C.2   193  ALA193      0.2616
     83  O          5.7690   37.7030   -1.0020 O.2   193  ALA193     -0.2715
     84  CB         8.5760   38.5210   -1.6890 C.3   193  ALA193      0.0334
     85  N          5.3290   39.2300   -2.5860 N.am  194  TYR194     -0.1960
     86  CA         4.0190   38.6560   -2.9300 C.3   194  TYR194      0.1771
     87  C          4.0830   37.1530   -3.1980 C.2   194  TYR194      0.2619
     88  O          3.1700   36.4200   -2.8420 O.2   194  TYR194     -0.2715
     89  CB         3.4190   39.3650   -4.1490 C.3   194  TYR194      0.0574
     90  CG         2.0130   38.9380   -4.5140 C.ar  194  TYR194     -0.0198
     91  CD1        0.9010   39.5640   -3.9500 C.ar  194  TYR194     -0.0009
     92  CD2        1.7920   37.9270   -5.4460 C.ar  194  TYR194     -0.0009
     93  CE1       -0.4010   39.1780   -4.2990 C.ar  194  TYR194      0.0417
     94  CE2        0.5060   37.5340   -5.7950 C.ar  194  TYR194      0.0417
     95  CZ        -0.5850   38.1590   -5.2240 C.ar  194  TYR194      0.1957
     96  OH        -1.8580   37.7610   -5.5800 O.3   194  TYR194     -0.2866
     97  N          5.1610   36.6950   -3.8220 N.am  195  ASN195     -0.1972
     98  CA         5.2530   35.2840   -4.1770 C.3   195  ASN195      0.1688
     99  C          5.4970   34.3700   -2.9680 C.2   195  ASN195      0.2292
    100  O          5.0050   33.2390   -2.9250 O.2   195  ASN195     -0.2864
    101  CB         6.2650   35.0810   -5.2980 C.3   195  ASN195      0.1181
    102  CG         5.7830   35.6780   -6.6080 C.2   195  ASN195      0.2629
    103  OD1        4.5780   35.7500   -6.8530 O.2   195  ASN195     -0.2716
    104  ND2        6.7110   36.1190   -7.4460 N.am  195  ASN195     -0.0877
    105  N         12.0300   42.3840   -5.6280 N.3   222  LYS222     -0.1245
    106  CA        11.3150   43.5290   -6.1950 C.3   222  LYS222      0.1561
    107  C         12.2480   44.7260   -6.4140 C.2   222  LYS222      0.2260
    108  O         12.0670   45.4890   -7.3590 O.2   222  LYS222     -0.2867
    109  CB        10.0950   43.9180   -5.3350 C.3   222  LYS222      0.0271
    110  CG        10.4350   44.4970   -3.9550 C.3   222  LYS222      0.0035
    111  CD         9.2140   44.5190   -3.0570 C.3   222  LYS222      0.0206
    112  CE         9.4760   45.2610   -1.7410 C.3   222  LYS222      0.1093
    113  NZ        10.4930   44.5960   -0.8820 N.3   222  LYS222     -0.1314
    114  N         12.6010   47.1530   -9.6370 N.3   226  TYR226     -0.1241
    115  CA        12.4820   48.6040   -9.4990 C.3   226  TYR226      0.1605
    116  C         13.5860   49.3150  -10.2710 C.2   226  TYR226      0.2264
    117  O         13.3250   50.2820  -10.9790 O.2   226  TYR226     -0.2867
    118  CB        12.5490   49.0180   -8.0290 C.3   226  TYR226      0.0534
    119  CG        11.4010   48.5190   -7.1800 C.ar  226  TYR226     -0.0201
    120  CD1       10.1590   48.2490   -7.7390 C.ar  226  TYR226     -0.0009
    121  CD2       11.5620   48.3180   -5.8120 C.ar  226  TYR226     -0.0009
    122  CE1        9.1070   47.7980   -6.9560 C.ar  226  TYR226      0.0417
    123  CE2       10.5070   47.8690   -5.0190 C.ar  226  TYR226      0.0417
    124  CZ         9.2900   47.6130   -5.5960 C.ar  226  TYR226      0.1957
    125  OH         8.2450   47.1680   -4.8160 O.3   226  TYR226     -0.2866
    126  N         -2.3730   47.0220  -19.6030 N.3   249  GLN249     -0.1245
    127  CA        -1.5570   47.7090  -18.5980 C.3   249  GLN249      0.1566
    128  C         -2.3470   48.5790  -17.6240 C.2   249  GLN249      0.2260
    129  O         -2.1400   48.5150  -16.4110 O.2   249  GLN249     -0.2867
    130  CB        -0.4820   48.5540  -19.2850 C.3   249  GLN249      0.0367
    131  CG         0.4760   47.7410  -20.1290 C.3   249  GLN249      0.0905
    132  CD         1.2530   46.7340  -19.2970 C.2   249  GLN249      0.2608
    133  OE1        1.6430   47.0290  -18.1840 O.2   249  GLN249     -0.2717
    134  NE2        1.4690   45.5410  -19.8380 N.am  249  GLN249     -0.0878
    135  N         -4.8320   46.4290  -15.4500 N.3   252  ALA252     -0.1231
    136  CA        -4.0010   45.6140  -14.5720 C.3   252  ALA252      0.1694
    137  C         -3.5630   46.4700  -13.3900 C.2   252  ALA252      0.2591
    138  O         -3.7270   46.0790  -12.2430 O.2   252  ALA252     -0.2718
    139  CB        -2.7890   45.0730  -15.3160 C.3   252  ALA252      0.0304
    140  N         -3.0160   47.6440  -13.6730 N.am  253  LEU253     -0.1980
    141  CA        -2.5830   48.5320  -12.6020 C.3   253  LEU253      0.1596
    142  C         -3.7760   49.0030  -11.7800 C.2   253  LEU253      0.2287
    143  O         -3.6760   49.1550  -10.5610 O.2   253  LEU253     -0.2864
    144  CB        -1.7990   49.7280  -13.1420 C.3   253  LEU253      0.0297
    145  CG        -0.8910   50.3650  -12.0860 C.3   253  LEU253      0.0022
    146  CD1        0.0460   49.3310  -11.4640 C.3   253  LEU253      0.0001
    147  CD2       -0.0950   51.5140  -12.6750 C.3   253  LEU253      0.0001
    148  N         -4.6420   46.5020   -9.1830 N.3   256  LEU256     -0.1245
    149  CA        -3.7690   46.5470   -8.0180 C.3   256  LEU256      0.1561
    150  C         -4.2440   47.6360   -7.0560 C.2   256  LEU256      0.2260
    151  O         -4.4920   47.3710   -5.8740 O.2   256  LEU256     -0.2867
    152  CB        -2.3120   46.7920   -8.4270 C.3   256  LEU256      0.0270
    153  CG        -1.3050   47.0330   -7.2910 C.3   256  LEU256      0.0019
    154  CD1       -1.2840   45.8600   -6.3240 C.3   256  LEU256      0.0001
    155  CD2        0.0900   47.3000   -7.8240 C.3   256  LEU256      0.0001
    156  N         -3.8830   43.2630    0.4080 N.3   265  ILE265     -0.1245
    157  CA        -2.4740   42.8890    0.2650 C.3   265  ILE265      0.1561
    158  C         -1.6030   43.4620    1.3770 C.2   265  ILE265      0.2260
    159  O         -1.2790   44.6500    1.3650 O.2   265  ILE265     -0.2867
    160  CB        -1.8790   43.3520   -1.0870 C.3   265  ILE265      0.0252
    161  CG1       -2.8120   42.9960   -2.2500 C.3   265  ILE265      0.0019
    162  CG2       -0.4880   42.7450   -1.2930 C.3   265  ILE265      0.0019
    163  CD1       -2.4510   43.6810   -3.5470 C.3   265  ILE265      0.0001
    164  N          1.2910   46.6680    1.4050 N.3   268  LEU268     -0.1245
    165  CA         1.0860   47.6880    0.3800 C.3   268  LEU268      0.1561
    166  C          0.1410   48.7830    0.8570 C.2   268  LEU268      0.2260
    167  O         -0.9310   48.5080    1.4030 O.2   268  LEU268     -0.2867
    168  CB         0.5510   47.0750   -0.9170 C.3   268  LEU268      0.0270
    169  CG         1.3020   45.9000   -1.5470 C.3   268  LEU268      0.0019
    170  CD1        0.7590   45.6200   -2.9450 C.3   268  LEU268      0.0001
    171  CD2        2.8020   46.1430   -1.5870 C.3   268  LEU268      0.0001
    172  N          3.0690   53.6690   -1.0470 N.3   272  TRP272     -0.1241
    173  CA         3.9610   52.7790   -1.7850 C.3   272  TRP272      0.1605
    174  C          3.6740   52.7970   -3.2960 C.2   272  TRP272      0.2264
    175  O          4.5950   52.8880   -4.1180 O.2   272  TRP272     -0.2867
    176  CB         3.8560   51.3530   -1.2330 C.3   272  TRP272      0.0550
    177  CG         4.4550   50.3160   -2.1350 C.ar  272  TRP272      0.0003
    178  CD1        5.7550   49.8880   -2.1550 C.ar  272  TRP272      0.0946
    179  CD2        3.7720   49.5730   -3.1510 C.ar  272  TRP272      0.0152
    180  NE1        5.9220   48.9280   -3.1250 N.ar  272  TRP272     -0.2442
    181  CE2        4.7200   48.7180   -3.7520 C.ar  272  TRP272      0.0810
    182  CE3        2.4510   49.5530   -3.6160 C.ar  272  TRP272      0.0012
    183  CZ2        4.3870   47.8490   -4.7920 C.ar  272  TRP272      0.0191
    184  CZ3        2.1210   48.6910   -4.6510 C.ar  272  TRP272      0.0001
    185  CH2        3.0850   47.8520   -5.2260 C.ar  272  TRP272      0.0015
    186  N          5.1780   53.5040   -8.9470 N.3   277  PHE277     -0.1241
    187  CA         4.6450   53.6720  -10.2920 C.3   277  PHE277      0.1605
    188  C          4.6250   55.1230  -10.7900 C.2   277  PHE277      0.2264
    189  O          4.5230   55.3570  -11.9990 O.2   277  PHE277     -0.2867
    190  CB         3.2500   53.0380  -10.3820 C.3   277  PHE277      0.0534
    191  CG         3.2140   51.6110   -9.9080 C.ar  277  PHE277     -0.0203
    192  CD1        3.7230   50.5910  -10.7020 C.ar  277  PHE277     -0.0042
    193  CD2        2.6950   51.2880   -8.6590 C.ar  277  PHE277     -0.0042
    194  CE1        3.7070   49.2660  -10.2640 C.ar  277  PHE277     -0.0003
    195  CE2        2.6730   49.9670   -8.2130 C.ar  277  PHE277     -0.0003
    196  CZ         3.1820   48.9560   -9.0140 C.ar  277  PHE277     -0.0000
    197  N          6.8700   50.8960  -14.6980 N.3   290  LEU290     -0.1231
    198  CA         6.2970   49.5560  -14.5880 C.3   290  LEU290      0.1693
    199  C          7.4250   48.5510  -14.3500 C.2   290  LEU290      0.2592
    200  O          8.5350   48.7160  -14.8660 O.2   290  LEU290     -0.2718
    201  CB         5.5260   49.1940  -15.8560 C.3   290  LEU290      0.0284
    202  CG         4.3710   50.1260  -16.2360 C.3   290  LEU290      0.0019
    203  CD1        3.7690   49.7180  -17.5640 C.3   290  LEU290      0.0001
    204  CD2        3.3080   50.1550  -15.1460 C.3   290  LEU290      0.0001
    205  N          7.1450   47.5210  -13.5550 N.am  291  ASN291     -0.1974
    206  CA         8.1830   46.5830  -13.1500 C.3   291  ASN291      0.1688
    207  C          8.0400   45.2300  -13.8400 C.2   291  ASN291      0.2292
    208  O          6.9470   44.6590  -13.8940 O.2   291  ASN291     -0.2864
    209  CB         8.1750   46.3810  -11.6290 C.3   291  ASN291      0.1181
    210  CG         8.1690   47.6880  -10.8560 C.2   291  ASN291      0.2629
    211  OD1        7.3000   47.9120  -10.0110 O.2   291  ASN291     -0.2716
    212  ND2        9.1350   48.5520  -11.1390 N.am  291  ASN291     -0.0877
    213  N          9.2710   42.1310  -12.9930 N.3   293  TYR293     -0.1227
    214  CA         9.8520   41.2150  -12.0030 C.3   293  TYR293      0.1736
    215  C         10.2000   39.8760  -12.6440 C.2   293  TYR293      0.2595
    216  O         11.3260   39.3980  -12.5600 O.2   293  TYR293     -0.2718
    217  CB         8.8840   40.9540  -10.8300 C.3   293  TYR293      0.0548
    218  CG         8.1860   42.1820  -10.2720 C.ar  293  TYR293     -0.0200
    219  CD1        8.7570   42.9370   -9.2420 C.ar  293  TYR293     -0.0009
    220  CD2        6.9450   42.5690  -10.7600 C.ar  293  TYR293     -0.0009
    221  CE1        8.1170   44.0510   -8.7350 C.ar  293  TYR293      0.0417
    222  CE2        6.2990   43.6760  -10.2600 C.ar  293  TYR293      0.0417
    223  CZ         6.8870   44.4150   -9.2530 C.ar  293  TYR293      0.1957
    224  OH         6.2200   45.5170   -8.7740 O.3   293  TYR293     -0.2866
    225  N          9.2100   39.2780  -13.2860 N.am  294  ASP294     -0.1974
    226  CA         9.3650   37.9200  -13.8210 C.3   294  ASP294      0.1709
    227  C         10.3260   37.7460  -15.0180 C.2   294  ASP294      0.2293
    228  O         11.1480   36.8390  -15.0110 O.2   294  ASP294     -0.2864
    229  CB         7.9920   37.2870  -14.0720 C.3   294  ASP294      0.1436
    230  CG         7.1550   37.2020  -12.8020 C.2   294  ASP294      0.3671
    231  OD1        7.7360   37.3140  -11.7000 O.co2 294  ASP294     -0.2456
    232  OD2        5.9280   37.0120  -12.9000 O.co2 294  ASP294     -0.2456
@<TRIPOS>BOND
     1   131   132    1
     2   131   130    1
     3   134   132   am
     4   126   127    1
     5   132   133    2
     6   130   127    1
     7   127   128    1
     8    44    43    2
     9    29    28    2
    10    43    42    1
    11    30    27    1
    12    30    31    1
    13   128   129    2
    14   203   202    1
    15    36    35    2
    16    28    27    1
    17    28    33   am
    18    27    26    1
    19    31    32    1
    20    35    34    1
    21    35    41   am
    22    42    41    1
    23    42    45    1
    24    34    33    1
    25    34    37    1
    26   202   201    1
    27   202   204    1
    28   201   198    1
    29    45    46    1
    30    26    32    1
    31    26    20   am
    32   135   136    1
    33   139   136    1
    34    37    38    1
    35   227   228    2
    36   227   226    1
    37    21    20    2
    38   200   199    2
    39   197   198    1
    40    20    19    1
    41    56    54    1
    42   198   199    1
    43   136   137    1
    44   199   205   am
    45    46    48   ar
    46    46    47   ar
    47   229   226    1
    48   229   230    1
    49     9    10    1
    50   208   207    2
    51   207   206    1
    52   226   225    1
    53    38    39   ar
    54    38    40   ar
    55    24    23   ar
    56   140   137   am
    57   140   141    1
    58   205   206    1
    59   137   138    2
    60   225   215   am
    61    19    18    1
    62    19    22    1
    63    54    53    1
    64   206   209    1
    65    12    11    2
    66   144   141    1
    67   144   145    1
    68   213   214    1
    69    11    10    1
    70    11    18   am
    71     3     4    2
    72     3     2    1
    73   232   230   ar
    74    10    13    1
    75   230   231   ar
    76   147   145    1
    77   215   216    2
    78   215   214    1
    79    55    53    1
    80   141   142    1
    81    23    22    1
    82    23    25   ar
    83     1     2    1
    84    53    50    1
    85   145   146    1
    86     2     5    1
    87   214   217    1
    88   189   188    2
    89   142   143    2
    90   209   210    1
    91    13    14    1
    92   212   210   am
    93     7     6   ar
    94   117   116    2
    95   210   211    2
    96   217   218    1
    97   188   187    1
    98   220   218   ar
    99   220   222   ar
   100    50    49    1
   101    50    51    1
   102   192   194   ar
   103   192   191   ar
   104    52    51    2
   105     5     6    1
   106   190   187    1
   107   190   191    1
   108    14    15    1
   109   187   186    1
   110   218   219   ar
   111   116   115    1
   112   194   196   ar
   113   222   223   ar
   114     6     8   ar
   115   191   193   ar
   116   114   115    1
   117   115   118    1
   118   223   224    1
   119   223   221   ar
   120   219   221   ar
   121   148   149    1
   122    62    61    1
   123    62    63    1
   124   196   195   ar
   125    15    16    1
   126    61    58    1
   127   193   195   ar
   128   152   149    1
   129   152   153    1
   130    57    58    1
   131   118   119    1
   132   149   150    1
   133    16    17    1
   134    58    59    1
   135   155   153    1
   136    63    64    1
   137   120   119   ar
   138   120   122   ar
   139   104   102   am
   140   108   107    2
   141   153   154    1
   142   119   121   ar
   143   150   151    2
   144   122   124   ar
   145   103   102    2
   146   102   101    1
   147    59    60    2
   148    59    65   am
   149   107   106    1
   150   106   105    1
   151   106   109    1
   152   121   123   ar
   153    94    92   ar
   154    94    95   ar
   155   124   123   ar
   156   124   125    1
   157    96    95    1
   158    65    66    1
   159    92    90   ar
   160   109   110    1
   161   101    98    1
   162   185   183   ar
   163   185   184   ar
   164    95    93   ar
   165   183   181   ar
   166   184   182   ar
   167    90    89    1
   168    90    91   ar
   169    93    91   ar
   170    98    97    1
   171    98    99    1
   172    89    86    1
   173   175   174    2
   174    66    67    1
   175   110   111    1
   176    97    87   am
   177   181   179   ar
   178   181   180   ar
   179    68    67    2
   180   182   179   ar
   181   163   161    1
   182   174   173    1
   183    87    86    1
   184    87    88    2
   185   179   177   ar
   186   180   178   ar
   187   111   112    1
   188    99   100    2
   189   170   169    1
   190    86    85    1
   191    85    82   am
   192   161   160    1
   193   178   177   ar
   194   177   176    1
   195   173   176    1
   196   173   172    1
   197   112   113    1
   198    84    81    1
   199    82    81    1
   200    82    83    2
   201   171   169    1
   202   169   168    1
   203    79    77    1
   204    81    80    1
   205   162   160    1
   206    78    77    1
   207   160   157    1
   208   168   165    1
   209    77    76    2
   210    80    71   am
   211    72    71    2
   212   157   156    1
   213   157   158    1
   214   165   166    1
   215   165   164    1
   216    76    75    1
   217    71    70    1
   218   166   167    2
   219   159   158    2
   220    74    75    1
   221    74    73    1
   222    70    73    1
   223    70    69    1
