@<TRIPOS>MOLECULE
tmp/4p5iA01.pdb
 116 109 0 0 0
SMALL
GASTEIGER

@<TRIPOS>ATOM
      1  N          9.3650   26.4370    8.6920 N.3    26  ARG26      -0.1245
      2  CA         9.1860   26.3900   10.1470 C.3    26  ARG26       0.1563
      3  C          9.2730   24.9750   10.6910 C.2    26  ARG26       0.2260
      4  O          8.6610   24.0430   10.1570 O.2    26  ARG26      -0.2867
      5  CB         7.8800   27.0600   10.5720 C.3    26  ARG26       0.0307
      6  CG         7.8330   28.5480   10.2130 C.3    26  ARG26       0.0489
      7  CD         6.5100   29.1590   10.5730 C.3    26  ARG26       0.2205
      8  NE         6.3140   29.1100   12.0120 N.pl3  26  ARG26      -0.0865
      9  CZ         5.1910   29.4660   12.6180 C.cat  26  ARG26       0.5346
     10  NH1        4.1590   29.8960   11.8970 N.pl3  26  ARG26       0.1354
     11  NH2        5.1030   29.3850   13.9410 N.pl3  26  ARG26       0.1354
     12  N          9.1540   22.6680   14.3840 N.3    28  GLN28      -0.1245
     13  CA         9.0030   22.4810   15.8310 C.3    28  GLN28       0.1566
     14  C          9.2960   21.0360   16.1560 C.2    28  GLN28       0.2260
     15  O          8.7980   20.1290   15.4920 O.2    28  GLN28      -0.2867
     16  CB         7.6050   22.8260   16.3180 C.3    28  GLN28       0.0367
     17  CG         7.1260   24.2040   15.9120 C.3    28  GLN28       0.0905
     18  CD         6.4570   24.2150   14.5540 C.2    28  GLN28       0.2608
     19  OE1        6.0720   23.1660   14.0240 O.2    28  GLN28      -0.2717
     20  NE2        6.3190   25.4030   13.9750 N.am   28  GLN28      -0.0878
     21  N         16.1930   32.2140   12.9380 N.3    92  TYR92      -0.1241
     22  CA        15.7930   31.9980   14.3210 C.3    92  TYR92       0.1605
     23  C         15.9300   30.5470   14.7570 C.2    92  TYR92       0.2264
     24  O         15.5310   29.6340   14.0360 O.2    92  TYR92      -0.2867
     25  CB        14.3410   32.4440   14.5120 C.3    92  TYR92       0.0534
     26  CG        13.6790   31.9410   15.7750 C.ar   92  TYR92      -0.0201
     27  CD1       14.1310   32.3350   17.0450 C.ar   92  TYR92      -0.0009
     28  CD2       12.5630   31.1080   15.6990 C.ar   92  TYR92      -0.0009
     29  CE1       13.4960   31.8660   18.2060 C.ar   92  TYR92       0.0417
     30  CE2       11.9240   30.6510   16.8330 C.ar   92  TYR92       0.0417
     31  CZ        12.3900   31.0260   18.0830 C.ar   92  TYR92       0.1957
     32  OH        11.7240   30.5460   19.1890 O.3    92  TYR92      -0.2866
     33  N         15.2480   28.5570   18.6800 N.3    94  GLY94      -0.1210
     34  CA        14.8870   28.7080   20.0800 C.3    94  GLY94       0.1956
     35  C         14.8880   27.3460   20.7390 C.2    94  GLY94       0.2612
     36  O         14.4470   26.3670   20.1380 O.2    94  GLY94      -0.2717
     37  N         15.4110   27.2710   21.9580 N.am   95  LEU95      -0.1965
     38  CA        15.4580   26.0150   22.6960 C.3    95  LEU95       0.1728
     39  C         14.7390   26.1810   24.0230 C.2    95  LEU95       0.2616
     40  O         14.8470   27.2250   24.6570 O.2    95  LEU95      -0.2715
     41  CB        16.8940   25.5930   22.9980 C.3    95  LEU95       0.0311
     42  CG        17.9450   25.2830   21.9380 C.3    95  LEU95       0.0022
     43  CD1       19.2420   24.7550   22.6090 C.3    95  LEU95       0.0001
     44  CD2       17.4050   24.3040   20.9150 C.3    95  LEU95       0.0001
     45  N         14.0350   25.1380   24.4500 N.am   96  GLY96      -0.1955
     46  CA        13.3880   25.1210   25.7490 C.3    96  GLY96       0.1869
     47  C         13.8940   23.8680   26.4300 C.2    96  GLY96       0.2309
     48  O         13.7420   22.7780   25.8960 O.2    96  GLY96      -0.2863
     49  N         12.8630   21.2520   23.7310 N.3   107  TYR107     -0.1241
     50  CA        12.0560   21.7860   22.6380 C.3   107  TYR107      0.1605
     51  C         12.8980   22.6370   21.7000 C.2   107  TYR107      0.2264
     52  O         13.7150   23.4400   22.1620 O.2   107  TYR107     -0.2867
     53  CB        10.8730   22.5980   23.1930 C.3   107  TYR107      0.0534
     54  CG         9.8840   21.7460   23.9690 C.ar  107  TYR107     -0.0201
     55  CD1        8.7430   21.2390   23.3620 C.ar  107  TYR107     -0.0009
     56  CD2       10.1170   21.4190   25.3020 C.ar  107  TYR107     -0.0009
     57  CE1        7.8510   20.4540   24.0660 C.ar  107  TYR107      0.0417
     58  CE2        9.2320   20.6370   26.0100 C.ar  107  TYR107      0.0417
     59  CZ         8.1010   20.1590   25.3960 C.ar  107  TYR107      0.1957
     60  OH         7.2250   19.3770   26.1170 O.3   107  TYR107     -0.2866
     61  N         12.6280   25.2170   18.1860 N.3   109  ASN109     -0.1240
     62  CA        12.0640   25.9240   17.0080 C.3   109  ASN109      0.1653
     63  C         13.1810   26.3300   16.0660 C.2   109  ASN109      0.2266
     64  O         14.1910   26.8770   16.5070 O.2   109  ASN109     -0.2867
     65  CB        11.3920   27.2410   17.3450 C.3   109  ASN109      0.1155
     66  CG        10.1000   27.0840   18.1060 C.2   109  ASN109      0.2627
     67  OD1        9.3310   26.1670   17.8740 O.2   109  ASN109     -0.2716
     68  ND2        9.8580   28.0090   19.0310 N.am  109  ASN109     -0.0877
     69  N          4.8350   23.2550   22.3600 N.3   222  ILE222     -0.1231
     70  CA         6.0110   24.1150   22.2510 C.3   222  ILE222      0.1692
     71  C          5.6900   25.5930   22.4980 C.2   222  ILE222      0.2591
     72  O          6.5890   26.4010   22.7440 O.2   222  ILE222     -0.2718
     73  CB         6.7040   23.9340   20.8760 C.3   222  ILE222      0.0266
     74  CG1        8.1950   24.2910   20.9610 C.3   222  ILE222      0.0019
     75  CG2        5.9440   24.7050   19.7590 C.3   222  ILE222      0.0020
     76  CD1        9.0380   23.6610   19.8310 C.3   222  ILE222      0.0001
     77  N          4.4080   25.9430   22.4400 N.am  223  LYS223     -0.1980
     78  CA         3.9890   27.3110   22.7200 C.3   223  LYS223      0.1596
     79  C          3.7580   27.5120   24.2060 C.2   223  LYS223      0.2287
     80  O          3.4800   28.6290   24.6480 O.2   223  LYS223     -0.2864
     81  CB         2.7260   27.6780   21.9360 C.3   223  LYS223      0.0298
     82  CG         2.9340   27.8100   20.4480 C.3   223  LYS223      0.0038
     83  CD         1.6700   27.4440   19.7040 C.3   223  LYS223      0.0206
     84  CE         1.8280   27.6330   18.2020 C.3   223  LYS223      0.1093
     85  NZ         2.1450   29.0410   17.8430 N.3   223  LYS223     -0.1314
     86  N          5.9360   26.0810   26.9840 N.3   225  VAL225     -0.1231
     87  CA         6.9940   25.4830   27.8010 C.3   225  VAL225      0.1692
     88  C          7.8110   26.5200   28.5600 C.2   225  VAL225      0.2592
     89  O          8.6330   26.1690   29.4080 O.2   225  VAL225     -0.2718
     90  CB         7.9210   24.5560   26.9830 C.3   225  VAL225      0.0266
     91  CG1        7.1310   23.3680   26.4500 C.3   225  VAL225      0.0020
     92  CG2        8.5910   25.3260   25.8460 C.3   225  VAL225      0.0020
     93  N          7.5770   27.7940   28.2540 N.am  226  GLY226     -0.1957
     94  CA         8.2120   28.8740   28.9790 C.3   226  GLY226      0.1869
     95  C          7.9840   28.8360   30.4840 C.2   226  GLY226      0.2309
     96  O          8.8640   29.2240   31.2630 O.2   226  GLY226     -0.2863
     97  N         14.5260   28.9640   28.7110 N.3   231  MET231     -0.1230
     98  CA        14.3500   29.3160   27.3000 C.3   231  MET231      0.1702
     99  C         15.5820   30.0670   26.8190 C.2   231  MET231      0.2592
    100  O         16.1020   30.9340   27.5140 O.2   231  MET231     -0.2718
    101  CB        13.1160   30.1950   27.1000 C.3   231  MET231      0.0401
    102  CG        11.8150   29.5830   27.6360 C.3   231  MET231      0.0596
    103  SD        11.1830   28.2630   26.5760 S.3   231  MET231     -0.1393
    104  CE        10.2830   29.2710   25.3770 C.3   231  MET231      0.0692
    105  N         16.0750   29.7120   25.6430 N.am  232  CYS232     -0.1956
    106  CA        17.1340   30.4940   25.0110 C.3   232  CYS232      0.1843
    107  C         16.8720   30.5480   23.5170 C.2   232  CYS232      0.2626
    108  O         16.2520   29.6630   22.9470 O.2   232  CYS232     -0.2714
    109  CB        18.5470   29.9630   25.3120 C.3   232  CYS232      0.0997
    110  SG        18.7990   28.3020   24.7630 S.3   232  CYS232     -0.0797
    111  N         17.3030   31.6200   22.8870 N.am  233  SER233     -0.1950
    112  CA        16.9790   31.8000   21.4920 C.3   233  SER233      0.1924
    113  C         18.0200   32.6970   20.8920 C.2   233  SER233      0.2314
    114  O         18.6620   33.4730   21.5990 O.2   233  SER233     -0.2863
    115  CB        15.6050   32.4390   21.3370 C.3   233  SER233      0.2116
    116  OG        15.5710   33.6200   22.0960 O.3   233  SER233     -0.2180
@<TRIPOS>BOND
     1     1     2    1
     2     2     5    1
     3     2     3    1
     4     4     3    2
     5     6     5    1
     6     6     7    1
     7     7     8    1
     8    10     9    1
     9     8     9    2
    10     9    11    1
    11    21    22    1
    12    20    18   am
    13    19    18    2
    14    24    23    2
    15    22    25    1
    16    22    23    1
    17    12    13    1
    18    25    26    1
    19    18    17    1
    20    15    14    2
    21    28    26   ar
    22    28    30   ar
    23    26    27   ar
    24    13    14    1
    25    13    16    1
    26    17    16    1
    27    63    64    2
    28    63    62    1
    29    30    31   ar
    30    62    65    1
    31    62    61    1
    32    27    29   ar
    33    65    66    1
    34    85    84    1
    35    67    66    2
    36    31    29   ar
    37    31    32    1
    38    66    68   am
    39    84    83    1
    40    33    34    1
    41    83    82    1
    42    75    73    1
    43    76    74    1
    44    34    35    1
    45    36    35    2
    46    82    81    1
    47    35    37   am
    48    73    74    1
    49    73    70    1
    50   113   112    1
    51   113   114    2
    52    44    42    1
    53   115   112    1
    54   115   116    1
    55   112   111    1
    56    51    52    2
    57    51    50    1
    58    81    78    1
    59    42    43    1
    60    42    41    1
    61    37    38    1
    62    70    69    1
    63    70    71    1
    64    77    71   am
    65    77    78    1
    66    71    72    2
    67    50    53    1
    68    50    49    1
    69    38    41    1
    70    38    39    1
    71    78    79    1
    72   111   107   am
    73   108   107    2
    74    53    54    1
    75    55    54   ar
    76    55    57   ar
    77   107   106    1
    78    54    56   ar
    79    39    45   am
    80    39    40    2
    81    57    59   ar
    82    79    80    2
    83    45    46    1
    84   110   109    1
    85   106   109    1
    86   106   105    1
    87    56    58   ar
    88   104   103    1
    89    59    58   ar
    90    59    60    1
    91   105    99   am
    92    46    47    1
    93    92    90    1
    94    48    47    2
    95    91    90    1
    96   103   102    1
    97    99    98    1
    98    99   100    2
    99    90    87    1
   100    86    87    1
   101   101    98    1
   102   101   102    1
   103    98    97    1
   104    87    88    1
   105    93    88   am
   106    93    94    1
   107    88    89    2
   108    94    95    1
   109    95    96    2
