@<TRIPOS>MOLECULE
tmp/4p5iA00.pdb
 74 69 0 0 0
SMALL
GASTEIGER

@<TRIPOS>ATOM
      1  N         22.2500   25.1380   14.7510 N.3    69  THR69      -0.1218
      2  CA        22.6550   24.2430   15.8240 C.3    69  THR69       0.1862
      3  C         22.2760   24.8110   17.1940 C.2    69  THR69       0.2287
      4  O         22.3650   26.0200   17.4340 O.2    69  THR69      -0.2866
      5  CB        24.1670   23.9520   15.7830 C.3    69  THR69       0.1770
      6  OG1       24.8730   25.1840   15.6660 O.3    69  THR69      -0.2211
      7  CG2       24.5340   23.0680   14.5710 C.3    69  THR69       0.0375
      8  N         22.7640   23.5580   21.5150 N.3    71  GLU71      -0.1245
      9  CA        23.1860   22.5810   22.5090 C.3    71  GLU71       0.1567
     10  C         22.7380   23.0000   23.9130 C.2    71  GLU71       0.2260
     11  O         23.0010   24.1170   24.3410 O.2    71  GLU71      -0.2867
     12  CB        24.6980   22.4050   22.4690 C.3    71  GLU71       0.0388
     13  CG        25.2120   21.3760   23.4620 C.3    71  GLU71       0.1160
     14  CD        26.6950   21.1270   23.3240 C.2    71  GLU71       0.3649
     15  OE1       27.2510   21.3900   22.2360 O.co2  71  GLU71      -0.2457
     16  OE2       27.3040   20.6740   24.3100 O.co2  71  GLU71      -0.2457
     17  N         23.0470   17.8400   21.7250 N.3    76  ASN76      -0.1225
     18  CA        23.3140   18.8080   20.6670 C.3    76  ASN76       0.1785
     19  C         22.5060   18.5170   19.4060 C.2    76  ASN76       0.2597
     20  O         22.4560   17.3820   18.9260 O.2    76  ASN76      -0.2718
     21  CB        24.8200   19.0140   20.3960 C.3    76  ASN76       0.1169
     22  CG        25.5570   17.7230   19.9980 C.2    76  ASN76       0.2627
     23  OD1       25.0800   16.6140   20.2290 O.2    76  ASN76      -0.2716
     24  ND2       26.7410   17.8940   19.4000 N.am   76  ASN76      -0.0877
     25  N         21.8420   19.5510   18.8990 N.am   77  VAL77      -0.1966
     26  CA        20.9380   19.4110   17.7640 C.3    77  VAL77       0.1727
     27  C         21.4990   20.1280   16.5450 C.2    77  VAL77       0.2616
     28  O         22.1400   21.1720   16.6670 O.2    77  VAL77      -0.2715
     29  CB        19.5250   19.9520   18.1140 C.3    77  VAL77       0.0290
     30  CG1       18.6120   19.9410   16.9050 C.3    77  VAL77       0.0023
     31  CG2       18.9170   19.1250   19.2350 C.3    77  VAL77       0.0023
     32  N         21.2520   19.5640   15.3660 N.am   78  SER78      -0.1950
     33  CA        21.6770   20.1710   14.1130 C.3    78  SER78       0.1924
     34  C         20.5020   20.0560   13.1720 C.2    78  SER78       0.2314
     35  O         19.9530   18.9700   13.0130 O.2    78  SER78      -0.2863
     36  CB        22.8730   19.4150   13.5310 C.3    78  SER78       0.2116
     37  OG        23.4120   20.0710   12.4020 O.3    78  SER78      -0.2180
     38  N         20.0170   16.1030   12.9820 N.3   143  GLN143     -0.1231
     39  CA        20.9090   15.2610   13.7630 C.3   143  GLN143      0.1698
     40  C         20.8300   15.6590   15.2280 C.2   143  GLN143      0.2592
     41  O         20.8320   16.8420   15.5480 O.2   143  GLN143     -0.2718
     42  CB        22.3500   15.4180   13.3010 C.3   143  GLN143      0.0381
     43  CG        22.5740   15.1860   11.8260 C.3   143  GLN143      0.0905
     44  CD        24.0260   14.8820   11.5350 C.2   143  GLN143      0.2608
     45  OE1       24.6360   14.0570   12.2140 O.2   143  GLN143     -0.2717
     46  NE2       24.5970   15.5610   10.5420 N.am  143  GLN143     -0.0878
     47  N         20.7730   14.6640   16.1080 N.am  144  ILE144     -0.1966
     48  CA        20.7130   14.8980   17.5370 C.3   144  ILE144      0.1727
     49  C         21.7360   14.0010   18.2190 C.2   144  ILE144      0.2616
     50  O         21.6240   12.7720   18.1800 O.2   144  ILE144     -0.2715
     51  CB        19.3260   14.5710   18.0950 C.3   144  ILE144      0.0290
     52  CG1       18.2380   15.2830   17.2810 C.3   144  ILE144      0.0022
     53  CG2       19.2570   14.9690   19.5460 C.3   144  ILE144      0.0023
     54  CD1       16.8370   14.9280   17.6980 C.3   144  ILE144      0.0001
     55  N         22.7260   14.6350   18.8130 N.am  145  GLY145     -0.1955
     56  CA        23.8010   13.9530   19.4650 C.3   145  GLY145      0.1869
     57  C         23.7120   14.1270   20.9570 C.2   145  GLY145      0.2309
     58  O         22.7950   14.7100   21.4770 O.2   145  GLY145     -0.2863
     59  N         26.4760   15.2170   23.1120 N.3   147  ASP147     -0.1225
     60  CA        27.6980   15.7000   23.7280 C.3   147  ASP147      0.1805
     61  C         27.5570   16.9260   24.5800 C.2   147  ASP147      0.2597
     62  O         26.6360   17.6920   24.4070 O.2   147  ASP147     -0.2718
     63  CB        28.8050   15.8470   22.7360 C.3   147  ASP147      0.1424
     64  CG        29.5000   14.5610   22.4910 C.2   147  ASP147      0.3668
     65  OD1       28.8490   13.6060   22.0110 O.co2 147  ASP147     -0.2456
     66  OD2       30.6960   14.4840   22.7930 O.co2 147  ASP147     -0.2456
     67  N         28.4480   17.0690   25.5450 N.am  148  ASN148     -0.1974
     68  CA        29.6720   16.2860   25.6410 C.3   148  ASN148      0.1688
     69  C         29.6480   15.1590   26.6820 C.2   148  ASN148      0.2292
     70  O         30.6060   14.9700   27.4040 O.2   148  ASN148     -0.2864
     71  CB        30.8450   17.2040   25.9490 C.3   148  ASN148      0.1181
     72  CG        31.5530   17.6830   24.7070 C.2   148  ASN148      0.2629
     73  OD1       32.4040   16.9910   24.1610 O.2   148  ASN148     -0.2716
     74  ND2       31.2070   18.8770   24.2530 N.am  148  ASN148     -0.0877
@<TRIPOS>BOND
     1    46    44   am
     2    44    43    1
     3    44    45    2
     4    43    42    1
     5    37    36    1
     6    38    39    1
     7    35    34    2
     8    34    33    1
     9    42    39    1
    10    36    33    1
    11    39    40    1
    12    33    32    1
    13     7     5    1
    14     1     2    1
    15    40    41    2
    16    40    47   am
    17    32    27   am
    18     6     5    1
    19     5     2    1
    20     2     3    1
    21    47    48    1
    22    27    28    2
    23    27    26    1
    24    30    29    1
    25     3     4    2
    26    52    54    1
    27    52    51    1
    28    48    51    1
    29    48    49    1
    30    26    29    1
    31    26    25    1
    32    51    53    1
    33    29    31    1
    34    50    49    2
    35    49    55   am
    36    55    56    1
    37    25    19   am
    38    20    19    2
    39    24    22   am
    40    19    18    1
    41    56    57    1
    42    22    23    2
    43    22    21    1
    44    21    18    1
    45    18    17    1
    46    57    58    2
    47     8     9    1
    48    65    64   ar
    49    15    14   ar
    50    12     9    1
    51    12    13    1
    52    64    63    1
    53    64    66   ar
    54     9    10    1
    55    63    60    1
    56    59    60    1
    57    14    13    1
    58    14    16   ar
    59    60    61    1
    60    10    11    2
    61    73    72    2
    62    74    72   am
    63    62    61    2
    64    61    67   am
    65    72    71    1
    66    67    68    1
    67    68    71    1
    68    68    69    1
    69    69    70    2
