@<TRIPOS>MOLECULE
tmp/4p5qA00.pdb
 188 176 0 0 0
SMALL
GASTEIGER

@<TRIPOS>ATOM
      1  N          7.3840  -18.2700  -15.2180 N.3    19  VAL19      -0.1231
      2  CA         5.9920  -18.7010  -15.3020 C.3    19  VAL19       0.1692
      3  C          5.2950  -18.2440  -16.5780 C.2    19  VAL19       0.2593
      4  O          4.1530  -18.6220  -16.8340 O.2    19  VAL19      -0.2718
      5  CB         5.1760  -18.1910  -14.0990 C.3    19  VAL19       0.0266
      6  CG1        5.8060  -18.6590  -12.7990 C.3    19  VAL19       0.0020
      7  CG2        5.0710  -16.6760  -14.1320 C.3    19  VAL19       0.0020
      8  N          5.9750  -17.4300  -17.3770 N.am   20  GLY20      -0.1942
      9  CA         5.3840  -16.9450  -18.6090 C.3    20  GLY20       0.2014
     10  C          6.3310  -16.1570  -19.4870 C.2    20  GLY20       0.2639
     11  O          7.3950  -15.7220  -19.0490 O.2    20  GLY20      -0.2714
     12  N          5.9380  -15.9840  -20.7420 N.am   21  ALA21      -0.1963
     13  CA         6.6890  -15.1630  -21.6780 C.3    21  ALA21       0.1728
     14  C          5.9480  -13.8510  -21.8890 C.2    21  ALA21       0.2616
     15  O          4.7950  -13.8450  -22.3170 O.2    21  ALA21      -0.2715
     16  CB         6.8860  -15.8930  -22.9990 C.3    21  ALA21       0.0334
     17  N          6.6040  -12.7410  -21.5690 N.am   22  GLY22      -0.1955
     18  CA         5.9940  -11.4330  -21.7180 C.3    22  GLY22       0.1869
     19  C          6.4640  -10.7310  -22.9780 C.2    22  GLY22       0.2309
     20  O          7.3600  -11.2160  -23.6710 O.2    22  GLY22      -0.2863
     21  N          8.5090  -13.6220  -17.6020 N.3    27  VAL27      -0.1245
     22  CA         7.8130  -13.3320  -16.3620 C.3    27  VAL27       0.1561
     23  C          8.1070  -14.4580  -15.3850 C.2    27  VAL27       0.2260
     24  O          8.0240  -15.6400  -15.7350 O.2    27  VAL27      -0.2867
     25  CB         6.2990  -13.1790  -16.5710 C.3    27  VAL27       0.0252
     26  CG1        5.6260  -12.7420  -15.2670 C.3    27  VAL27       0.0019
     27  CG2        6.0180  -12.1800  -17.6890 C.3    27  VAL27       0.0019
     28  N          7.9770  -15.9240  -11.0860 N.3    29  SER29      -0.1217
     29  CA         7.3960  -15.7810   -9.7640 C.3    29  SER29       0.1889
     30  C          8.5250  -15.8150   -8.7480 C.2    29  SER29       0.2288
     31  O          9.6160  -16.3030   -9.0400 O.2    29  SER29      -0.2866
     32  CB         6.3760  -16.8760   -9.4840 C.3    29  SER29       0.2089
     33  OG         6.9980  -18.1420   -9.4720 O.3    29  SER29      -0.2183
     34  N          4.9640  -11.4860   -8.5190 N.3    43  ALA43      -0.1231
     35  CA         5.2480  -11.7630   -9.9150 C.3    43  ALA43       0.1694
     36  C          6.3300  -10.8020  -10.3510 C.2    43  ALA43       0.2592
     37  O          6.3560   -9.6520   -9.9100 O.2    43  ALA43      -0.2718
     38  CB         4.0150  -11.6020  -10.7670 C.3    43  ALA43       0.0304
     39  N          7.2420  -11.2700  -11.1910 N.am   44  ILE44      -0.1966
     40  CA         8.3630  -10.4510  -11.6100 C.3    44  ILE44       0.1727
     41  C          8.5000  -10.4500  -13.1200 C.2    44  ILE44       0.2616
     42  O          8.8060  -11.4740  -13.7130 O.2    44  ILE44      -0.2715
     43  CB         9.6740  -10.9480  -10.9900 C.3    44  ILE44       0.0290
     44  CG1        9.5460  -11.0260   -9.4680 C.3    44  ILE44       0.0022
     45  CG2       10.8290  -10.0440  -11.4040 C.3    44  ILE44       0.0023
     46  CD1       10.4490  -12.0540   -8.8390 C.3    44  ILE44       0.0001
     47  N          8.2530   -9.3010  -13.7360 N.am   45  LYS45      -0.1977
     48  CA         8.5190   -9.1320  -15.1550 C.3    45  LYS45       0.1596
     49  C          9.9300   -8.6340  -15.3510 C.2    45  LYS45       0.2287
     50  O         10.3500   -7.6690  -14.7110 O.2    45  LYS45      -0.2864
     51  CB         7.5370   -8.1580  -15.7860 C.3    45  LYS45       0.0298
     52  CG         6.1900   -8.7660  -16.1000 C.3    45  LYS45       0.0038
     53  CD         5.2070   -7.6770  -16.4240 C.3    45  LYS45       0.0206
     54  CE         5.4550   -7.0910  -17.7820 C.3    45  LYS45       0.1093
     55  NZ         4.2040   -7.1110  -18.5770 N.3    45  LYS45      -0.1314
     56  N          4.7310    1.0640  -18.2060 N.3    62  GLU62      -0.1245
     57  CA         3.6290    0.3470  -17.5750 C.3    62  GLU62       0.1567
     58  C          3.6650    0.5270  -16.0680 C.2    62  GLU62       0.2260
     59  O          2.6240    0.7070  -15.4360 O.2    62  GLU62      -0.2867
     60  CB         3.6590   -1.1460  -17.8990 C.3    62  GLU62       0.0388
     61  CG         2.6630   -1.9290  -17.0420 C.3    62  GLU62       0.1160
     62  CD         2.5290   -3.3820  -17.4260 C.2    62  GLU62       0.3649
     63  OE1        3.5650   -4.0440  -17.6540 O.co2  62  GLU62      -0.2457
     64  OE2        1.3750   -3.8620  -17.4860 O.co2  62  GLU62      -0.2457
     65  N          0.7890    1.8930  -13.6900 N.3    66  MET66      -0.1245
     66  CA         0.2710    1.0020  -12.6460 C.3    66  MET66       0.1570
     67  C          0.4900    1.5860  -11.2550 C.2    66  MET66       0.2261
     68  O         -0.3730    1.4710  -10.3760 O.2    66  MET66      -0.2867
     69  CB         0.9270   -0.3810  -12.7440 C.3    66  MET66       0.0387
     70  CG         0.4870   -1.3920  -11.6680 C.3    66  MET66       0.0595
     71  SD         1.3010   -2.9970  -11.8540 S.3    66  MET66      -0.1393
     72  CE         1.8410   -2.8180  -13.5430 C.3    66  MET66       0.0692
     73  N         -4.0670   -4.5120  -10.0890 N.3    75  ILE75      -0.1245
     74  CA        -2.8130   -5.1770   -9.7310 C.3    75  ILE75       0.1561
     75  C         -1.8760   -4.1890   -9.0510 C.2    75  ILE75       0.2260
     76  O         -1.6720   -3.0680   -9.5330 O.2    75  ILE75      -0.2867
     77  CB        -2.1330   -5.7910  -10.9610 C.3    75  ILE75       0.0252
     78  CG1       -2.9270   -6.9990  -11.4410 C.3    75  ILE75       0.0019
     79  CG2       -0.7340   -6.2690  -10.6280 C.3    75  ILE75       0.0019
     80  CD1       -2.9300   -8.1610  -10.4560 C.3    75  ILE75       0.0001
     81  N          9.9830   -5.2870  -13.1250 N.3    89  ILE89      -0.1245
     82  CA         8.7590   -4.7660  -12.5420 C.3    89  ILE89       0.1561
     83  C          8.1930   -5.8460  -11.6150 C.2    89  ILE89       0.2260
     84  O          7.9730   -6.9810  -12.0390 O.2    89  ILE89      -0.2867
     85  CB         7.7260   -4.3990  -13.6130 C.3    89  ILE89       0.0252
     86  CG1        8.2410   -3.2590  -14.4940 C.3    89  ILE89       0.0019
     87  CG2        6.4080   -4.0280  -12.9690 C.3    89  ILE89       0.0019
     88  CD1        7.3880   -3.0350  -15.7360 C.3    89  ILE89       0.0001
     89  N          5.2140   -7.0990   -9.0160 N.3    91  THR91      -0.1203
     90  CA         3.8150   -6.8920   -8.6830 C.3    91  THR91       0.1994
     91  C          3.3300   -7.9830   -7.7560 C.2    91  THR91       0.2618
     92  O          4.0160   -8.9830   -7.5440 O.2    91  THR91      -0.2717
     93  CB         2.9210   -6.8830   -9.9320 C.3    91  THR91       0.1784
     94  OG1        2.9930   -8.1660  -10.5720 O.3    91  THR91      -0.2211
     95  CG2        3.3580   -5.7980  -10.8880 C.3    91  THR91       0.0376
     96  N          2.1520   -7.8400   -7.2250 N.am   92  GLU92      -0.1965
     97  CA         1.5750   -8.8590   -6.4010 C.3    92  GLU92       0.1733
     98  C          1.3630  -10.1330   -7.2120 C.2    92  GLU92       0.2616
     99  O          1.1570  -10.0680   -8.3490 O.2    92  GLU92      -0.2715
    100  CB         0.2560   -8.3970   -5.7830 C.3    92  GLU92       0.0429
    101  CG        -0.8810   -8.2740   -6.7670 C.3    92  GLU92       0.1163
    102  CD        -2.1550   -7.7770   -6.1310 C.2    92  GLU92       0.3649
    103  OE1       -2.6510   -8.3690   -5.2230 O.co2  92  GLU92      -0.2457
    104  OE2       -2.6340   -6.7560   -6.5680 O.co2  92  GLU92      -0.2457
    105  N          1.4940  -11.2640   -6.5510 N.am   93  TYR93      -0.1960
    106  CA         1.3630  -12.5680   -7.1680 C.3    93  TYR93       0.1771
    107  C         -0.1070  -12.9550   -7.2790 C.2    93  TYR93       0.2619
    108  O         -0.8890  -12.7470   -6.3440 O.2    93  TYR93      -0.2715
    109  CB         2.1290  -13.5860   -6.3360 C.3    93  TYR93       0.0574
    110  CG         2.0850  -14.9900   -6.8630 C.ar   93  TYR93      -0.0198
    111  CD1        2.7480  -15.3330   -8.0310 C.ar   93  TYR93      -0.0009
    112  CD2        1.3840  -15.9850   -6.1850 C.ar   93  TYR93      -0.0009
    113  CE1        2.7120  -16.6380   -8.5140 C.ar   93  TYR93       0.0417
    114  CE2        1.3460  -17.2780   -6.6520 C.ar   93  TYR93       0.0417
    115  CZ         2.0050  -17.5980   -7.8200 C.ar   93  TYR93       0.1957
    116  OH         1.9640  -18.8910   -8.2910 O.3    93  TYR93      -0.2866
    117  N         -0.4990  -13.4930   -8.4320 N.am   94  MET94      -0.1963
    118  CA        -1.8860  -13.8810   -8.6550 C.3    94  MET94       0.1736
    119  C         -1.9170  -15.3480   -9.0370 C.2    94  MET94       0.2616
    120  O         -1.6880  -15.7120  -10.1890 O.2    94  MET94      -0.2715
    121  CB        -2.5280  -13.0050   -9.7330 C.3    94  MET94       0.0427
    122  CG        -2.4850  -11.5140   -9.4050 C.3    94  MET94       0.0599
    123  SD        -3.5810  -11.0530   -8.0450 S.3    94  MET94      -0.1393
    124  CE        -5.1780  -11.0940   -8.8400 C.3    94  MET94       0.0692
    125  N         -2.2180  -16.1840   -8.0780 N.am   95  GLU95      -0.1963
    126  CA        -1.9510  -17.6180   -8.1990 C.3    95  GLU95       0.1733
    127  C         -2.7040  -18.2710   -9.3560 C.2    95  GLU95       0.2616
    128  O         -2.2130  -19.1710   -9.9230 O.2    95  GLU95      -0.2715
    129  CB        -2.3220  -18.2970   -6.9100 C.3    95  GLU95       0.0429
    130  CG        -2.0700  -19.7790   -6.8890 C.3    95  GLU95       0.1163
    131  CD        -2.3550  -20.2880   -5.5160 C.2    95  GLU95       0.3649
    132  OE1       -1.6480  -19.9040   -4.5930 O.co2  95  GLU95      -0.2457
    133  OE2       -3.3240  -20.9790   -5.3550 O.co2  95  GLU95      -0.2457
    134  N         -3.9010  -17.8190   -9.6230 N.am   96  ASN96      -0.1958
    135  CA        -4.7070  -18.4950  -10.6270 C.3    96  ASN96       0.1819
    136  C         -4.6340  -17.8750  -12.0150 C.2    96  ASN96       0.2622
    137  O         -5.3800  -18.2630  -12.8990 O.2    96  ASN96      -0.2715
    138  CB        -6.1550  -18.5870  -10.1440 C.3    96  ASN96       0.1195
    139  CG        -6.3280  -19.6660   -9.0870 C.2    96  ASN96       0.2630
    140  OD1       -5.8670  -20.7950   -9.2740 O.2    96  ASN96      -0.2716
    141  ND2       -6.9810  -19.3380   -7.9820 N.am   96  ASN96      -0.0877
    142  N         -3.7080  -16.9760  -12.2340 N.am   97  GLY97      -0.1940
    143  CA        -3.3860  -16.5060  -13.5520 C.3    97  GLY97       0.2014
    144  C         -4.4160  -15.6230  -14.2340 C.2    97  GLY97       0.2639
    145  O         -5.1670  -15.0150  -13.5980 O.2    97  GLY97      -0.2714
    146  N         -4.3970  -15.6790  -15.5570 N.am   98  SER98      -0.1949
    147  CA        -5.3610  -14.9110  -16.3330 C.3    98  SER98       0.1924
    148  C         -6.7680  -15.4820  -16.1810 C.2    98  SER98       0.2314
    149  O         -6.9600  -16.7010  -16.1330 O.2    98  SER98      -0.2863
    150  CB        -4.9560  -14.8800  -17.8080 C.3    98  SER98       0.2116
    151  OG        -3.7300  -14.1930  -17.9820 O.3    98  SER98      -0.2180
    152  N         -8.1310  -17.9650  -19.1110 N.3   101  SER101     -0.1217
    153  CA        -7.5510  -19.3040  -19.0530 C.3   101  SER101      0.1889
    154  C         -8.0160  -20.0470  -17.8010 C.2   101  SER101      0.2288
    155  O         -8.2520  -21.2540  -17.8420 O.2   101  SER101     -0.2866
    156  CB        -6.0210  -19.2470  -19.1020 C.3   101  SER101      0.2089
    157  OG        -5.4880  -18.4820  -18.0450 O.3   101  SER101     -0.2183
    158  N        -10.6270  -23.7560  -17.5930 N.3   105  LYS105     -0.1245
    159  CA       -10.3090  -25.0000  -16.8780 C.3   105  LYS105      0.1561
    160  C        -11.4690  -25.4650  -16.0180 C.2   105  LYS105      0.2260
    161  O        -11.4610  -26.5830  -15.4950 O.2   105  LYS105     -0.2867
    162  CB        -9.0900  -24.8050  -15.9820 C.3   105  LYS105      0.0271
    163  CG        -7.7950  -24.5840  -16.6990 C.3   105  LYS105      0.0035
    164  CD        -6.6760  -24.5020  -15.6790 C.3   105  LYS105      0.0206
    165  CE        -5.4940  -23.7200  -16.2010 C.3   105  LYS105      0.1093
    166  NZ        -4.4480  -23.6040  -15.1600 N.3   105  LYS105     -0.1314
    167  N         -6.4050  -10.6610  -13.8610 N.3   145  LEU145     -0.1245
    168  CA        -5.7070  -11.7160  -13.1350 C.3   145  LEU145      0.1561
    169  C         -6.5560  -12.0740  -11.9660 C.2   145  LEU145      0.2260
    170  O         -7.2980  -11.3040  -11.4800 O.2   145  LEU145     -0.2867
    171  CB        -4.3060  -11.2550  -12.7120 C.3   145  LEU145      0.0270
    172  CG        -3.3170  -11.0340  -13.8270 C.3   145  LEU145      0.0019
    173  CD1       -2.0660  -10.3520  -13.3160 C.3   145  LEU145      0.0001
    174  CD2       -2.9070  -12.3570  -14.4640 C.3   145  LEU145      0.0001
    175  N         -5.2700   -5.6770  -14.9250 N.3   155  SER155     -0.1202
    176  CA        -3.8600   -5.7120  -15.2830 C.3   155  SER155      0.2020
    177  C         -3.6240   -5.1410  -16.6700 C.2   155  SER155      0.2618
    178  O         -4.5250   -4.6510  -17.2620 O.2   155  SER155     -0.2717
    179  CB        -3.3240   -7.1570  -15.2180 C.3   155  SER155      0.2103
    180  OG        -1.9570   -7.1790  -15.3730 O.3   155  SER155     -0.2182
    181  N         -2.3890   -5.1750  -17.1270 N.am  156  ASP156     -0.1973
    182  CA        -2.0270   -4.7980  -18.4990 C.3   156  ASP156      0.1709
    183  C         -2.2640   -3.3290  -18.8110 C.2   156  ASP156      0.2293
    184  O         -3.2010   -2.9510  -19.5220 O.2   156  ASP156     -0.2864
    185  CB        -2.7710   -5.6680  -19.5130 C.3   156  ASP156      0.1436
    186  CG        -2.4680   -5.2710  -20.9440 C.2   156  ASP156      0.3671
    187  OD1       -1.3030   -4.9220  -21.2370 O.co2 156  ASP156     -0.2456
    188  OD2       -3.4060   -5.2770  -21.7650 O.co2 156  ASP156     -0.2456
@<TRIPOS>BOND
     1    20    19    2
     2    16    13    1
     3    19    18    1
     4    15    14    2
     5    14    13    1
     6    14    17   am
     7   188   186   ar
     8    18    17    1
     9    13    12    1
    10   187   186   ar
    11   186   185    1
    12    12    10   am
    13   184   183    2
    14   185   182    1
    15    10    11    2
    16    10     9    1
    17   152   153    1
    18   156   153    1
    19   156   157    1
    20   153   154    1
    21   183   182    1
    22     9     8    1
    23    55    54    1
    24   182   181    1
    25    56    57    1
    26   151   150    1
    27    60    57    1
    28    60    61    1
    29   155   154    2
    30   150   147    1
    31    54    53    1
    32    27    25    1
    33    63    62   ar
    34    21    22    1
    35   158   159    1
    36    57    58    1
    37    64    62   ar
    38    62    61    1
    39     8     3   am
    40   178   177    2
    41   181   177   am
    42   159   160    1
    43   159   162    1
    44     4     3    2
    45   163   162    1
    46   163   164    1
    47   177   176    1
    48     3     2    1
    49    25    22    1
    50    25    26    1
    51    53    52    1
    52    22    23    1
    53   147   148    1
    54   147   146    1
    55   165   164    1
    56   165   166    1
    57   148   149    2
    58    52    51    1
    59    58    59    2
    60   160   161    2
    61    51    48    1
    62    88    86    1
    63    24    23    2
    64   146   144   am
    65   180   179    1
    66    49    48    1
    67    49    50    2
    68     2     1    1
    69     2     5    1
    70   176   179    1
    71   176   175    1
    72    48    47    1
    73    86    85    1
    74   174   172    1
    75   144   145    2
    76   144   143    1
    77     7     5    1
    78     5     6    1
    79   167   168    1
    80   172   173    1
    81   172   171    1
    82    47    41   am
    83    42    41    2
    84    65    66    1
    85    85    87    1
    86    85    82    1
    87   143   142    1
    88    72    71    1
    89   168   171    1
    90   168   169    1
    91    81    82    1
    92    41    40    1
    93   137   136    2
    94    69    66    1
    95    69    70    1
    96    66    67    1
    97    82    83    1
    98   142   136   am
    99    84    83    2
   100   136   135    1
   101   169   170    2
   102    71    70    1
   103    40    39    1
   104    40    43    1
   105    78    77    1
   106    78    80    1
   107    45    43    1
   108    67    68    2
   109    39    36   am
   110    28    29    1
   111    43    44    1
   112    77    79    1
   113    77    74    1
   114    95    93    1
   115    38    35    1
   116   135   138    1
   117   135   134    1
   118    94    93    1
   119    36    35    1
   120    36    37    2
   121   120   119    2
   122   138   139    1
   123    73    74    1
   124    93    90    1
   125   128   127    2
   126    35    34    1
   127    29    32    1
   128    29    30    1
   129   121   122    1
   130   121   118    1
   131    74    75    1
   132   134   127   am
   133    76    75    2
   134    32    33    1
   135    44    46    1
   136   122   123    1
   137   127   126    1
   138   140   139    2
   139   139   141   am
   140    31    30    2
   141   119   118    1
   142   119   125   am
   143    89    90    1
   144   124   123    1
   145    90    91    1
   146   118   117    1
   147   113   111   ar
   148   113   115   ar
   149   117   107   am
   150    99    98    2
   151   116   115    1
   152   126   125    1
   153   126   129    1
   154   111   110   ar
   155   115   114   ar
   156    91    92    2
   157    91    96   am
   158   107   106    1
   159   107   108    2
   160    96    97    1
   161    98   105   am
   162    98    97    1
   163   106   105    1
   164   106   109    1
   165   129   130    1
   166   130   131    1
   167   110   109    1
   168   110   112   ar
   169   101   102    1
   170   101   100    1
   171   114   112   ar
   172   104   102   ar
   173    97   100    1
   174   102   103   ar
   175   131   133   ar
   176   131   132   ar
