@<TRIPOS>MOLECULE
tmp/4p5yA00.pdb
 98 92 0 0 0
SMALL
GASTEIGER

@<TRIPOS>ATOM
      1  N        -14.2590   14.2970   12.5770 N.3    26  ASP26      -0.1239
      2  CA       -14.1870   15.3610   13.5660 C.3    26  ASP26       0.1674
      3  C        -15.2190   16.4440   13.2520 C.2    26  ASP26       0.2266
      4  O        -16.3860   16.1440   13.0360 O.2    26  ASP26      -0.2867
      5  CB       -12.7680   15.9290   13.5980 C.3    26  ASP26       0.1410
      6  CG       -11.7340   14.8630   13.9210 C.2    26  ASP26       0.3668
      7  OD1      -12.0160   14.0520   14.8300 O.co2  26  ASP26      -0.2456
      8  OD2      -10.6650   14.8170   13.2700 O.co2  26  ASP26      -0.2456
      9  N        -14.6200   18.5620   10.6470 N.3    28  ASP28      -0.1239
     10  CA       -14.1480   19.0400    9.3570 C.3    28  ASP28       0.1674
     11  C        -15.0730   18.6220    8.2080 C.2    28  ASP28       0.2266
     12  O        -14.7610   17.7220    7.4330 O.2    28  ASP28      -0.2867
     13  CB       -12.7270   18.5420    9.1480 C.3    28  ASP28       0.1410
     14  CG       -11.7830   19.0800   10.2030 C.2    28  ASP28       0.3668
     15  OD1      -12.0910   20.1610   10.7430 O.co2  28  ASP28      -0.2456
     16  OD2      -10.7480   18.4450   10.4980 O.co2  28  ASP28      -0.2456
     17  N        -12.1050   17.2560    6.0490 N.3    43  HIS43      -0.1241
     18  CA       -11.1770   16.1580    6.2940 C.3    43  HIS43       0.1621
     19  C        -12.0130   14.8910    6.2180 C.2    43  HIS43       0.2264
     20  O        -13.1570   14.8790    6.6860 O.2    43  HIS43      -0.2867
     21  CB       -10.4960   16.3100    7.6590 C.3    43  HIS43       0.0745
     22  CG        -9.2310   15.5220    7.8130 C.ar   43  HIS43       0.0817
     23  ND1       -9.1980   14.1450    7.7690 N.ar   43  HIS43      -0.2268
     24  CD2       -7.9580   15.9190    8.0430 C.ar   43  HIS43       0.1154
     25  CE1       -7.9580   13.7290    7.9520 C.ar   43  HIS43       0.1986
     26  NE2       -7.1850   14.7860    8.1180 N.ar   43  HIS43      -0.2212
     27  N        -10.5670    8.7730    9.2170 N.3    46  TYR46      -0.1241
     28  CA        -9.2860    8.0910    9.3270 C.3    46  TYR46       0.1605
     29  C         -9.3530    6.9730   10.3490 C.2    46  TYR46       0.2264
     30  O         -8.3980    6.7290   11.0820 O.2    46  TYR46      -0.2867
     31  CB        -8.1680    9.0820    9.6830 C.3    46  TYR46       0.0534
     32  CG        -8.5020   10.0340   10.8150 C.ar   46  TYR46      -0.0201
     33  CD1       -8.2550    9.6920   12.1420 C.ar   46  TYR46      -0.0009
     34  CD2       -9.0530   11.2700   10.5560 C.ar   46  TYR46      -0.0009
     35  CE1       -8.5570   10.5570   13.1720 C.ar   46  TYR46       0.0417
     36  CE2       -9.3560   12.1430   11.5760 C.ar   46  TYR46       0.0417
     37  CZ        -9.1110   11.7890   12.8860 C.ar   46  TYR46       0.1957
     38  OH        -9.4240   12.6800   13.8980 O.3    46  TYR46      -0.2866
     39  N         -4.7340   22.3820    3.4400 N.3    74  ARG74      -0.1245
     40  CA        -4.7980   22.6620    4.8660 C.3    74  ARG74       0.1563
     41  C         -3.6000   23.5030    5.2940 C.2    74  ARG74       0.2260
     42  O         -2.4570   23.1170    5.0770 O.2    74  ARG74      -0.2867
     43  CB        -4.8300   21.3590    5.6440 C.3    74  ARG74       0.0307
     44  CG        -5.1110   21.4980    7.1190 C.3    74  ARG74       0.0489
     45  CD        -4.8500   20.1650    7.7860 C.3    74  ARG74       0.2205
     46  NE        -5.4700   20.0570    9.1010 N.pl3  74  ARG74      -0.0865
     47  CZ        -5.6680   18.8990    9.7250 C.cat  74  ARG74       0.5346
     48  NH1       -5.2980   17.7640    9.1460 N.pl3  74  ARG74       0.1354
     49  NH2       -6.2390   18.8780   10.9170 N.pl3  74  ARG74       0.1354
     50  N         -2.5940   24.6150    8.4900 N.3    76  ASN76      -0.1225
     51  CA        -1.8820   24.3660    9.7390 C.3    76  ASN76       0.1785
     52  C         -1.2100   23.0020    9.8430 C.2    76  ASN76       0.2597
     53  O         -0.5450   22.7160   10.8350 O.2    76  ASN76      -0.2718
     54  CB        -2.8230   24.5510   10.9460 C.3    76  ASN76       0.1169
     55  CG        -4.1280   23.7620   10.8290 C.2    76  ASN76       0.2627
     56  OD1       -4.3800   23.0630    9.8430 O.2    76  ASN76      -0.2716
     57  ND2       -4.9620   23.8760   11.8520 N.am   76  ASN76      -0.0877
     58  N         -1.3650   22.1750    8.8160 N.am   77  SER77      -0.1952
     59  CA        -0.9210   20.7870    8.8770 C.3    77  SER77       0.1924
     60  C         -0.9070   20.1610    7.4970 C.2    77  SER77       0.2314
     61  O         -1.7300   20.5070    6.6500 O.2    77  SER77      -0.2863
     62  CB        -1.8390   19.9790    9.8040 C.3    77  SER77       0.2116
     63  OG        -1.6040   18.5840    9.6930 O.3    77  SER77      -0.2180
     64  N         -1.5020   16.9990    7.0410 N.3    79  ASN79      -0.1240
     65  CA        -2.3930   15.8470    7.0710 C.3    79  ASN79       0.1653
     66  C         -3.5900   15.9920    6.1340 C.2    79  ASN79       0.2266
     67  O         -4.4730   16.8310    6.3420 O.2    79  ASN79      -0.2867
     68  CB        -2.8620   15.5800    8.5020 C.3    79  ASN79       0.1155
     69  CG        -1.9020   14.6830    9.2610 C.2    79  ASN79       0.2627
     70  OD1       -0.7690   14.4670    8.8240 O.2    79  ASN79      -0.2716
     71  ND2       -2.3530   14.1410   10.3900 N.am   79  ASN79      -0.0877
     72  N          0.5500   11.8700    8.4520 N.3   141  ASP141     -0.1225
     73  CA         1.2780   10.9750    9.3490 C.3   141  ASP141      0.1805
     74  C          1.1800    9.5490    8.8420 C.2   141  ASP141      0.2598
     75  O          2.1030    8.7610    9.0100 O.2   141  ASP141     -0.2718
     76  CB         0.7380   11.0740   10.7680 C.3   141  ASP141      0.1424
     77  CG         0.7880   12.4820   11.2990 C.2   141  ASP141      0.3668
     78  OD1        1.7700   13.1970   10.9910 O.co2 141  ASP141     -0.2456
     79  OD2       -0.1500   12.8750   12.0140 O.co2 141  ASP141     -0.2456
     80  N          0.0510    9.2270    8.2220 N.am  142  THR142     -0.1953
     81  CA        -0.0640    8.0280    7.4070 C.3   142  THR142      0.1897
     82  C         -0.4010    8.5100    6.0150 C.2   142  THR142      0.2313
     83  O         -1.3650    9.2440    5.8350 O.2   142  THR142     -0.2863
     84  CB        -1.1500    7.0620    7.9190 C.3   142  THR142      0.1794
     85  OG1       -1.0340    6.9180    9.3410 O.3   142  THR142     -0.2208
     86  CG2       -1.0130    5.7050    7.2520 C.3   142  THR142      0.0378
     87  N         -6.1100    9.4130    4.1830 N.3   146  TYR146     -0.1241
     88  CA        -7.1510   10.4130    4.3230 C.3   146  TYR146      0.1605
     89  C         -6.8290   11.6880    3.5490 C.2   146  TYR146      0.2264
     90  O         -5.6660   11.9970    3.2950 O.2   146  TYR146     -0.2867
     91  CB        -7.3870   10.7230    5.8070 C.3   146  TYR146      0.0534
     92  CG        -6.1340   10.8140    6.6280 C.ar  146  TYR146     -0.0201
     93  CD1       -5.3290   11.9470    6.5920 C.ar  146  TYR146     -0.0009
     94  CD2       -5.7500    9.7670    7.4440 C.ar  146  TYR146     -0.0009
     95  CE1       -4.1660   12.0300    7.3490 C.ar  146  TYR146      0.0417
     96  CE2       -4.5970    9.8400    8.2050 C.ar  146  TYR146      0.0417
     97  CZ        -3.8110   10.9710    8.1560 C.ar  146  TYR146      0.1957
     98  OH        -2.6710   11.0240    8.9200 O.3   146  TYR146     -0.2866
@<TRIPOS>BOND
     1    90    89    2
     2    39    40    1
     3    89    88    1
     4    87    88    1
     5    88    91    1
     6    40    41    1
     7    40    43    1
     8    42    41    2
     9    43    44    1
    10    91    92    1
    11    83    82    2
    12    82    81    1
    13    17    18    1
    14    66    67    2
    15    66    65    1
    16    19    18    1
    17    19    20    2
    18    18    21    1
    19    93    92   ar
    20    93    95   ar
    21    92    94   ar
    22    61    60    2
    23    64    65    1
    24    65    68    1
    25    44    45    1
    26    86    84    1
    27    95    97   ar
    28    81    84    1
    29    81    80    1
    30    12    11    2
    31    94    96   ar
    32    60    59    1
    33    21    22    1
    34    23    22   ar
    35    23    25   ar
    36    45    46    1
    37    22    24   ar
    38    84    85    1
    39    25    26   ar
    40    24    26   ar
    41    97    96   ar
    42    97    98    1
    43    11    10    1
    44    80    74   am
    45    72    73    1
    46    50    51    1
    47    68    69    1
    48    58    59    1
    49    58    52   am
    50    70    69    2
    51    74    75    2
    52    74    73    1
    53    59    62    1
    54    46    47    2
    55    48    47    1
    56    13    10    1
    57    13    14    1
    58    27    28    1
    59    69    71   am
    60    28    31    1
    61    28    29    1
    62    73    76    1
    63    10     9    1
    64    31    32    1
    65    63    62    1
    66    47    49    1
    67    51    52    1
    68    51    54    1
    69    52    53    2
    70    56    55    2
    71    14    16   ar
    72    14    15   ar
    73    29    30    2
    74    34    32   ar
    75    34    36   ar
    76    76    77    1
    77    32    33   ar
    78    55    54    1
    79    55    57   am
    80    78    77   ar
    81    77    79   ar
    82    36    37   ar
    83    33    35   ar
    84     1     2    1
    85    37    35   ar
    86    37    38    1
    87     4     3    2
    88     3     2    1
    89     8     6   ar
    90     2     5    1
    91     5     6    1
    92     6     7   ar
