@<TRIPOS>MOLECULE
tmp/4p5zA00.pdb
 217 206 0 0 0
SMALL
GASTEIGER

@<TRIPOS>ATOM
      1  N          7.4020  -17.8390  -15.4320 N.3    19  VAL19      -0.1231
      2  CA         6.0000  -18.2560  -15.5830 C.3    19  VAL19       0.1692
      3  C          5.3490  -17.7420  -16.8570 C.2    19  VAL19       0.2593
      4  O          4.1410  -17.8690  -17.0360 O.2    19  VAL19      -0.2718
      5  CB         5.1320  -17.7920  -14.3990 C.3    19  VAL19       0.0266
      6  CG1        5.7820  -18.1980  -13.0990 C.3    19  VAL19       0.0020
      7  CG2        4.8950  -16.2710  -14.4360 C.3    19  VAL19       0.0020
      8  N          6.1340  -17.1440  -17.7370 N.am   20  GLY20      -0.1942
      9  CA         5.5870  -16.6540  -18.9800 C.3    20  GLY20       0.2014
     10  C          6.5250  -15.7160  -19.6840 C.2    20  GLY20       0.2639
     11  O          7.4340  -15.1490  -19.0840 O.2    20  GLY20      -0.2714
     12  N          6.3220  -15.5940  -20.9830 N.am   21  ALA21      -0.1963
     13  CA         6.9440  -14.5410  -21.7410 C.3    21  ALA21       0.1728
     14  C          5.9400  -13.4190  -21.8140 C.2    21  ALA21       0.2616
     15  O          4.7840  -13.6370  -22.1760 O.2    21  ALA21      -0.2715
     16  CB         7.3310  -15.0180  -23.1130 C.3    21  ALA21       0.0334
     17  N          6.3700  -12.2280  -21.4300 N.am   22  GLY22      -0.1955
     18  CA         5.5500  -11.0480  -21.5600 C.3    22  GLY22       0.1869
     19  C          5.9390  -10.3800  -22.8590 C.2    22  GLY22       0.2309
     20  O          6.5240  -11.0200  -23.7380 O.2    22  GLY22      -0.2863
     21  N          8.1680  -12.9970  -17.5040 N.3    27  VAL27      -0.1245
     22  CA         7.5110  -12.7390  -16.2380 C.3    27  VAL27       0.1561
     23  C          7.8220  -13.9040  -15.3230 C.2    27  VAL27       0.2260
     24  O          7.7620  -15.0740  -15.7330 O.2    27  VAL27      -0.2867
     25  CB         6.0010  -12.5440  -16.3920 C.3    27  VAL27       0.0252
     26  CG1        5.3750  -12.1400  -15.0610 C.3    27  VAL27       0.0019
     27  CG2        5.6990  -11.4810  -17.4710 C.3    27  VAL27       0.0019
     28  N          5.0570  -11.0070   -8.5190 N.3    43  ALA43      -0.1245
     29  CA         5.3180  -11.2280   -9.9130 C.3    43  ALA43       0.1562
     30  C          6.4040  -10.2650  -10.2940 C.2    43  ALA43       0.2260
     31  O          6.3560   -9.0740   -9.9120 O.2    43  ALA43      -0.2867
     32  CB         4.0860  -10.9950  -10.7390 C.3    43  ALA43       0.0290
     33  N          8.3610   -8.8180  -13.6110 N.3    45  LYS45      -0.1245
     34  CA         8.4770   -8.5910  -15.0430 C.3    45  LYS45       0.1561
     35  C          9.8760   -8.1030  -15.3740 C.2    45  LYS45       0.2260
     36  O         10.2770   -7.0390  -14.9110 O.2    45  LYS45      -0.2867
     37  CB         7.4700   -7.5510  -15.5320 C.3    45  LYS45       0.0271
     38  CG         6.1420   -8.1100  -15.9570 C.3    45  LYS45       0.0035
     39  CD         5.2490   -7.0630  -16.5770 C.3    45  LYS45       0.0206
     40  CE         5.6750   -6.6740  -17.9770 C.3    45  LYS45       0.1093
     41  NZ         4.6520   -5.8030  -18.6060 N.3    45  LYS45      -0.1314
     42  N          4.7660    1.8730  -18.2520 N.3    62  GLU62      -0.1245
     43  CA         3.7570    1.0290  -17.6430 C.3    62  GLU62       0.1567
     44  C          3.8380    1.1180  -16.1000 C.2    62  GLU62       0.2260
     45  O          2.8130    1.1720  -15.4260 O.2    62  GLU62      -0.2867
     46  CB         3.9250   -0.4090  -18.1540 C.3    62  GLU62       0.0388
     47  CG         3.4120   -1.4740  -17.2240 C.3    62  GLU62       0.1160
     48  CD         3.3980   -2.8680  -17.8570 C.2    62  GLU62       0.3649
     49  OE1        4.3720   -3.6090  -17.6640 O.co2  62  GLU62      -0.2457
     50  OE2        2.4190   -3.2330  -18.5550 O.co2  62  GLU62      -0.2457
     51  N          2.4480    4.4230  -14.7190 N.3    65  ILE65      -0.1231
     52  CA         0.9920    4.4700  -14.7150 C.3    65  ILE65       0.1692
     53  C          0.4470    3.6580  -13.5320 C.2    65  ILE65       0.2591
     54  O         -0.2890    4.1680  -12.6670 O.2    65  ILE65      -0.2718
     55  CB         0.4340    3.9480  -16.0580 C.3    65  ILE65       0.0266
     56  CG1        0.7400    4.9650  -17.1590 C.3    65  ILE65       0.0019
     57  CG2       -1.0530    3.7000  -15.9520 C.3    65  ILE65       0.0020
     58  CD1        0.6310    4.3910  -18.5740 C.3    65  ILE65       0.0001
     59  N          0.8760    2.4090  -13.4590 N.am   66  MET66      -0.1979
     60  CA         0.4700    1.5240  -12.3800 C.3    66  MET66       0.1605
     61  C          0.7380    2.1320  -11.0160 C.2    66  MET66       0.2287
     62  O         -0.0230    1.9530  -10.0790 O.2    66  MET66      -0.2864
     63  CB         1.2220    0.1870  -12.4240 C.3    66  MET66       0.0413
     64  CG         1.0450   -0.6820  -13.5700 C.3    66  MET66       0.0598
     65  SD         2.0460   -2.1840  -13.2690 S.3    66  MET66      -0.1393
     66  CE         1.3730   -2.7180  -11.6810 C.3    66  MET66       0.0692
     67  N         -1.9880    4.1710   -9.1190 N.3    69  PHE69      -0.1241
     68  CA        -3.1840    3.5240   -8.5970 C.3    69  PHE69       0.1605
     69  C         -2.8960    2.7700   -7.3070 C.2    69  PHE69       0.2264
     70  O         -1.8590    2.1230   -7.1630 O.2    69  PHE69      -0.2867
     71  CB        -3.7580    2.6040   -9.6770 C.3    69  PHE69       0.0534
     72  CG        -3.9150    3.2880  -11.0060 C.ar   69  PHE69      -0.0203
     73  CD1       -4.4460    4.5710  -11.0820 C.ar   69  PHE69      -0.0042
     74  CD2       -3.4660    2.7000  -12.1620 C.ar   69  PHE69      -0.0042
     75  CE1       -4.5750    5.2060  -12.3030 C.ar   69  PHE69      -0.0003
     76  CE2       -3.5800    3.3360  -13.3790 C.ar   69  PHE69      -0.0003
     77  CZ        -4.1330    4.5720  -13.4620 C.ar   69  PHE69      -0.0000
     78  N         -7.1170   -3.1860   -8.4610 N.3    74  ILE74      -0.1231
     79  CA        -6.0900   -2.8500   -9.4490 C.3    74  ILE74       0.1692
     80  C         -4.7580   -3.4480   -9.0340 C.2    74  ILE74       0.2591
     81  O         -4.3890   -3.3630   -7.8510 O.2    74  ILE74      -0.2718
     82  CB        -5.9300   -1.3440   -9.6100 C.3    74  ILE74       0.0266
     83  CG1       -7.2210   -0.7540  -10.1650 C.3    74  ILE74       0.0019
     84  CG2       -4.7630   -1.0320  -10.5670 C.3    74  ILE74       0.0020
     85  CD1       -7.3030    0.7590  -10.0820 C.3    74  ILE74       0.0001
     86  N         -4.0500   -4.0560   -9.9930 N.am   75  ILE75      -0.1980
     87  CA        -2.7860   -4.7770   -9.7020 C.3    75  ILE75       0.1595
     88  C         -1.8930   -3.7830   -8.9520 C.2    75  ILE75       0.2287
     89  O         -1.7340   -2.6400   -9.4000 O.2    75  ILE75      -0.2864
     90  CB        -2.1310   -5.2650  -11.0210 C.3    75  ILE75       0.0276
     91  CG1       -0.7380   -5.8150  -10.8740 C.3    75  ILE75       0.0022
     92  CG2       -2.0450   -4.1120  -12.0130 C.3    75  ILE75       0.0022
     93  CD1       -0.7000   -7.1340  -10.1750 C.3    75  ILE75       0.0001
     94  N         10.0830   -4.7260  -13.0910 N.3    89  ILE89      -0.1245
     95  CA         8.8760   -4.2560  -12.4560 C.3    89  ILE89       0.1561
     96  C          8.3380   -5.3890  -11.5710 C.2    89  ILE89       0.2260
     97  O          8.1680   -6.5460  -12.0050 O.2    89  ILE89      -0.2867
     98  CB         7.7910   -3.8450  -13.4870 C.3    89  ILE89       0.0252
     99  CG1        8.2490   -2.6600  -14.3270 C.3    89  ILE89       0.0019
    100  CG2        6.4570   -3.5210  -12.7690 C.3    89  ILE89       0.0019
    101  CD1        7.2660   -2.3180  -15.4750 C.3    89  ILE89       0.0001
    102  N          5.3270   -6.6600   -8.9820 N.3    91  THR91      -0.1203
    103  CA         3.9110   -6.4290   -8.6860 C.3    91  THR91       0.1994
    104  C          3.4200   -7.4760   -7.7340 C.2    91  THR91       0.2618
    105  O          4.1030   -8.4600   -7.4780 O.2    91  THR91      -0.2717
    106  CB         3.0000   -6.4330   -9.9780 C.3    91  THR91       0.1784
    107  OG1        2.9700   -7.7430  -10.5660 O.3    91  THR91      -0.2211
    108  CG2        3.5020   -5.4490  -11.0190 C.3    91  THR91       0.0376
    109  N          2.2220   -7.2910   -7.2010 N.am   92  GLU92      -0.1965
    110  CA         1.6560   -8.2940   -6.3070 C.3    92  GLU92       0.1733
    111  C          1.4410   -9.5580   -7.1190 C.2    92  GLU92       0.2616
    112  O          1.3450   -9.5120   -8.3380 O.2    92  GLU92      -0.2715
    113  CB         0.3300   -7.8600   -5.6780 C.3    92  GLU92       0.0429
    114  CG        -0.8280   -7.9820   -6.5600 C.3    92  GLU92       0.1163
    115  CD        -2.1160   -7.3640   -6.0240 C.2    92  GLU92       0.3649
    116  OE1       -2.7210   -7.9420   -5.1020 O.co2  92  GLU92      -0.2457
    117  OE2       -2.5700   -6.3220   -6.5720 O.co2  92  GLU92      -0.2457
    118  N          1.4120  -10.6760   -6.4130 N.am   93  TYR93      -0.1960
    119  CA         1.2760  -11.9830   -7.0340 C.3    93  TYR93       0.1771
    120  C         -0.1770  -12.4280   -7.0610 C.2    93  TYR93       0.2619
    121  O         -0.9050  -12.3120   -6.0830 O.2    93  TYR93      -0.2715
    122  CB         2.1400  -12.9920   -6.2800 C.3    93  TYR93       0.0574
    123  CG         2.1400  -14.3690   -6.9100 C.ar   93  TYR93      -0.0198
    124  CD1        2.7290  -14.5650   -8.1440 C.ar   93  TYR93      -0.0009
    125  CD2        1.5780  -15.4690   -6.2650 C.ar   93  TYR93      -0.0009
    126  CE1        2.7380  -15.8170   -8.7600 C.ar   93  TYR93       0.0417
    127  CE2        1.5940  -16.7540   -6.8780 C.ar   93  TYR93       0.0417
    128  CZ         2.1850  -16.9010   -8.1290 C.ar   93  TYR93       0.1957
    129  OH         2.2190  -18.1250   -8.8100 O.3    93  TYR93      -0.2866
    130  N         -0.5860  -12.9940   -8.1860 N.am   94  MET94      -0.1977
    131  CA        -1.9570  -13.4080   -8.3770 C.3    94  MET94       0.1605
    132  C         -1.9490  -14.9280   -8.7460 C.2    94  MET94       0.2287
    133  O         -1.5640  -15.3150   -9.8570 O.2    94  MET94      -0.2864
    134  CB        -2.5750  -12.5290   -9.4560 C.3    94  MET94       0.0413
    135  CG        -2.4790  -10.9460   -9.0890 C.3    94  MET94       0.0598
    136  SD        -3.6820  -10.7680   -7.7820 S.3    94  MET94      -0.1393
    137  CE        -5.2080  -10.8100   -8.7280 C.3    94  MET94       0.0692
    138  N         -3.7060  -16.5820  -12.0650 N.3    97  GLY97      -0.1210
    139  CA        -3.3310  -16.1810  -13.4110 C.3    97  GLY97       0.1956
    140  C         -4.3500  -15.2720  -14.1070 C.2    97  GLY97       0.2612
    141  O         -5.1740  -14.6730  -13.4460 O.2    97  GLY97      -0.2717
    142  N         -4.3340  -15.2330  -15.4400 N.am   98  SER98      -0.1952
    143  CA        -5.3590  -14.5270  -16.2190 C.3    98  SER98       0.1924
    144  C         -6.7390  -15.1220  -16.0040 C.2    98  SER98       0.2314
    145  O         -6.9090  -16.3600  -15.9910 O.2    98  SER98      -0.2863
    146  CB        -5.0130  -14.6050  -17.7160 C.3    98  SER98       0.2116
    147  OG        -3.6900  -14.1190  -17.8850 O.3    98  SER98      -0.2180
    148  N        -10.2740    3.6240  -11.7590 N.3   129  LEU129     -0.1245
    149  CA        -9.4710    4.0500  -12.9050 C.3   129  LEU129      0.1561
    150  C        -10.1400    5.2190  -13.6690 C.2   129  LEU129      0.2260
    151  O         -9.4720    6.1770  -14.0540 O.2   129  LEU129     -0.2867
    152  CB        -9.2650    2.8940  -13.8910 C.3   129  LEU129      0.0270
    153  CG        -8.2840    1.8180  -13.4670 C.3   129  LEU129      0.0019
    154  CD1       -8.1420    0.8970  -14.6650 C.3   129  LEU129      0.0001
    155  CD2       -6.9180    2.3840  -13.0530 C.3   129  LEU129      0.0001
    156  N         -8.2750    7.8570  -16.2840 N.3   134  TYR134     -0.1241
    157  CA        -7.5350    6.8990  -17.0390 C.3   134  TYR134      0.1605
    158  C         -8.5310    6.1150  -17.8900 C.2   134  TYR134      0.2264
    159  O         -9.5080    5.5820  -17.3600 O.2   134  TYR134     -0.2867
    160  CB        -6.7360    5.9730  -16.0870 C.3   134  TYR134      0.0534
    161  CG        -5.8490    5.0550  -16.8630 C.ar  134  TYR134     -0.0201
    162  CD1       -4.7230    5.5460  -17.4950 C.ar  134  TYR134     -0.0009
    163  CD2       -6.1630    3.7020  -17.0250 C.ar  134  TYR134     -0.0009
    164  CE1       -3.9030    4.7210  -18.2660 C.ar  134  TYR134      0.0417
    165  CE2       -5.3270    2.8450  -17.7890 C.ar  134  TYR134      0.0417
    166  CZ        -4.2090    3.3780  -18.4140 C.ar  134  TYR134      0.1957
    167  OH        -3.3670    2.6030  -19.1830 O.3   134  TYR134     -0.2866
    168  N         -8.5970    2.7560  -20.1080 N.3   136  HIS136     -0.1241
    169  CA        -7.7470    1.5730  -20.1850 C.3   136  HIS136      0.1621
    170  C         -7.4130    1.1800  -21.5960 C.2   136  HIS136      0.2264
    171  O         -6.2450    0.8740  -21.9210 O.2   136  HIS136     -0.2867
    172  CB        -8.4410    0.4220  -19.4810 C.3   136  HIS136      0.0745
    173  CG        -7.5610   -0.7810  -19.2650 C.ar  136  HIS136      0.0817
    174  ND1       -7.2030   -1.6270  -20.2850 N.ar  136  HIS136     -0.2268
    175  CD2       -6.9800   -1.2670  -18.1380 C.ar  136  HIS136      0.1154
    176  CE1       -6.4380   -2.6000  -19.8060 C.ar  136  HIS136      0.1986
    177  NE2       -6.2800   -2.4080  -18.4970 N.ar  136  HIS136     -0.2212
    178  N         -6.4490  -10.2860  -13.6690 N.3   145  LEU145     -0.1245
    179  CA        -5.7870  -11.3460  -12.9140 C.3   145  LEU145      0.1561
    180  C         -6.6320  -11.7040  -11.7090 C.2   145  LEU145      0.2260
    181  O         -7.3510  -10.8490  -11.1710 O.2   145  LEU145     -0.2867
    182  CB        -4.3840  -10.8950  -12.5190 C.3   145  LEU145      0.0270
    183  CG        -3.4280  -10.6510  -13.7030 C.3   145  LEU145      0.0019
    184  CD1       -2.1220   -9.9990  -13.2100 C.3   145  LEU145      0.0001
    185  CD2       -3.1400  -11.9420  -14.3980 C.3   145  LEU145      0.0001
    186  N         -7.7580   -5.4970  -12.0770 N.3   154  VAL154     -0.1231
    187  CA        -7.4130   -5.0350  -13.3900 C.3   154  VAL154      0.1692
    188  C         -5.9080   -4.9100  -13.5770 C.2   154  VAL154      0.2593
    189  O         -5.1950   -4.4230  -12.7080 O.2   154  VAL154     -0.2718
    190  CB        -8.0570   -3.6460  -13.7000 C.3   154  VAL154      0.0266
    191  CG1       -7.8560   -3.3010  -15.1600 C.3   154  VAL154      0.0020
    192  CG2       -9.5470   -3.7030  -13.4270 C.3   154  VAL154      0.0020
    193  N         -5.4700   -5.2410  -14.7740 N.am  155  SER155     -0.1938
    194  CA        -4.0820   -5.2900  -15.1770 C.3   155  SER155      0.2055
    195  C         -3.9810   -4.7420  -16.5900 C.2   155  SER155      0.2643
    196  O         -4.9880   -4.4380  -17.1770 O.2   155  SER155     -0.2714
    197  CB        -3.5970   -6.7280  -15.1420 C.3   155  SER155      0.2130
    198  OG        -2.2030   -6.7260  -15.0790 O.3   155  SER155     -0.2179
    199  N         -2.7930   -4.6910  -17.1660 N.am  156  ASP156     -0.1957
    200  CA        -2.7010   -4.4560  -18.5950 C.3   156  ASP156      0.1840
    201  C         -1.3920   -5.0450  -19.0990 C.2   156  ASP156      0.2622
    202  O         -0.3240   -4.6260  -18.6620 O.2   156  ASP156     -0.2715
    203  CB        -2.7980   -2.9510  -18.9250 C.3   156  ASP156      0.1450
    204  CG        -2.9080   -2.6920  -20.4250 C.2   156  ASP156      0.3671
    205  OD1       -2.4800   -3.5910  -21.1850 O.co2 156  ASP156     -0.2456
    206  OD2       -3.4320   -1.6060  -20.8520 O.co2 156  ASP156     -0.2456
    207  N         -1.4570   -5.9640  -20.0390 N.am  157  PHE157     -0.1974
    208  CA        -0.2450   -6.5810  -20.5270 C.3   157  PHE157      0.1639
    209  C          0.3020   -5.8630  -21.7640 C.2   157  PHE157      0.2290
    210  O         -0.3590   -5.7300  -22.7930 O.2   157  PHE157     -0.2864
    211  CB        -0.4440   -8.0570  -20.8340 C.3   157  PHE157      0.0560
    212  CG        -0.9650   -8.8780  -19.6870 C.ar  157  PHE157     -0.0200
    213  CD1       -1.2950   -8.3340  -18.4740 C.ar  157  PHE157     -0.0042
    214  CD2       -1.1190  -10.2230  -19.8410 C.ar  157  PHE157     -0.0042
    215  CE1       -1.7620   -9.1150  -17.4550 C.ar  157  PHE157     -0.0003
    216  CE2       -1.5870  -11.0110  -18.8180 C.ar  157  PHE157     -0.0003
    217  CZ        -1.9250  -10.4490  -17.6330 C.ar  157  PHE157     -0.0000
@<TRIPOS>BOND
     1    20    19    2
     2    16    13    1
     3    19    18    1
     4   210   209    2
     5    15    14    2
     6   171   170    2
     7    14    13    1
     8    14    17   am
     9   209   208    1
    10    13    12    1
    11   170   169    1
    12    18    17    1
    13   205   204   ar
    14    12    10   am
    15   206   204   ar
    16   211   208    1
    17   211   212    1
    18   208   207    1
    19   204   203    1
    20   174   176   ar
    21   174   173   ar
    22   169   168    1
    23   169   172    1
    24   207   201   am
    25   214   212   ar
    26   214   216   ar
    27   176   177   ar
    28   212   213   ar
    29    10    11    2
    30    10     9    1
    31   172   173    1
    32   173   175   ar
    33   167   166    1
    34   201   202    2
    35   201   200    1
    36     9     8    1
    37   203   200    1
    38   216   217   ar
    39    41    40    1
    40   200   199    1
    41    58    56    1
    42    50    48   ar
    43   177   175   ar
    44   213   215   ar
    45   166   164   ar
    46   166   165   ar
    47   164   162   ar
    48    42    43    1
    49    46    43    1
    50    46    47    1
    51    40    39    1
    52   158   159    2
    53   158   157    1
    54   147   146    1
    55    48    49   ar
    56    48    47    1
    57   165   163   ar
    58     8     3   am
    59   146   143    1
    60    43    44    1
    61   217   215   ar
    62    21    22    1
    63   162   161   ar
    64    27    25    1
    65   196   195    2
    66   199   195   am
    67    56    55    1
    68   157   156    1
    69   157   160    1
    70     4     3    2
    71   163   161   ar
    72   161   160    1
    73     3     2    1
    74   195   194    1
    75    39    38    1
    76    25    22    1
    77    25    26    1
    78    22    23    1
    79   143   144    1
    80   143   142    1
    81    44    45    2
    82    55    57    1
    83    55    52    1
    84   144   145    2
    85    38    37    1
    86    24    23    2
    87     2     1    1
    88     2     5    1
    89    37    34    1
    90   101    99    1
    91   142   140   am
    92    35    34    1
    93    35    36    2
    94   194   197    1
    95   194   193    1
    96   191   190    1
    97   197   198    1
    98    34    33    1
    99   193   188   am
   100    51    52    1
   101    52    53    1
   102   154   153    1
   103     7     5    1
   104     5     6    1
   105   185   183    1
   106    99    98    1
   107   140   141    2
   108   140   139    1
   109   151   150    2
   110   152   153    1
   111   152   149    1
   112   183   184    1
   113   183   182    1
   114   190   192    1
   115   190   187    1
   116   178   179    1
   117   150   149    1
   118   188   187    1
   119   188   189    2
   120    64    65    1
   121    64    63    1
   122    53    59   am
   123    53    54    2
   124    98   100    1
   125    98    95    1
   126   153   155    1
   127    77    76   ar
   128    77    75   ar
   129    59    60    1
   130   139   138    1
   131   187   186    1
   132    76    74   ar
   133    65    66    1
   134    94    95    1
   135   179   182    1
   136   179   180    1
   137   149   148    1
   138    95    96    1
   139    63    60    1
   140    60    61    1
   141    75    73   ar
   142    74    72   ar
   143    92    90    1
   144    97    96    2
   145   180   181    2
   146    73    72   ar
   147    90    91    1
   148    90    87    1
   149   108   106    1
   150    61    62    2
   151    72    71    1
   152    91    93    1
   153    32    29    1
   154    84    82    1
   155   107   106    1
   156    30    29    1
   157    30    31    2
   158    83    85    1
   159    83    82    1
   160    86    87    1
   161    86    80   am
   162   106   103    1
   163    29    28    1
   164   133   132    2
   165    87    88    1
   166    71    68    1
   167    82    79    1
   168   134   135    1
   169   134   131    1
   170    79    80    1
   171    79    78    1
   172    89    88    2
   173    67    68    1
   174   135   136    1
   175    80    81    2
   176   102   103    1
   177   129   128    1
   178   126   124   ar
   179   126   128   ar
   180   132   131    1
   181   137   136    1
   182   103   104    1
   183    68    69    1
   184   131   130    1
   185   112   111    2
   186   130   120   am
   187   124   123   ar
   188   128   127   ar
   189   104   105    2
   190   104   109   am
   191    69    70    2
   192   109   110    1
   193   111   118   am
   194   111   110    1
   195   120   119    1
   196   120   121    2
   197   119   118    1
   198   119   122    1
   199   123   122    1
   200   123   125   ar
   201   127   125   ar
   202   117   115   ar
   203   114   115    1
   204   114   113    1
   205   110   113    1
   206   115   116   ar
