@<TRIPOS>MOLECULE
tmp/4p63A00.pdb
 192 181 0 0 0
SMALL
GASTEIGER

@<TRIPOS>ATOM
      1  N         13.1150   -0.6530   -5.4220 N.3    60  THR60      -0.1203
      2  CA        12.2010   -1.5630   -6.0940 C.3    60  THR60       0.1994
      3  C         12.4740   -2.9940   -5.6340 C.2    60  THR60       0.2619
      4  O         13.4040   -3.2370   -4.8670 O.2    60  THR60      -0.2717
      5  CB        12.3350   -1.4660   -7.6230 C.3    60  THR60       0.1784
      6  OG1       13.7130   -1.5850   -7.9960 O.3    60  THR60      -0.2211
      7  CG2       11.7960   -0.1320   -8.1170 C.3    60  THR60       0.0376
      8  N         11.6710   -3.9360   -6.1170 N.am   61  SER61      -0.1937
      9  CA        11.6690   -5.2990   -5.5890 C.3    61  SER61       0.2055
     10  C         12.9910   -6.0460   -5.8100 C.2    61  SER61       0.2643
     11  O         13.3900   -6.8590   -4.9750 O.2    61  SER61      -0.2714
     12  CB        10.5240   -6.0930   -6.2230 C.3    61  SER61       0.2130
     13  OG         9.2740   -5.5020   -5.9180 O.3    61  SER61      -0.2179
     14  N         13.6600   -5.7550   -6.9250 N.am   62  ASN62      -0.1957
     15  CA        14.9420   -6.3690   -7.2710 C.3    62  ASN62       0.1819
     16  C         16.0030   -6.1700   -6.1880 C.2    62  ASN62       0.2621
     17  O         16.8320   -7.0490   -5.9470 O.2    62  ASN62      -0.2715
     18  CB        15.5030   -5.7760   -8.5590 C.3    62  ASN62       0.1195
     19  CG        14.9080   -6.3570   -9.8340 C.2    62  ASN62       0.2630
     20  OD1       15.2380   -5.8620  -10.9060 O.2    62  ASN62      -0.2716
     21  ND2       14.0430   -7.3660   -9.7450 N.am   62  ASN62      -0.0877
     22  N         15.9990   -4.9890   -5.5730 N.am   63  ILE63      -0.1977
     23  CA        16.9360   -4.6640   -4.5050 C.3    63  ILE63       0.1596
     24  C         16.8150   -5.7080   -3.3970 C.2    63  ILE63       0.2287
     25  O         17.8180   -6.1850   -2.8650 O.2    63  ILE63      -0.2864
     26  CB        16.6750   -3.2430   -3.9670 C.3    63  ILE63       0.0276
     27  CG1       16.7430   -2.2250   -5.1170 C.3    63  ILE63       0.0022
     28  CG2       17.6520   -2.8910   -2.8560 C.3    63  ILE63       0.0022
     29  CD1       17.9840   -2.3220   -5.9900 C.3    63  ILE63       0.0001
     30  N         15.2490   -8.6960   -3.7990 N.3    65  SER65      -0.1217
     31  CA        15.4950  -10.0110   -4.3890 C.3    65  SER65       0.1889
     32  C         16.9770  -10.3480   -4.2810 C.2    65  SER65       0.2288
     33  O         17.3530  -11.4900   -4.0140 O.2    65  SER65      -0.2866
     34  CB        15.0590  -10.0530   -5.8570 C.3    65  SER65       0.2089
     35  OG        13.6580   -9.9020   -5.9910 O.3    65  SER65      -0.2183
     36  N          7.9880   -1.3780   -3.0610 N.3    87  THR87      -0.1203
     37  CA         6.8970   -2.0180   -3.7730 C.3    87  THR87       0.1994
     38  C          6.4870   -3.2810   -3.0240 C.2    87  THR87       0.2618
     39  O          7.1220   -3.6540   -2.0370 O.2    87  THR87      -0.2717
     40  CB         7.3060   -2.3620   -5.2160 C.3    87  THR87       0.1784
     41  OG1        8.3870   -3.3030   -5.2030 O.3    87  THR87      -0.2211
     42  CG2        7.7310   -1.1060   -5.9610 C.3    87  THR87       0.0376
     43  N          5.4270   -3.9310   -3.4930 N.am   88  ALA88      -0.1965
     44  CA         4.9230   -5.1490   -2.8680 C.3    88  ALA88       0.1728
     45  C          6.0000   -6.2260   -2.7830 C.2    88  ALA88       0.2616
     46  O          6.1710   -6.8550   -1.7380 O.2    88  ALA88      -0.2715
     47  CB         3.7150   -5.6740   -3.6340 C.3    88  ALA88       0.0334
     48  N          6.7220   -6.4370   -3.8790 N.am   89  GLY89      -0.1955
     49  CA         7.8040   -7.4030   -3.8990 C.3    89  GLY89       0.1869
     50  C          8.8840   -7.0760   -2.8840 C.2    89  GLY89       0.2309
     51  O          9.4370   -7.9690   -2.2480 O.2    89  GLY89      -0.2863
     52  N          7.2570   -8.2650    0.5880 N.3    92  GLU92      -0.1231
     53  CA         6.9800   -9.6800    0.7950 C.3    92  GLU92       0.1699
     54  C          8.2220  -10.5600    0.6550 C.2    92  GLU92       0.2592
     55  O          8.3420  -11.5760    1.3360 O.2    92  GLU92      -0.2718
     56  CB         5.8930  -10.1380   -0.1800 C.3    92  GLU92       0.0402
     57  CG         6.2970  -10.0730   -1.6480 C.3    92  GLU92       0.1161
     58  CD         5.1180   -9.8530   -2.5870 C.2    92  GLU92       0.3649
     59  OE1        4.0170   -9.4930   -2.1140 O.co2  92  GLU92      -0.2457
     60  OE2        5.2930  -10.0430   -3.8080 O.co2  92  GLU92      -0.2457
     61  N          9.1560  -10.1690   -0.2050 N.am   93  GLU93      -0.1979
     62  CA        10.3770  -10.9510   -0.3850 C.3    93  GLU93       0.1602
     63  C         11.3020  -10.8420    0.8210 C.2    93  GLU93       0.2287
     64  O         12.0560  -11.7690    1.1150 O.2    93  GLU93      -0.2864
     65  CB        11.1120  -10.5090   -1.6480 C.3    93  GLU93       0.0415
     66  CG        10.3750  -10.9020   -2.9090 C.3    93  GLU93       0.1163
     67  CD        11.0130  -10.3540   -4.1640 C.2    93  GLU93       0.3649
     68  OE1       10.2600   -9.9640   -5.0790 O.co2  93  GLU93      -0.2457
     69  OE2       12.2570  -10.2710   -4.2200 O.co2  93  GLU93      -0.2457
     70  N         10.3050  -19.8830   -9.7740 N.3   120  ASN120     -0.1240
     71  CA        10.1730  -18.5140  -10.2480 C.3   120  ASN120      0.1653
     72  C         11.5530  -17.9020  -10.4460 C.2   120  ASN120      0.2266
     73  O         12.3920  -17.9500   -9.5450 O.2   120  ASN120     -0.2867
     74  CB         9.3570  -17.6770   -9.2610 C.3   120  ASN120      0.1155
     75  CG         9.2130  -16.2310   -9.6990 C.2   120  ASN120      0.2627
     76  OD1        9.2550  -15.9230  -10.8900 O.2   120  ASN120     -0.2716
     77  ND2        9.0430  -15.3340   -8.7330 N.am  120  ASN120     -0.0877
     78  N         13.9740  -14.6230  -11.2420 N.3   122  ILE122     -0.1245
     79  CA        14.1320  -13.1760  -11.2080 C.3   122  ILE122      0.1561
     80  C         15.5490  -12.8630  -11.6680 C.2   122  ILE122      0.2260
     81  O         16.4860  -12.8610  -10.8700 O.2   122  ILE122     -0.2867
     82  CB        13.8930  -12.5990   -9.7980 C.3   122  ILE122      0.0252
     83  CG1       12.5230  -13.0340   -9.2660 C.3   122  ILE122      0.0019
     84  CG2       13.9930  -11.0810   -9.8220 C.3   122  ILE122      0.0019
     85  CD1       12.3490  -12.8240   -7.7740 C.3   122  ILE122      0.0001
     86  N          6.8360  -19.6420   -1.4440 N.3   132  TYR132     -0.1241
     87  CA         5.5360  -18.9840   -1.4560 C.3   132  TYR132      0.1605
     88  C          4.5040  -19.7650   -0.6450 C.2   132  TYR132      0.2264
     89  O          3.6140  -19.1750   -0.0320 O.2   132  TYR132     -0.2867
     90  CB         5.0620  -18.8020   -2.8970 C.3   132  TYR132      0.0534
     91  CG         6.0030  -17.9520   -3.7170 C.ar  132  TYR132     -0.0201
     92  CD1        6.0640  -16.5770   -3.5370 C.ar  132  TYR132     -0.0009
     93  CD2        6.8470  -18.5280   -4.6570 C.ar  132  TYR132     -0.0009
     94  CE1        6.9300  -15.7970   -4.2810 C.ar  132  TYR132      0.0417
     95  CE2        7.7150  -17.7580   -5.4040 C.ar  132  TYR132      0.0417
     96  CZ         7.7530  -16.3940   -5.2130 C.ar  132  TYR132      0.1957
     97  OH         8.6180  -15.6250   -5.9550 O.3   132  TYR132     -0.2866
     98  N          1.0300    0.2220   -3.6230 N.3   197  ALA197     -0.1245
     99  CA         0.4590   -0.8860   -4.3890 C.3   197  ALA197      0.1562
    100  C          0.8750   -2.2210   -3.7760 C.2   197  ALA197      0.2260
    101  O          1.4020   -3.0960   -4.4630 O.2   197  ALA197     -0.2867
    102  CB         0.8920   -0.8090   -5.8460 C.3   197  ALA197      0.0290
    103  N          0.0710   -5.7540   -5.2770 N.3   200  ASP200     -0.1225
    104  CA         0.5840   -6.1310   -6.5910 C.3   200  ASP200      0.1805
    105  C          1.7140   -7.1500   -6.4530 C.2   200  ASP200      0.2598
    106  O          2.8620   -6.8770   -6.8070 O.2   200  ASP200     -0.2718
    107  CB         1.0790   -4.9030   -7.3560 C.3   200  ASP200      0.1424
    108  CG         1.5760   -5.2460   -8.7500 C.2   200  ASP200      0.3668
    109  OD1        1.0970   -6.2470   -9.3240 O.co2 200  ASP200     -0.2456
    110  OD2        2.4710   -4.5390   -9.2550 O.co2 200  ASP200     -0.2456
    111  N          1.3900   -8.3200   -5.9160 N.am  201  GLY201     -0.1942
    112  CA         2.3700   -9.3810   -5.7690 C.3   201  GLY201      0.2014
    113  C          1.7980  -10.6010   -5.0750 C.2   201  GLY201      0.2639
    114  O          0.6060  -10.8860   -5.1830 O.2   201  GLY201     -0.2714
    115  N          2.6510  -11.3180   -4.3490 N.am  202  SER202     -0.1949
    116  CA         2.2550  -12.5780   -3.7310 C.3   202  SER202      0.1924
    117  C          1.3420  -12.3640   -2.5220 C.2   202  SER202      0.2314
    118  O          0.4780  -13.1960   -2.2470 O.2   202  SER202     -0.2863
    119  CB         3.4910  -13.3820   -3.3240 C.3   202  SER202      0.2116
    120  OG         4.2270  -12.7290   -2.3080 O.3   202  SER202     -0.2180
    121  N         16.6240    2.4930   -8.1910 N.3   246  GLY246     -0.1210
    122  CA        15.6720    2.1510   -9.2290 C.3   246  GLY246      0.1956
    123  C         14.6450    3.2470   -9.4420 C.2   246  GLY246      0.2612
    124  O         14.8080    4.3620   -8.9470 O.2   246  GLY246     -0.2717
    125  N         13.5830    2.9230  -10.1740 N.am  247  GLY247     -0.1942
    126  CA        12.5720    3.8980  -10.5440 C.3   247  GLY247      0.2014
    127  C         11.1970    3.5290  -10.0230 C.2   247  GLY247      0.2640
    128  O         11.0340    3.2130   -8.8430 O.2   247  GLY247     -0.2714
    129  N         10.2060    3.5900  -10.9090 N.am  248  SER248     -0.1935
    130  CA         8.8480    3.1490  -10.6030 C.3   248  SER248      0.2055
    131  C          8.2450    3.9260   -9.4290 C.2   248  SER248      0.2642
    132  O          8.6110    5.0780   -9.1880 O.2   248  SER248     -0.2714
    133  CB         8.8360    1.6470  -10.3160 C.3   248  SER248      0.2130
    134  OG         7.5120    1.1750  -10.1440 O.3   248  SER248     -0.2179
    135  N          7.3260    3.2940   -8.7020 N.am  249  LEU249     -0.1977
    136  CA         6.5330    3.9900   -7.6890 C.3   249  LEU249      0.1596
    137  C          7.3490    4.6300   -6.5640 C.2   249  LEU249      0.2287
    138  O          7.0840    5.7760   -6.1990 O.2   249  LEU249     -0.2864
    139  CB         5.5090    3.0350   -7.0670 C.3   249  LEU249      0.0297
    140  CG         4.6680    2.1610   -7.9980 C.3   249  LEU249      0.0022
    141  CD1        3.6090    1.4290   -7.1860 C.3   249  LEU249      0.0001
    142  CD2        4.0310    2.9820   -9.1110 C.3   249  LEU249      0.0001
    143  N         20.2470    5.9050   -7.8240 N.3   270  ILE270     -0.1231
    144  CA        20.9710    4.8440   -8.5100 C.3   270  ILE270      0.1692
    145  C         19.9730    4.0530   -9.3410 C.2   270  ILE270      0.2593
    146  O         19.0400    3.4590   -8.8030 O.2   270  ILE270     -0.2718
    147  CB        21.6970    3.9070   -7.5250 C.3   270  ILE270      0.0266
    148  CG1       22.6670    4.7050   -6.6510 C.3   270  ILE270      0.0019
    149  CG2       22.4350    2.8050   -8.2820 C.3   270  ILE270      0.0020
    150  CD1       23.2400    3.9190   -5.4880 C.3   270  ILE270      0.0001
    151  N         20.1800    4.0440  -10.6540 N.am  271  SER271     -0.1938
    152  CA        19.2450    3.3990  -11.5660 C.3   271  SER271      0.2055
    153  C         19.8970    3.0160  -12.8860 C.2   271  SER271      0.2644
    154  O         20.8700    3.6340  -13.3170 O.2   271  SER271     -0.2714
    155  CB        18.0520    4.3160  -11.8360 C.3   271  SER271      0.2130
    156  OG        17.0500    3.6360  -12.5740 O.3   271  SER271     -0.2179
    157  N         19.3390    1.9960  -13.5270 N.am  272  THR272     -0.1936
    158  CA        19.7630    1.6010  -14.8630 C.3   272  THR272      0.2028
    159  C         18.8880    2.2750  -15.9190 C.2   272  THR272      0.2642
    160  O         19.1900    2.2210  -17.1100 O.2   272  THR272     -0.2714
    161  CB        19.7050    0.0750  -15.0400 C.3   272  THR272      0.1808
    162  OG1       18.3790   -0.3900  -14.7630 O.3   272  THR272     -0.2208
    163  CG2       20.6870   -0.5990  -14.0930 C.3   272  THR272      0.0379
    164  N         17.7990    2.9020  -15.4790 N.am  273  ALA273     -0.1977
    165  CA        16.9230    3.6290  -16.3900 C.3   273  ALA273      0.1597
    166  C         17.6260    4.8890  -16.8750 C.2   273  ALA273      0.2287
    167  O         18.1480    5.6630  -16.0720 O.2   273  ALA273     -0.2864
    168  CB        15.6130    3.9800  -15.7090 C.3   273  ALA273      0.0319
    169  N         23.6450    2.7500  -13.2310 N.3   299  GLY299     -0.1210
    170  CA        24.1290    1.3840  -13.1860 C.3   299  GLY299      0.1956
    171  C         23.3290    0.4780  -12.2730 C.2   299  GLY299      0.2612
    172  O         22.3820    0.9060  -11.6160 O.2   299  GLY299     -0.2717
    173  N         23.7220   -0.7900  -12.2520 N.am  300  ASP300     -0.1959
    174  CA        23.0820   -1.8040  -11.4270 C.3   300  ASP300      0.1840
    175  C         23.4390   -1.5580   -9.9610 C.2   300  ASP300      0.2622
    176  O         24.6140   -1.5170   -9.5980 O.2   300  ASP300     -0.2715
    177  CB        23.5270   -3.1990  -11.8880 C.3   300  ASP300      0.1450
    178  CG        22.8040   -4.3280  -11.1710 C.2   300  ASP300      0.3671
    179  OD1       22.4200   -4.1680   -9.9940 O.co2 300  ASP300     -0.2456
    180  OD2       22.6250   -5.3940  -11.7950 O.co2 300  ASP300     -0.2456
    181  N         22.4160   -1.3890   -9.1270 N.am  301  ALA301     -0.1963
    182  CA        22.6120   -1.0910   -7.7100 C.3   301  ALA301      0.1728
    183  C         23.4020   -2.1730   -6.9720 C.2   301  ALA301      0.2616
    184  O         24.0690   -1.8830   -5.9800 O.2   301  ALA301     -0.2715
    185  CB        21.2630   -0.8780   -7.0290 C.3   301  ALA301      0.0334
    186  N         23.3340   -3.4140   -7.4470 N.am  302  THR302     -0.1951
    187  CA        24.0510   -4.5050   -6.7900 C.3   302  THR302      0.1897
    188  C         25.5630   -4.3060   -6.9040 C.2   302  THR302      0.2313
    189  O         26.3210   -4.7810   -6.0590 O.2   302  THR302     -0.2863
    190  CB        23.6680   -5.8880   -7.3660 C.3   302  THR302      0.1794
    191  OG1       24.0170   -5.9590   -8.7520 O.3   302  THR302     -0.2208
    192  CG2       22.1770   -6.1460   -7.2030 C.3   302  THR302      0.0378
@<TRIPOS>BOND
     1   160   159    2
     2   166   165    1
     3   166   167    2
     4   165   168    1
     5   165   164    1
     6   159   164   am
     7   159   158    1
     8   161   158    1
     9   161   162    1
    10   161   163    1
    11   158   157    1
    12   157   153   am
    13   154   153    2
    14   169   170    1
    15   170   171    1
    16   153   152    1
    17   156   155    1
    18   171   173   am
    19   171   172    2
    20   173   174    1
    21   177   174    1
    22   177   178    1
    23   155   152    1
    24   180   178   ar
    25    80    79    1
    26    80    81    2
    27   152   151    1
    28   174   175    1
    29    78    79    1
    30    79    82    1
    31   178   179   ar
    32   129   130    1
    33   129   127   am
    34    20    19    2
    35    76    75    2
    36   151   145   am
    37   130   133    1
    38   130   131    1
    39   126   125    1
    40   126   127    1
    41    72    71    1
    42    72    73    2
    43   133   134    1
    44    71    70    1
    45    71    74    1
    46   125   123   am
    47   127   128    2
    48   175   176    2
    49   175   181   am
    50    19    21   am
    51    19    18    1
    52    84    82    1
    53    82    83    1
    54    75    74    1
    55    75    77   am
    56   123   122    1
    57   123   124    2
    58   131   132    2
    59   131   135   am
    60   145   146    2
    61   145   144    1
    62   109   108   ar
    63    83    85    1
    64   110   108   ar
    65   122   121    1
    66   181   182    1
    67   142   140    1
    68   191   190    1
    69   108   107    1
    70   135   136    1
    71    18    15    1
    72   144   143    1
    73   144   147    1
    74   149   147    1
    75     7     5    1
    76   140   141    1
    77   140   139    1
    78     6     5    1
    79   182   185    1
    80   182   183    1
    81   136   139    1
    82   136   137    1
    83     5     2    1
    84   147   148    1
    85   186   183   am
    86   186   187    1
    87   190   192    1
    88   190   187    1
    89   107   104    1
    90    15    14    1
    91    15    16    1
    92   183   184    2
    93    14    10   am
    94   188   187    1
    95   188   189    2
    96   106   105    2
    97   148   150    1
    98   104   105    1
    99   104   103    1
   100   137   138    2
   101   105   111   am
   102    12    13    1
   103    12     9    1
   104    16    17    2
   105    16    22   am
   106     8     3   am
   107     8     9    1
   108     2     3    1
   109     2     1    1
   110    35    34    1
   111    29    27    1
   112    42    40    1
   113    97    96    1
   114   111   112    1
   115    34    31    1
   116   102    99    1
   117    10     9    1
   118    10    11    2
   119   112   113    1
   120     3     4    2
   121    22    23    1
   122    95    96   ar
   123    95    93   ar
   124    40    41    1
   125    40    37    1
   126    96    94   ar
   127   114   113    2
   128    27    26    1
   129    68    67   ar
   130   113   115   am
   131    93    91   ar
   132    23    26    1
   133    23    24    1
   134   101   100    2
   135    31    32    1
   136    31    30    1
   137    99   100    1
   138    99    98    1
   139   115   116    1
   140    94    92   ar
   141    32    33    2
   142    69    67   ar
   143    67    66    1
   144    26    28    1
   145    49    48    1
   146    49    50    1
   147    48    45   am
   148    60    58   ar
   149    37    36    1
   150    37    38    1
   151   116   119    1
   152   116   117    1
   153    91    92   ar
   154    91    90    1
   155    47    44    1
   156    43    38   am
   157    43    44    1
   158    24    25    2
   159   119   120    1
   160    38    39    2
   161    66    65    1
   162    90    87    1
   163    50    51    2
   164    44    45    1
   165    45    46    2
   166    58    59   ar
   167    58    57    1
   168   117   118    2
   169    57    56    1
   170    65    62    1
   171    87    86    1
   172    87    88    1
   173    88    89    2
   174    62    61    1
   175    62    63    1
   176    61    54   am
   177    56    53    1
   178    52    53    1
   179    54    53    1
   180    54    55    2
   181    63    64    2
