@<TRIPOS>MOLECULE
tmp/4p6aA02.pdb
 102 101 0 0 0
SMALL
GASTEIGER

@<TRIPOS>ATOM
      1  N          0.2260   -0.0530  -22.3820 N.3    91  ASP91      -0.1225
      2  CA         1.1710    0.1700  -23.4720 C.3    91  ASP91       0.1805
      3  C          2.2610    1.0820  -22.9080 C.2    91  ASP91       0.2598
      4  O          2.0580    1.8320  -21.9850 O.2    91  ASP91      -0.2718
      5  CB         0.3850    0.7790  -24.6210 C.3    91  ASP91       0.1424
      6  CG         1.0090    0.7170  -25.9450 C.2    91  ASP91       0.3668
      7  OD1        2.2300    0.4200  -26.0710 O.co2  91  ASP91      -0.2456
      8  OD2        0.2620    0.9370  -26.9570 O.co2  91  ASP91      -0.2456
      9  N          3.4350    0.9920  -23.4850 N.am   92  SER92      -0.1938
     10  CA         4.5200    1.8910  -23.0680 C.3    92  SER92       0.2055
     11  C          5.5380    2.0420  -24.1920 C.2    92  SER92       0.2643
     12  O          5.4580    1.3370  -25.1940 O.2    92  SER92      -0.2714
     13  CB         5.1980    1.3540  -21.8160 C.3    92  SER92       0.2130
     14  OG         5.9520    0.1740  -22.0530 O.3    92  SER92      -0.2179
     15  N          6.4470    3.0020  -24.0240 N.am   93  ASN93      -0.1957
     16  CA         7.3990    3.3250  -25.1050 C.3    93  ASN93       0.1819
     17  C          8.7900    3.3000  -24.5540 C.2    93  ASN93       0.2621
     18  O          9.0840    3.0480  -23.3980 O.2    93  ASN93      -0.2715
     19  CB         6.9960    4.6210  -25.7680 C.3    93  ASN93       0.1195
     20  CG         7.1040    5.8370  -24.9160 C.2    93  ASN93       0.2630
     21  OD1        7.7280    5.7800  -23.8590 O.2    93  ASN93      -0.2716
     22  ND2        6.5270    6.9660  -25.3400 N.am   93  ASN93      -0.0877
     23  N          9.7650    3.6020  -25.4420 N.am   94  TYR94      -0.1974
     24  CA        11.1980    3.5000  -25.0690 C.3    94  TYR94       0.1639
     25  C         11.5910    4.6210  -24.1130 C.2    94  TYR94       0.2290
     26  O         12.5670    4.4400  -23.3880 O.2    94  TYR94      -0.2864
     27  CB        12.0660    3.5320  -26.3540 C.3    94  TYR94       0.0560
     28  CG        12.2200    2.1410  -26.8860 C.ar   94  TYR94      -0.0198
     29  CD1       13.1280    1.2710  -26.2520 C.ar   94  TYR94      -0.0009
     30  CD2       11.5260    1.6520  -27.9940 C.ar   94  TYR94      -0.0009
     31  CE1       13.3050    0.0350  -26.6180 C.ar   94  TYR94       0.0417
     32  CE2       11.7280    0.3410  -28.4320 C.ar   94  TYR94       0.0417
     33  CZ        12.6570   -0.4630  -27.7170 C.ar   94  TYR94       0.1957
     34  OH        12.8720   -1.7170  -28.0730 O.3    94  TYR94      -0.2866
     35  N          0.6440    4.3630  -21.0220 N.3    99  TYR99      -0.1227
     36  CA        -0.6560    4.8310  -21.4690 C.3    99  TYR99       0.1736
     37  C         -1.4720    3.6230  -21.8660 C.2    99  TYR99       0.2596
     38  O         -0.9600    2.5380  -21.8200 O.2    99  TYR99      -0.2718
     39  CB        -0.4570    5.8910  -22.6190 C.3    99  TYR99       0.0548
     40  CG         0.5730    5.4680  -23.6100 C.ar   99  TYR99      -0.0200
     41  CD1        0.3130    4.5920  -24.6660 C.ar   99  TYR99      -0.0009
     42  CD2        1.9170    5.8740  -23.4720 C.ar   99  TYR99      -0.0009
     43  CE1        1.3170    4.1320  -25.5460 C.ar   99  TYR99       0.0417
     44  CE2        2.9110    5.4340  -24.3350 C.ar   99  TYR99       0.0417
     45  CZ         2.6170    4.6070  -25.3680 C.ar   99  TYR99       0.1957
     46  OH         3.6350    4.2050  -26.2510 O.3    99  TYR99      -0.2866
     47  N         -2.7240    3.8450  -22.1860 N.am  100  THR100     -0.1939
     48  CA        -3.5140    2.8060  -22.8010 C.3   100  THR100      0.2028
     49  C         -3.9120    3.1830  -24.1950 C.2   100  THR100      0.2642
     50  O         -4.1450    4.3600  -24.4700 O.2   100  THR100     -0.2714
     51  CB        -4.7530    2.3660  -22.0190 C.3   100  THR100      0.1808
     52  OG1       -5.7610    3.3730  -22.0820 O.3   100  THR100     -0.2208
     53  CG2       -4.4450    1.9190  -20.6260 C.3   100  THR100      0.0379
     54  N         -4.0740    2.1700  -25.0420 N.am  101  LEU101     -0.1977
     55  CA        -4.5020    2.3230  -26.4340 C.3   101  LEU101      0.1596
     56  C         -5.3630    1.1290  -26.7680 C.2   101  LEU101      0.2287
     57  O         -5.2460    0.0760  -26.1610 O.2   101  LEU101     -0.2864
     58  CB        -3.3130    2.3660  -27.4370 C.3   101  LEU101      0.0297
     59  CG        -2.5280    3.6930  -27.4940 C.3   101  LEU101      0.0022
     60  CD1       -1.3040    3.5240  -28.3640 C.3   101  LEU101      0.0001
     61  CD2       -3.3930    4.7640  -28.1460 C.3   101  LEU101      0.0001
     62  N         -3.4310   -3.3950  -30.6890 N.3   104  ASN104     -0.1240
     63  CA        -2.9020   -3.2760  -32.0800 C.3   104  ASN104      0.1653
     64  C         -1.8990   -4.3730  -32.4150 C.2   104  ASN104      0.2266
     65  O         -1.2790   -4.3230  -33.4940 O.2   104  ASN104     -0.2867
     66  CB        -2.2830   -1.8700  -32.3220 C.3   104  ASN104      0.1155
     67  CG        -1.0440   -1.5740  -31.4770 C.2   104  ASN104      0.2627
     68  OD1       -0.2940   -2.4720  -31.1250 O.2   104  ASN104     -0.2716
     69  ND2       -0.8460   -0.2790  -31.1530 N.am  104  ASN104     -0.0877
     70  N          1.1020   -5.0090  -31.3320 N.3   106  GLY106     -0.1210
     71  CA         2.5460   -4.7420  -31.2280 C.3   106  GLY106      0.1956
     72  C          3.1220   -5.2030  -29.8950 C.2   106  GLY106      0.2612
     73  O          2.3650   -5.4150  -28.8960 O.2   106  GLY106     -0.2717
     74  N          4.4320   -5.4150  -29.8460 N.am  107  ASN107     -0.1960
     75  CA         5.0350   -5.9200  -28.6280 C.3   107  ASN107      0.1819
     76  C          5.1230   -4.8910  -27.5010 C.2   107  ASN107      0.2621
     77  O          5.3180   -5.2710  -26.3630 O.2   107  ASN107     -0.2715
     78  CB         6.4110   -6.5120  -28.9420 C.3   107  ASN107      0.1195
     79  CG         6.2860   -7.8590  -29.6070 C.2   107  ASN107      0.2630
     80  OD1        5.4570   -8.6920  -29.2290 O.2   107  ASN107     -0.2716
     81  ND2        7.0860   -8.0520  -30.6020 N.am  107  ASN107     -0.0877
     82  N          4.8680   -3.6180  -27.7950 N.am  108  TYR108     -0.1960
     83  CA         4.7810   -2.5940  -26.7850 C.3   108  TYR108      0.1771
     84  C          3.5740   -2.8140  -25.8700 C.2   108  TYR108      0.2619
     85  O          3.5720   -2.3100  -24.7590 O.2   108  TYR108     -0.2715
     86  CB         4.6720   -1.2150  -27.3750 C.3   108  TYR108      0.0574
     87  CG         5.8490   -0.8070  -28.2560 C.ar  108  TYR108     -0.0198
     88  CD1        5.8490   -1.0670  -29.6080 C.ar  108  TYR108     -0.0009
     89  CD2        6.8800   -0.0350  -27.7260 C.ar  108  TYR108     -0.0009
     90  CE1        6.8970   -0.6470  -30.4280 C.ar  108  TYR108      0.0417
     91  CE2        7.9300    0.4240  -28.5770 C.ar  108  TYR108      0.0417
     92  CZ         7.8730    0.1060  -29.8620 C.ar  108  TYR108      0.1957
     93  OH         8.9250    0.5750  -30.6860 O.3   108  TYR108     -0.2866
     94  N          2.6100   -3.6040  -26.3260 N.am  109  GLN109     -0.1977
     95  CA         1.3940   -3.9090  -25.5700 C.3   109  GLN109      0.1601
     96  C          1.4190   -5.2420  -24.9510 C.2   109  GLN109      0.2287
     97  O          0.4200   -5.7130  -24.4040 O.2   109  GLN109     -0.2864
     98  CB         0.1730   -3.7920  -26.5160 C.3   109  GLN109      0.0394
     99  CG        -0.1350   -2.3740  -26.9610 C.3   109  GLN109      0.0908
    100  CD        -1.2920   -2.2580  -27.9020 C.2   109  GLN109      0.2608
    101  OE1       -1.7800   -3.2460  -28.4340 O.2   109  GLN109     -0.2717
    102  NE2       -1.8190   -1.0550  -28.0190 N.am  109  GLN109     -0.0878
@<TRIPOS>BOND
     1    65    64    2
     2    64    63    1
     3    66    63    1
     4    66    67    1
     5    63    62    1
     6    67    69   am
     7    67    68    2
     8    70    71    1
     9    71    72    1
    10    93    92    1
    11    81    79   am
    12    90    92   ar
    13    90    88   ar
    14    72    74   am
    15    72    73    2
    16    92    91   ar
    17    74    75    1
    18    88    87   ar
    19    79    80    2
    20    79    78    1
    21    78    75    1
    22    75    76    1
    23    91    89   ar
    24   101   100    2
    25    32    30   ar
    26    32    33   ar
    27    60    59    1
    28    87    89   ar
    29    87    86    1
    30    61    59    1
    31    34    33    1
    32   102   100   am
    33    30    28   ar
    34   100    99    1
    35    82    76   am
    36    82    83    1
    37    33    31   ar
    38    76    77    2
    39    59    58    1
    40    58    55    1
    41    86    83    1
    42    99    98    1
    43     8     6   ar
    44    28    27    1
    45    28    29   ar
    46    83    84    1
    47    56    55    1
    48    56    57    2
    49    31    29   ar
    50    98    95    1
    51    55    54    1
    52    27    24    1
    53    94    84   am
    54    94    95    1
    55    46    45    1
    56     7     6   ar
    57     6     5    1
    58    84    85    2
    59    19    16    1
    60    19    20    1
    61    95    96    1
    62    43    45   ar
    63    43    41   ar
    64    23    24    1
    65    23    17   am
    66    45    44   ar
    67    22    20   am
    68    12    11    2
    69    16    17    1
    70    16    15    1
    71    24    25    1
    72    54    49   am
    73    96    97    2
    74    20    21    2
    75    41    40   ar
    76     5     2    1
    77    17    18    2
    78    50    49    2
    79    44    42   ar
    80    49    48    1
    81    11    15   am
    82    11    10    1
    83    25    26    2
    84    40    42   ar
    85    40    39    1
    86     9    10    1
    87     9     3   am
    88     2     3    1
    89     2     1    1
    90    10    13    1
    91     3     4    2
    92    48    47    1
    93    48    51    1
    94    39    36    1
    95    47    37   am
    96    52    51    1
    97    14    13    1
    98    51    53    1
    99    37    38    2
   100    37    36    1
   101    36    35    1
