@<TRIPOS>MOLECULE
tmp/4p6aA01.pdb
 81 78 0 0 0
SMALL
GASTEIGER

@<TRIPOS>ATOM
      1  N         -4.5910    2.3200  -12.5520 N.3    53  ASP53      -0.1225
      2  CA        -5.8300    2.9660  -12.9510 C.3    53  ASP53       0.1805
      3  C         -5.6240    3.6360  -14.2700 C.2    53  ASP53       0.2598
      4  O         -4.4800    3.9620  -14.6560 O.2    53  ASP53      -0.2718
      5  CB        -6.2540    3.9810  -11.8340 C.3    53  ASP53       0.1424
      6  CG        -7.6860    4.3440  -11.7710 C.2    53  ASP53       0.3668
      7  OD1       -8.4550    4.1310  -12.7160 O.co2  53  ASP53      -0.2456
      8  OD2       -8.0610    4.8900  -10.6900 O.co2  53  ASP53      -0.2456
      9  N         -6.6960    3.8350  -15.0530 N.am   54  SER54      -0.1938
     10  CA        -6.6030    4.4910  -16.3390 C.3    54  SER54       0.2055
     11  C         -7.9460    5.0740  -16.7260 C.2    54  SER54       0.2643
     12  O         -8.9680    4.7610  -16.0970 O.2    54  SER54      -0.2714
     13  CB        -6.0670    3.6140  -17.3940 C.3    54  SER54       0.2130
     14  OG        -6.9940    2.6160  -17.7600 O.3    54  SER54      -0.2179
     15  N         -7.9510    5.9300  -17.7350 N.am   55  ASN55      -0.1971
     16  CA        -9.1980    6.5470  -18.2140 C.3    55  ASN55       0.1688
     17  C         -9.3780    6.3180  -19.6850 C.2    55  ASN55       0.2292
     18  O         -8.5600    5.7610  -20.3920 O.2    55  ASN55      -0.2864
     19  CB        -9.2650    8.0220  -17.7570 C.3    55  ASN55       0.1181
     20  CG        -8.2400    8.8920  -18.3730 C.2    55  ASN55       0.2629
     21  OD1       -7.5980    8.5680  -19.3600 O.2    55  ASN55      -0.2716
     22  ND2       -7.9860   10.0560  -17.7330 N.am   55  ASN55      -0.0877
     23  N         -2.2440    5.9300  -14.3470 N.3    61  TYR61      -0.1241
     24  CA        -1.8570    6.5410  -13.0720 C.3    61  TYR61       0.1605
     25  C         -2.1350    5.5470  -11.9760 C.2    61  TYR61       0.2264
     26  O         -2.7210    4.4860  -12.2230 O.2    61  TYR61      -0.2867
     27  CB        -2.5510    7.9230  -12.8860 C.3    61  TYR61       0.0534
     28  CG        -4.0110    7.9040  -13.2600 C.ar   61  TYR61      -0.0201
     29  CD1       -4.9670    7.4910  -12.3900 C.ar   61  TYR61      -0.0009
     30  CD2       -4.3930    8.2230  -14.5450 C.ar   61  TYR61      -0.0009
     31  CE1       -6.3370    7.4030  -12.7700 C.ar   61  TYR61       0.0417
     32  CE2       -5.7250    8.1850  -14.9380 C.ar   61  TYR61       0.0417
     33  CZ        -6.6800    7.7650  -14.0290 C.ar   61  TYR61       0.1957
     34  OH        -8.0010    7.7200  -14.4970 O.3    61  TYR61      -0.2866
     35  N         -4.0230    5.4320   -8.0610 N.3    63  LEU63      -0.1245
     36  CA        -4.8900    6.1690   -7.0810 C.3    63  LEU63       0.1561
     37  C         -5.1570    5.2510   -5.9300 C.2    63  LEU63       0.2260
     38  O         -5.1070    4.0280   -6.0520 O.2    63  LEU63      -0.2867
     39  CB        -6.2060    6.6000   -7.7480 C.3    63  LEU63       0.0270
     40  CG        -6.2330    7.8290   -8.5950 C.3    63  LEU63       0.0019
     41  CD1       -7.5780    7.9790   -9.2260 C.3    63  LEU63       0.0001
     42  CD2       -5.8730    9.0780   -7.8440 C.3    63  LEU63       0.0001
     43  N        -10.4360    2.2810   -4.8730 N.3    66  ASN66      -0.1240
     44  CA       -11.8010    2.7870   -4.6990 C.3    66  ASN66       0.1653
     45  C        -12.8890    1.8130   -5.1100 C.2    66  ASN66       0.2266
     46  O        -14.0790    2.1280   -5.0260 O.2    66  ASN66      -0.2867
     47  CB       -11.9640    4.1050   -5.4230 C.3    66  ASN66       0.1155
     48  CG       -11.7490    4.0260   -6.9470 C.2    66  ASN66       0.2627
     49  OD1      -12.0770    3.0350   -7.5540 O.2    66  ASN66      -0.2716
     50  ND2      -11.2120    5.0720   -7.5080 N.am   66  ASN66      -0.0877
     51  N        -13.7600    0.7390   -8.0320 N.3    68  GLY68      -0.1210
     52  CA       -14.3350    0.9900   -9.3560 C.3    68  GLY68       0.1956
     53  C        -13.7560    0.1630  -10.4890 C.2    68  GLY68       0.2613
     54  O        -12.6810   -0.4140  -10.4020 O.2    68  GLY68      -0.2717
     55  N        -14.4690    0.1240  -11.6150 N.am   69  SER69      -0.1938
     56  CA       -14.1290   -0.7080  -12.7780 C.3    69  SER69       0.2055
     57  C        -12.8360   -0.2290  -13.5010 C.2    69  SER69       0.2643
     58  O        -12.1280   -1.0050  -14.1120 O.2    69  SER69      -0.2714
     59  CB       -15.2920   -0.6740  -13.8220 C.3    69  SER69       0.2130
     60  OG       -15.6240    0.6790  -14.1100 O.3    69  SER69      -0.2179
     61  N        -12.4940    1.0400  -13.3400 N.am   70  TYR70      -0.1959
     62  CA       -11.2840    1.6190  -13.9570 C.3    70  TYR70       0.1771
     63  C        -10.0210    1.0770  -13.2750 C.2    70  TYR70       0.2619
     64  O         -8.9300    1.1460  -13.8460 O.2    70  TYR70      -0.2715
     65  CB       -11.2900    3.1040  -13.8730 C.3    70  TYR70       0.0574
     66  CG       -12.3060    3.8500  -14.7050 C.ar   70  TYR70      -0.0198
     67  CD1      -12.0360    4.1490  -16.0010 C.ar   70  TYR70      -0.0009
     68  CD2      -13.5090    4.2760  -14.1840 C.ar   70  TYR70      -0.0009
     69  CE1      -12.8740    4.9200  -16.7990 C.ar   70  TYR70       0.0417
     70  CE2      -14.3870    5.0210  -15.0060 C.ar   70  TYR70       0.0417
     71  CZ       -14.0050    5.3330  -16.2620 C.ar   70  TYR70       0.1957
     72  OH       -14.7980    6.1660  -17.0820 O.3    70  TYR70      -0.2866
     73  N        -10.1730    0.5540  -12.0720 N.am   71  GLN71      -0.1977
     74  CA        -9.0570   -0.0760  -11.3630 C.3    71  GLN71       0.1601
     75  C         -8.9980   -1.5730  -11.4850 C.2    71  GLN71       0.2287
     76  O         -8.1970   -2.2610  -10.8130 O.2    71  GLN71      -0.2864
     77  CB        -9.0870    0.3610   -9.8840 C.3    71  GLN71       0.0394
     78  CG        -8.7020    1.7850   -9.7060 C.3    71  GLN71       0.0908
     79  CD        -8.7530    2.2860   -8.2600 C.2    71  GLN71       0.2608
     80  OE1       -9.0980    1.5590   -7.3550 O.2    71  GLN71      -0.2717
     81  NE2       -8.2960    3.4690   -8.0800 N.am   71  GLN71      -0.0878
@<TRIPOS>BOND
     1    18    17    2
     2    17    16    1
     3    21    20    2
     4    20    19    1
     5    20    22   am
     6    16    19    1
     7    16    15    1
     8    14    13    1
     9    15    11   am
    10    13    10    1
    11    72    71    1
    12    69    71   ar
    13    69    67   ar
    14    11    10    1
    15    11    12    2
    16    10     9    1
    17    71    70   ar
    18    67    66   ar
    19     9     3   am
    20    70    68   ar
    21    32    30   ar
    22    32    33   ar
    23    66    68   ar
    24    66    65    1
    25     4     3    2
    26    30    28   ar
    27    34    33    1
    28    23    24    1
    29     3     2    1
    30    58    57    2
    31    60    59    1
    32    33    31   ar
    33    62    65    1
    34    62    61    1
    35    62    63    1
    36    64    63    2
    37    59    56    1
    38    57    61   am
    39    57    56    1
    40    63    73   am
    41    28    27    1
    42    28    29   ar
    43    24    27    1
    44    24    25    1
    45     2     1    1
    46     2     5    1
    47    56    55    1
    48    31    29   ar
    49     7     6   ar
    50    26    25    2
    51    73    74    1
    52     5     6    1
    53     6     8   ar
    54    55    53   am
    55    75    74    1
    56    75    76    2
    57    74    77    1
    58    53    54    2
    59    53    52    1
    60    77    78    1
    61    78    79    1
    62    52    51    1
    63    41    40    1
    64    40    42    1
    65    40    39    1
    66    79    81   am
    67    79    80    2
    68    35    36    1
    69    39    36    1
    70    49    48    2
    71    50    48   am
    72    36    37    1
    73    48    47    1
    74    38    37    2
    75    47    44    1
    76    45    46    2
    77    45    44    1
    78    43    44    1
