@<TRIPOS>MOLECULE
tmp/4p6aA00.pdb
 90 88 0 0 0
SMALL
GASTEIGER

@<TRIPOS>ATOM
      1  N          6.3590    0.7450  -13.1390 N.3    15  ASP15      -0.1225
      2  CA         6.8640    1.3740  -11.9110 C.3    15  ASP15       0.1805
      3  C          5.9210    2.5340  -11.6080 C.2    15  ASP15       0.2598
      4  O          5.2070    3.0480  -12.4920 O.2    15  ASP15      -0.2718
      5  CB         8.3060    1.8300  -12.2550 C.3    15  ASP15       0.1424
      6  CG         9.1820    2.1560  -11.1060 C.2    15  ASP15       0.3668
      7  OD1        8.6900    2.2580  -10.0020 O.co2  15  ASP15      -0.2456
      8  OD2       10.4180    2.3120  -11.3400 O.co2  15  ASP15      -0.2456
      9  N          5.8690    2.9710  -10.3500 N.am   16  SER16      -0.1938
     10  CA         5.0410    4.1290   -9.9950 C.3    16  SER16       0.2055
     11  C          5.4770    4.6910   -8.6570 C.2    16  SER16       0.2643
     12  O          6.3080    4.0940   -7.9820 O.2    16  SER16      -0.2714
     13  CB         3.5690    3.7340   -9.8960 C.3    16  SER16       0.2130
     14  OG         3.3020    2.8880   -8.7700 O.3    16  SER16      -0.2179
     15  N          4.9610    5.8660   -8.3440 N.am   17  ASN17      -0.1971
     16  CA         5.4230    6.5930   -7.1540 C.3    17  ASN17       0.1688
     17  C          4.2610    7.0410   -6.3120 C.2    17  ASN17       0.2292
     18  O          3.0610    6.7940   -6.5580 O.2    17  ASN17      -0.2864
     19  CB         6.3870    7.7090   -7.5480 C.3    17  ASN17       0.1181
     20  CG         5.7220    8.8430   -8.2890 C.2    17  ASN17       0.2629
     21  OD1        4.4950    8.9520   -8.3420 O.2    17  ASN17      -0.2716
     22  ND2        6.5610    9.6660   -8.9450 N.am   17  ASN17      -0.0877
     23  N          5.0780    4.8330  -14.9650 N.3    23  TYR23      -0.1227
     24  CA         6.1270    4.9290  -15.9710 C.3    23  TYR23       0.1736
     25  C          6.8030    3.5590  -16.0240 C.2    23  TYR23       0.2596
     26  O          6.4410    2.6500  -15.2990 O.2    23  TYR23      -0.2718
     27  CB         7.1490    6.0570  -15.6330 C.3    23  TYR23       0.0548
     28  CG         7.4640    6.1270  -14.1330 C.ar   23  TYR23      -0.0200
     29  CD1        8.4460    5.3170  -13.5800 C.ar   23  TYR23      -0.0009
     30  CD2        6.7270    6.9300  -13.2850 C.ar   23  TYR23      -0.0009
     31  CE1        8.7480    5.3910  -12.2190 C.ar   23  TYR23       0.0417
     32  CE2        6.9790    6.9160  -11.9180 C.ar   23  TYR23       0.0417
     33  CZ         8.0000    6.1680  -11.4080 C.ar   23  TYR23       0.1957
     34  OH         8.1810    6.2330  -10.0250 O.3    23  TYR23      -0.2866
     35  N          7.7220    3.3990  -16.9710 N.am   24  THR24      -0.1939
     36  CA         8.5900    2.2400  -16.9410 C.3    24  THR24       0.2028
     37  C         10.0080    2.6930  -16.7350 C.2    24  THR24       0.2642
     38  O         10.3810    3.7670  -17.1650 O.2    24  THR24      -0.2714
     39  CB         8.4940    1.3620  -18.1710 C.3    24  THR24       0.1808
     40  OG1        9.0710    2.0380  -19.2830 O.3    24  THR24      -0.2208
     41  CG2        7.1430    0.8250  -18.4170 C.3    24  THR24       0.0379
     42  N         10.8030    1.8030  -16.0980 N.am   25  LEU25      -0.1977
     43  CA        12.2420    2.0700  -15.9000 C.3    25  LEU25       0.1596
     44  C         12.9360    0.7530  -16.0010 C.2    25  LEU25       0.2287
     45  O         12.3890   -0.3060  -15.7670 O.2    25  LEU25      -0.2864
     46  CB        12.5240    2.6030  -14.5000 C.3    25  LEU25       0.0297
     47  CG        12.3610    4.0770  -14.3250 C.3    25  LEU25       0.0022
     48  CD1       12.4740    4.4320  -12.8580 C.3    25  LEU25       0.0001
     49  CD2       13.4070    4.9110  -15.0740 C.3    25  LEU25       0.0001
     50  N         15.5510   -2.2150  -11.2680 N.3    28  ASN28      -0.1240
     51  CA        16.4590   -1.7490  -10.2400 C.3    28  ASN28       0.1653
     52  C         16.3080   -2.4610   -8.9140 C.2    28  ASN28       0.2266
     53  O         17.0510   -2.0560   -7.9750 O.2    28  ASN28      -0.2867
     54  CB        16.3400   -0.2390  -10.0100 C.3    28  ASN28       0.1155
     55  CG        14.9320    0.2070   -9.5390 C.2    28  ASN28       0.2627
     56  OD1       14.2200   -0.5350   -8.8950 O.2    28  ASN28      -0.2716
     57  ND2       14.5560    1.4170   -9.9110 N.am   28  ASN28      -0.0877
     58  N         14.0640   -2.4200   -6.7440 N.3    30  GLY30      -0.1210
     59  CA        13.2590   -1.7800   -5.7060 C.3    30  GLY30       0.1956
     60  C         11.8040   -2.1890   -5.6880 C.2    30  GLY30       0.2612
     61  O         11.3160   -2.8180   -6.5930 O.2    30  GLY30      -0.2717
     62  N         11.1210   -1.8080   -4.6230 N.am   31  ASN31      -0.1960
     63  CA         9.7820   -2.2620   -4.3910 C.3    31  ASN31       0.1819
     64  C          8.6840   -1.4500   -5.1320 C.2    31  ASN31       0.2621
     65  O          7.5680   -1.9310   -5.2770 O.2    31  ASN31      -0.2715
     66  CB         9.4750   -2.3090   -2.8800 C.3    31  ASN31       0.1195
     67  CG         8.5000   -3.4010   -2.5120 C.2    31  ASN31       0.2630
     68  OD1        8.4660   -4.5380   -3.0600 O.2    31  ASN31      -0.2716
     69  ND2        7.6430   -3.0480   -1.4980 N.am   31  ASN31      -0.0877
     70  N          9.0820   -0.2960   -5.6750 N.am   32  TYR32      -0.1960
     71  CA         8.1570    0.4600   -6.4930 C.3    32  TYR32       0.1771
     72  C          7.9340   -0.2690   -7.8380 C.2    32  TYR32       0.2619
     73  O          6.9540    0.0620   -8.5320 O.2    32  TYR32      -0.2715
     74  CB         8.7020    1.7930   -6.7880 C.3    32  TYR32       0.0574
     75  CG         8.9000    2.7130   -5.5920 C.ar   32  TYR32      -0.0198
     76  CD1        7.9810    3.6300   -5.2420 C.ar   32  TYR32      -0.0009
     77  CD2       10.1230    2.7210   -4.9300 C.ar   32  TYR32      -0.0009
     78  CE1        8.1790    4.5650   -4.2090 C.ar   32  TYR32       0.0417
     79  CE2       10.3590    3.6600   -3.9080 C.ar   32  TYR32       0.0417
     80  CZ         9.3800    4.5580   -3.5690 C.ar   32  TYR32       0.1957
     81  OH         9.6280    5.5160   -2.5600 O.3    32  TYR32      -0.2866
     82  N          8.7970   -1.1900   -8.2350 N.am   33  GLN33      -0.1977
     83  CA         8.6540   -1.9930   -9.4500 C.3    33  GLN33       0.1601
     84  C          7.9780   -3.2960   -9.2150 C.2    33  GLN33       0.2287
     85  O          7.9530   -4.1890  -10.0660 O.2    33  GLN33      -0.2864
     86  CB        10.0220   -2.2310  -10.0570 C.3    33  GLN33       0.0394
     87  CG        10.5830   -0.9860  -10.6450 C.3    33  GLN33       0.0908
     88  CD        11.9220   -1.1560  -11.3380 C.2    33  GLN33       0.2608
     89  OE1       12.6010   -2.1850  -11.2160 O.2    33  GLN33      -0.2717
     90  NE2       12.2820   -0.1610  -12.0260 N.am   33  GLN33      -0.0878
@<TRIPOS>BOND
     1    40    39    1
     2    41    39    1
     3    39    36    1
     4    38    37    2
     5    35    36    1
     6    35    25   am
     7    36    37    1
     8    37    42   am
     9    42    43    1
    10    25    24    1
    11    25    26    2
    12    44    43    1
    13    44    45    2
    14    24    27    1
    15    24    23    1
    16    43    46    1
    17    27    28    1
    18    49    47    1
    19    46    47    1
    20    47    48    1
    21    28    29   ar
    22    28    30   ar
    23    29    31   ar
    24    30    32   ar
    25     1     2    1
    26     4     3    2
    27     5     2    1
    28     5     6    1
    29    31    33   ar
    30    90    88   am
    31    32    33   ar
    32     2     3    1
    33     3     9   am
    34    33    34    1
    35     8     6   ar
    36    88    89    2
    37    88    87    1
    38    50    51    1
    39     6     7   ar
    40    87    86    1
    41     9    10    1
    42    51    54    1
    43    51    52    1
    44    85    84    2
    45    86    83    1
    46    54    55    1
    47    10    13    1
    48    10    11    1
    49    57    55   am
    50    13    14    1
    51    55    56    2
    52    83    84    1
    53    83    82    1
    54    22    20   am
    55    52    53    2
    56    11    15   am
    57    11    12    2
    58    73    72    2
    59    15    16    1
    60    21    20    2
    61    20    19    1
    62    82    72   am
    63    72    71    1
    64    19    16    1
    65    16    17    1
    66    74    71    1
    67    74    75    1
    68    58    59    1
    69    61    60    2
    70    18    17    2
    71    71    70    1
    72    59    60    1
    73    60    62   am
    74    70    64   am
    75    75    76   ar
    76    75    77   ar
    77    65    64    2
    78    76    78   ar
    79    64    63    1
    80    77    79   ar
    81    62    63    1
    82    63    66    1
    83    78    80   ar
    84    79    80   ar
    85    80    81    1
    86    68    67    2
    87    66    67    1
    88    67    69   am
