@<TRIPOS>MOLECULE
tmp/4p6eB01.pdb
 128 125 0 0 0
SMALL
GASTEIGER

@<TRIPOS>ATOM
      1  N         41.1370   24.3700   16.2470 N.3    26  CYS26      -0.1221
      2  CA        40.8750   24.4640   17.6880 C.3    26  CYS26       0.1808
      3  C         39.5860   23.7360   18.0910 C.2    26  CYS26       0.2601
      4  O         39.5330   23.0280   19.1060 O.2    26  CYS26      -0.2717
      5  CB        40.8090   25.9430   18.1170 C.3    26  CYS26       0.0970
      6  SG        39.4930   26.8740   17.2990 S.3    26  CYS26      -0.0800
      7  N         38.5470   23.9160   17.2880 N.am   27  TRP27      -0.1976
      8  CA        37.2300   23.2900   17.4960 C.3    27  TRP27       0.1640
      9  C         37.3030   21.7760   17.5230 C.2    27  TRP27       0.2290
     10  O         36.6470   21.1240   18.3480 O.2    27  TRP27      -0.2864
     11  CB        36.2350   23.7400   16.4090 C.3    27  TRP27       0.0576
     12  CG        36.6460   23.3560   15.0040 C.ar   27  TRP27       0.0006
     13  CD1       37.5190   24.0270   14.1980 C.ar   27  TRP27       0.0946
     14  CD2       36.2160   22.2100   14.2720 C.ar   27  TRP27       0.0152
     15  NE1       37.6420   23.3840   12.9990 N.ar   27  TRP27      -0.2442
     16  CE2       36.8480   22.2640   13.0160 C.ar   27  TRP27       0.0810
     17  CE3       35.3310   21.1530   14.5450 C.ar   27  TRP27       0.0012
     18  CZ2       36.6390   21.3130   12.0390 C.ar   27  TRP27       0.0191
     19  CZ3       35.1240   20.1950   13.5670 C.ar   27  TRP27       0.0001
     20  CH2       35.7900   20.2810   12.3170 C.ar   27  TRP27       0.0015
     21  N         28.2970   22.1350    8.9240 N.3    63  GLY63      -0.1225
     22  CA        28.5770   23.5730    8.9700 C.3    63  GLY63       0.1811
     23  C         30.0070   23.9530    9.2700 C.2    63  GLY63       0.2280
     24  O         30.3010   25.1190    9.5570 O.2    63  GLY63      -0.2866
     25  N         34.3020   24.0320    8.4830 N.3    65  LYS65      -0.1245
     26  CA        35.1490   24.4720    7.3910 C.3    65  LYS65       0.1561
     27  C         36.5980   24.0490    7.5810 C.2    65  LYS65       0.2260
     28  O         37.5280   24.7420    7.1150 O.2    65  LYS65      -0.2867
     29  CB        35.0430   25.9930    7.2510 C.3    65  LYS65       0.0271
     30  CG        33.6660   26.4510    6.8010 C.3    65  LYS65       0.0035
     31  CD        33.5680   27.9650    6.8210 C.3    65  LYS65       0.0206
     32  CE        32.1780   28.4540    6.4490 C.3    65  LYS65       0.1093
     33  NZ        31.7870   28.0520    5.0730 N.3    65  LYS65      -0.1314
     34  N         39.5900   26.2900    8.4710 N.3    68  ASN68      -0.1225
     35  CA        38.9830   27.6140    8.6110 C.3    68  ASN68       0.1785
     36  C         37.8980   27.7070    9.6870 C.2    68  ASN68       0.2598
     37  O         37.1740   28.7030    9.7730 O.2    68  ASN68      -0.2718
     38  CB        38.4380   28.0870    7.2550 C.3    68  ASN68       0.1169
     39  CG        39.5330   28.4620    6.2890 C.2    68  ASN68       0.2627
     40  OD1       40.5850   28.9390    6.6870 O.2    68  ASN68      -0.2716
     41  ND2       39.2900   28.2490    4.9980 N.am   68  ASN68      -0.0877
     42  N         37.7810   26.6840   10.5240 N.am   69  GLY69      -0.1942
     43  CA        36.9270   26.7560   11.7010 C.3    69  GLY69       0.2014
     44  C         35.7650   25.7790   11.7010 C.2    69  GLY69       0.2639
     45  O         35.4880   25.1110   10.7150 O.2    69  GLY69      -0.2714
     46  N         35.0920   25.6890   12.8400 N.am   70  GLY70      -0.1939
     47  CA        33.9780   24.7630   13.0070 C.3    70  GLY70       0.2014
     48  C         33.3870   24.8520   14.3850 C.2    70  GLY70       0.2639
     49  O         33.7560   25.7400   15.1580 O.2    70  GLY70      -0.2714
     50  N         32.4650   23.9320   14.6860 N.am   71  PHE71      -0.1959
     51  CA        31.7550   23.8770   15.9780 C.3    71  PHE71       0.1771
     52  C         32.0480   22.5610   16.6850 C.2    71  PHE71       0.2619
     53  O         32.0280   21.4870   16.0600 O.2    71  PHE71      -0.2715
     54  CB        30.2180   23.9110   15.7900 C.3    71  PHE71       0.0574
     55  CG        29.7010   25.1080   15.0440 C.ar   71  PHE71      -0.0200
     56  CD1       29.4870   26.3060   15.6950 C.ar   71  PHE71      -0.0042
     57  CD2       29.3940   25.0250   13.6900 C.ar   71  PHE71      -0.0042
     58  CE1       28.9860   27.4080   15.0030 C.ar   71  PHE71      -0.0003
     59  CE2       28.8870   26.1250   12.9950 C.ar   71  PHE71      -0.0003
     60  CZ        28.6810   27.3070   13.6570 C.ar   71  PHE71      -0.0000
     61  N         32.2590   22.6130   18.0020 N.am   72  MET72      -0.1963
     62  CA        32.3860   21.3700   18.7770 C.3    72  MET72       0.1736
     63  C         31.0850   20.5690   18.7680 C.2    72  MET72       0.2617
     64  O         31.1150   19.3480   18.6710 O.2    72  MET72      -0.2715
     65  CB        32.8320   21.6630   20.2070 C.3    72  MET72       0.0427
     66  CG        34.2520   22.2210   20.2790 C.3    72  MET72       0.0599
     67  SD        34.3700   23.9930   19.9960 S.3    72  MET72      -0.1393
     68  CE        33.7480   24.6200   21.5400 C.3    72  MET72       0.0692
     69  N         29.9360   21.2460   18.8470 N.am   73  THR73      -0.1951
     70  CA        28.6670   20.5450   18.9320 C.3    73  THR73       0.1897
     71  C         28.4010   19.7410   17.6540 C.2    73  THR73       0.2313
     72  O         27.9390   18.6080   17.7220 O.2    73  THR73      -0.2863
     73  CB        27.4800   21.4890   19.1800 C.3    73  THR73       0.1794
     74  OG1       27.5650   22.5790   18.2620 O.3    73  THR73      -0.2208
     75  CG2       27.4960   22.0350   20.5920 C.3    73  THR73       0.0378
     76  N         24.3330   20.8890   25.4330 N.3   116  GLU116     -0.1245
     77  CA        24.7320   22.2860   25.3850 C.3   116  GLU116      0.1567
     78  C         24.2150   22.9540   26.6580 C.2   116  GLU116      0.2260
     79  O         23.0140   22.8840   26.9610 O.2   116  GLU116     -0.2867
     80  CB        24.1430   22.9620   24.1330 C.3   116  GLU116      0.0388
     81  CG        24.6470   22.3700   22.8130 C.3   116  GLU116      0.1160
     82  CD        24.0430   23.0090   21.5730 C.2   116  GLU116      0.3649
     83  OE1       24.3890   24.1660   21.2900 O.co2 116  GLU116     -0.2457
     84  OE2       23.2580   22.3590   20.8570 O.co2 116  GLU116     -0.2457
     85  N         33.7960   27.8590   23.7720 N.3   138  GLY138     -0.1225
     86  CA        34.4120   28.8860   22.9510 C.3   138  GLY138      0.1811
     87  C         34.8420   30.0580   23.8030 C.2   138  GLY138      0.2280
     88  O         34.1820   30.4030   24.8010 O.2   138  GLY138     -0.2866
     89  N         32.7230   34.8120   20.9150 N.3   163  VAL163     -0.1231
     90  CA        33.7390   33.7630   20.9330 C.3   163  VAL163      0.1692
     91  C         34.2190   33.3800   19.5280 C.2   163  VAL163      0.2592
     92  O         33.4770   33.4590   18.5530 O.2   163  VAL163     -0.2718
     93  CB        33.2540   32.5210   21.7090 C.3   163  VAL163      0.0266
     94  CG1       32.7890   32.9390   23.0900 C.3   163  VAL163      0.0020
     95  CG2       32.1550   31.7680   20.9700 C.3   163  VAL163      0.0020
     96  N         35.4750   32.9740   19.4260 N.am  164  ASN164     -0.1960
     97  CA        36.0800   32.6280   18.1390 C.3   164  ASN164      0.1819
     98  C         37.1130   31.5260   18.2490 C.2   164  ASN164      0.2621
     99  O         37.7640   31.2010   17.2720 O.2   164  ASN164     -0.2715
    100  CB        36.7770   33.8610   17.5790 C.3   164  ASN164      0.1195
    101  CG        37.5240   34.6080   18.6610 C.2   164  ASN164      0.2630
    102  OD1       38.4350   34.0810   19.2680 O.2   164  ASN164     -0.2716
    103  ND2       37.0530   35.8230   18.9810 N.am  164  ASN164     -0.0877
    104  N         37.2840   30.9500   19.4290 N.am  165  HIS165     -0.1959
    105  CA        38.3840   29.9780   19.6230 C.3   165  HIS165      0.1787
    106  C         37.9030   28.8580   20.5310 C.2   165  HIS165      0.2620
    107  O         37.4750   29.1120   21.6620 O.2   165  HIS165     -0.2715
    108  CB        39.5840   30.7160   20.2120 C.3   165  HIS165      0.0785
    109  CG        40.8090   29.8750   20.3540 C.ar  165  HIS165      0.0821
    110  ND1       41.4950   29.3730   19.2700 N.ar  165  HIS165     -0.2267
    111  CD2       41.4840   29.4540   21.4510 C.ar  165  HIS165      0.1154
    112  CE1       42.5280   28.6630   19.6920 C.ar  165  HIS165      0.1986
    113  NE2       42.5520   28.7060   21.0120 N.ar  165  HIS165     -0.2212
    114  N         37.9970   27.6240   20.0430 N.am  166  GLY166     -0.1954
    115  CA        37.5360   26.4530   20.7940 C.3   166  GLY166      0.1869
    116  C         38.6020   25.8980   21.7090 C.2   166  GLY166      0.2309
    117  O         39.7370   25.7070   21.2950 O.2   166  GLY166     -0.2863
    118  N         28.9420   29.2740   25.1830 N.3   212  PHE212     -0.1241
    119  CA        28.5200   28.0830   24.4400 C.3   212  PHE212      0.1605
    120  C         29.2740   26.8200   24.8780 C.2   212  PHE212      0.2264
    121  O         30.0830   26.2680   24.1240 O.2   212  PHE212     -0.2867
    122  CB        28.6870   28.3250   22.9440 C.3   212  PHE212      0.0534
    123  CG        27.8780   29.5100   22.4290 C.ar  212  PHE212     -0.0203
    124  CD1       26.4840   29.4450   22.3660 C.ar  212  PHE212     -0.0042
    125  CD2       28.5100   30.6730   22.0150 C.ar  212  PHE212     -0.0042
    126  CE1       25.7450   30.5370   21.9060 C.ar  212  PHE212     -0.0003
    127  CE2       27.7730   31.7550   21.5630 C.ar  212  PHE212     -0.0003
    128  CZ        26.3980   31.6830   21.5120 C.ar  212  PHE212     -0.0000
@<TRIPOS>BOND
     1    41    39   am
     2    33    32    1
     3    39    40    2
     4    39    38    1
     5    32    31    1
     6    30    31    1
     7    30    29    1
     8    28    27    2
     9    29    26    1
    10    38    35    1
    11    26    27    1
    12    26    25    1
    13    34    35    1
    14    35    36    1
    15    21    22    1
    16    22    23    1
    17    23    24    2
    18    36    37    2
    19    36    42   am
    20    42    43    1
    21    45    44    2
    22    43    44    1
    23    44    46   am
    24    18    20   ar
    25    18    16   ar
    26    20    19   ar
    27    46    47    1
    28    59    60   ar
    29    59    57   ar
    30    15    16   ar
    31    15    13   ar
    32    47    48    1
    33    16    14   ar
    34    19    17   ar
    35    60    58   ar
    36    57    55   ar
    37    13    12   ar
    38    14    17   ar
    39    14    12   ar
    40    48    50   am
    41    48    49    2
    42    50    51    1
    43    58    56   ar
    44    12    11    1
    45    55    56   ar
    46    55    54    1
    47    54    51    1
    48    51    52    1
    49    53    52    2
    50     1     2    1
    51    11     8    1
    52    52    61   am
    53    99    98    2
    54     7     8    1
    55     7     3   am
    56     6     5    1
    57     8     9    1
    58     9    10    2
    59   100    97    1
    60   100   101    1
    61    71    72    2
    62    71    70    1
    63     2     3    1
    64     2     5    1
    65    61    62    1
    66     3     4    2
    67    97    98    1
    68    97    96    1
    69    98   104   am
    70    74    73    1
    71    92    91    2
    72   101   103   am
    73   101   102    2
    74    64    63    2
    75    63    62    1
    76    63    69   am
    77    62    65    1
    78    69    70    1
    79    70    73    1
    80    73    75    1
    81   110   112   ar
    82   110   109   ar
    83    96    91   am
    84   104   105    1
    85    91    90    1
    86   105   108    1
    87   105   106    1
    88   112   113   ar
    89    67    66    1
    90    67    68    1
    91   114   106   am
    92   114   115    1
    93    65    66    1
    94   108   109    1
    95   109   111   ar
    96   106   107    2
    97   115   116    1
    98    84    82   ar
    99    89    90    1
   100    90    93    1
   101    95    93    1
   102   113   111   ar
   103    83    82   ar
   104   117   116    2
   105   128   127   ar
   106   128   126   ar
   107   127   125   ar
   108    82    81    1
   109    93    94    1
   110   126   124   ar
   111   125   123   ar
   112   124   123   ar
   113   123   122    1
   114    81    80    1
   115   122   119    1
   116    86    85    1
   117    86    87    1
   118    87    88    2
   119   121   120    2
   120    80    77    1
   121   119   120    1
   122   119   118    1
   123    77    76    1
   124    77    78    1
   125    78    79    2
