@<TRIPOS>MOLECULE
tmp/4p6gB00.pdb
 127 123 0 0 0
SMALL
GASTEIGER

@<TRIPOS>ATOM
      1  N         64.7200  -46.1410   -5.2640 N.3    24  GLY24      -0.1225
      2  CA        63.5090  -45.4410   -4.8170 C.3    24  GLY24       0.1811
      3  C         62.5910  -45.1680   -6.0000 C.2    24  GLY24       0.2280
      4  O         62.3540  -44.0090   -6.3710 O.2    24  GLY24      -0.2866
      5  N         59.4330  -46.2930   -6.2190 N.3    26  CYS26      -0.1221
      6  CA        58.0430  -46.4890   -5.7910 C.3    26  CYS26       0.1808
      7  C         57.0530  -45.6430   -6.6020 C.2    26  CYS26       0.2601
      8  O         56.0010  -46.1330   -6.9800 O.2    26  CYS26      -0.2717
      9  CB        57.8960  -46.1630   -4.3120 C.3    26  CYS26       0.0970
     10  SG        58.5390  -44.5300   -3.8680 S.3    26  CYS26      -0.0800
     11  N         57.4030  -44.3790   -6.8170 N.am   27  TRP27      -0.1976
     12  CA        56.6080  -43.4610   -7.6490 C.3    27  TRP27       0.1640
     13  C         56.3490  -44.0210   -9.0630 C.2    27  TRP27       0.2290
     14  O         55.2720  -43.8240   -9.6140 O.2    27  TRP27      -0.2864
     15  CB        57.3060  -42.0830   -7.7120 C.3    27  TRP27       0.0576
     16  CG        58.6690  -42.1450   -8.3940 C.ar   27  TRP27       0.0006
     17  CD1       59.8610  -42.4680   -7.7940 C.ar   27  TRP27       0.0946
     18  CD2       58.9560  -41.8960   -9.7660 C.ar   27  TRP27       0.0152
     19  NE1       60.8720  -42.4390   -8.7280 N.ar   27  TRP27      -0.2442
     20  CE2       60.3500  -42.0860   -9.9410 C.ar   27  TRP27       0.0810
     21  CE3       58.1780  -41.5150  -10.8790 C.ar   27  TRP27       0.0012
     22  CZ2       60.9800  -41.9040  -11.1690 C.ar   27  TRP27       0.0191
     23  CZ3       58.7890  -41.3680  -12.0990 C.ar   27  TRP27       0.0001
     24  CH2       60.1910  -41.5430  -12.2440 C.ar   27  TRP27       0.0015
     25  N         60.8170  -33.2650  -12.9710 N.3    63  GLY63      -0.1225
     26  CA        61.1840  -33.1680  -11.5580 C.3    63  GLY63       0.1811
     27  C         61.4930  -34.4810  -10.8870 C.2    63  GLY63       0.2280
     28  O         61.5470  -34.5750   -9.6610 O.2    63  GLY63      -0.2866
     29  N         63.8670  -37.9360  -10.2240 N.3    65  LYS65      -0.1245
     30  CA        65.2630  -38.2920  -10.0250 C.3    65  LYS65       0.1561
     31  C         65.5070  -39.8010   -9.9410 C.2    65  LYS65       0.2260
     32  O         66.3310  -40.2900   -9.1390 O.2    65  LYS65      -0.2867
     33  CB        65.7960  -37.5800   -8.7870 C.3    65  LYS65       0.0271
     34  CG        65.7050  -36.0680   -8.9390 C.3    65  LYS65       0.0035
     35  CD        66.1160  -35.3690   -7.6810 C.3    65  LYS65       0.0206
     36  CE        66.0420  -33.8690   -7.8820 C.3    65  LYS65       0.1093
     37  NZ        65.7370  -33.2250   -6.5760 N.3    65  LYS65      -0.1314
     38  N         66.1490  -41.9740   -6.9120 N.3    68  ASN68      -0.1225
     39  CA        66.1160  -41.0490   -5.7880 C.3    68  ASN68       0.1785
     40  C         64.7770  -40.3780   -5.5340 C.2    68  ASN68       0.2598
     41  O         64.6880  -39.4740   -4.7150 O.2    68  ASN68      -0.2718
     42  CB        67.2250  -40.0070   -5.9160 C.3    68  ASN68       0.1169
     43  CG        68.5770  -40.5760   -5.5330 C.2    68  ASN68       0.2627
     44  OD1       68.6860  -41.3350   -4.5680 O.2    68  ASN68      -0.2716
     45  ND2       69.6090  -40.2430   -6.3040 N.am   68  ASN68      -0.0877
     46  N         63.7350  -40.8040   -6.2530 N.am   69  GLY69      -0.1942
     47  CA        62.3880  -40.3030   -5.9760 C.3    69  GLY69       0.2014
     48  C         61.7680  -39.6110   -7.1920 C.2    69  GLY69       0.2639
     49  O         62.4530  -39.2820   -8.1580 O.2    69  GLY69      -0.2714
     50  N         60.4710  -39.3810   -7.1500 N.am   70  GLY70      -0.1939
     51  CA        59.7490  -38.7320   -8.2610 C.3    70  GLY70       0.2014
     52  C         58.2790  -38.5620   -7.9240 C.2    70  GLY70       0.2639
     53  O         57.8760  -38.7370   -6.7730 O.2    70  GLY70      -0.2714
     54  N         57.4810  -38.2500   -8.9480 N.am   71  PHE71      -0.1959
     55  CA        56.0650  -37.9300   -8.8010 C.3    71  PHE71       0.1771
     56  C         55.2210  -38.7340   -9.7880 C.2    71  PHE71       0.2619
     57  O         55.5600  -38.8350  -10.9600 O.2    71  PHE71      -0.2715
     58  CB        55.8170  -36.4580   -9.0820 C.3    71  PHE71       0.0574
     59  CG        56.6570  -35.5270   -8.2450 C.ar   71  PHE71      -0.0200
     60  CD1       56.2850  -35.2220   -6.9430 C.ar   71  PHE71      -0.0042
     61  CD2       57.8500  -34.9760   -8.7750 C.ar   71  PHE71      -0.0042
     62  CE1       57.0680  -34.3700   -6.1500 C.ar   71  PHE71      -0.0003
     63  CE2       58.6500  -34.1270   -7.9950 C.ar   71  PHE71      -0.0003
     64  CZ        58.2630  -33.8230   -6.6920 C.ar   71  PHE71      -0.0000
     65  N         54.1020  -39.3000   -9.3280 N.am   72  MET72      -0.1977
     66  CA        53.2590  -40.0370  -10.2550 C.3    72  MET72       0.1605
     67  C         52.6170  -39.1250  -11.3010 C.2    72  MET72       0.2287
     68  O         52.4440  -39.5220  -12.4440 O.2    72  MET72      -0.2864
     69  CB        52.1920  -40.8490   -9.4880 C.3    72  MET72       0.0413
     70  CG        52.8050  -41.9090   -8.5350 C.3    72  MET72       0.0598
     71  SD        53.4650  -41.3690   -6.9380 S.3    72  MET72      -0.1393
     72  CE        51.9600  -41.1740   -6.0120 C.3    72  MET72       0.0692
     73  N         50.5680  -40.9780   -2.4240 N.3   138  GLY138     -0.1225
     74  CA        51.7180  -41.0750   -1.5350 C.3   138  GLY138      0.1811
     75  C         51.2950  -41.4080   -0.1150 C.2   138  GLY138      0.2280
     76  O         50.1690  -41.1310    0.3050 O.2   138  GLY138     -0.2866
     77  N         57.6900  -43.8760    6.7010 N.3   142  ARG142     -0.1245
     78  CA        58.9710  -43.7830    7.4340 C.3   142  ARG142      0.1563
     79  C         58.8200  -44.1140    8.9120 C.2   142  ARG142      0.2260
     80  O         59.1540  -43.2950    9.7830 O.2   142  ARG142     -0.2867
     81  CB        59.5680  -42.3790    7.2830 C.3   142  ARG142      0.0307
     82  CG        60.0930  -42.0850    5.8950 C.3   142  ARG142      0.0489
     83  CD        60.7790  -40.7210    5.8080 C.3   142  ARG142      0.2205
     84  NE        61.3380  -40.5100    4.4720 N.pl3 142  ARG142     -0.0865
     85  CZ        61.5860  -39.3260    3.9150 C.cat 142  ARG142      0.5346
     86  NH1       61.3270  -38.1910    4.5640 N.pl3 142  ARG142      0.1354
     87  NH2       62.0910  -39.2820    2.6880 N.pl3 142  ARG142      0.1354
     88  N         53.9160  -37.0750    2.7430 N.3   163  VAL163     -0.1231
     89  CA        54.1640  -38.3160    1.9960 C.3   163  VAL163      0.1692
     90  C         55.6140  -38.4690    1.6170 C.2   163  VAL163      0.2592
     91  O         56.3310  -37.4860    1.4120 O.2   163  VAL163     -0.2718
     92  CB        53.2690  -38.4210    0.6940 C.3   163  VAL163      0.0266
     93  CG1       51.8150  -38.2770    1.0620 C.3   163  VAL163      0.0020
     94  CG2       53.6460  -37.3570   -0.3550 C.3   163  VAL163      0.0020
     95  N         56.0610  -39.7140    1.5290 N.am  164  ASN164     -0.1960
     96  CA        57.4320  -39.9940    1.1340 C.3   164  ASN164      0.1819
     97  C         57.5820  -41.3400    0.3970 C.2   164  ASN164      0.2621
     98  O         58.7080  -41.7410    0.0540 O.2   164  ASN164     -0.2715
     99  CB        58.3220  -39.9670    2.3760 C.3   164  ASN164      0.1195
    100  CG        57.7590  -40.7990    3.4970 C.2   164  ASN164      0.2630
    101  OD1       57.5080  -41.9850    3.3210 O.2   164  ASN164     -0.2716
    102  ND2       57.5130  -40.1770    4.6420 N.am  164  ASN164     -0.0877
    103  N         56.4690  -42.0200    0.1220 N.am  165  HIS165     -0.1959
    104  CA        56.5160  -43.3260   -0.5620 C.3   165  HIS165      0.1787
    105  C         55.2870  -43.4450   -1.4760 C.2   165  HIS165      0.2620
    106  O         54.1820  -43.1700   -1.0170 O.2   165  HIS165     -0.2715
    107  CB        56.5240  -44.4380    0.5000 C.3   165  HIS165      0.0785
    108  CG        56.5310  -45.8330   -0.0590 C.ar  165  HIS165      0.0821
    109  ND1       57.3860  -46.2230   -1.0670 N.ar  165  HIS165     -0.2267
    110  CD2       55.7890  -46.9250    0.2440 C.ar  165  HIS165      0.1154
    111  CE1       57.1630  -47.4920   -1.3680 C.ar  165  HIS165      0.1986
    112  NE2       56.2010  -47.9410   -0.5890 N.ar  165  HIS165     -0.2212
    113  N         55.4930  -43.8270   -2.7320 N.am  166  GLY166     -0.1954
    114  CA        54.4290  -43.9620   -3.7150 C.3   166  GLY166      0.1869
    115  C         53.8350  -45.3650   -3.7110 C.2   166  GLY166      0.2309
    116  O         54.5660  -46.3520   -3.7890 O.2   166  GLY166     -0.2863
    117  N         47.8900  -36.5380   -1.6110 N.3   212  PHE212     -0.1241
    118  CA        48.2030  -36.2820   -3.0100 C.3   212  PHE212      0.1605
    119  C         47.8410  -37.4400   -3.9380 C.2   212  PHE212      0.2264
    120  O         48.7220  -38.0670   -4.5290 O.2   212  PHE212     -0.2867
    121  CB        49.6880  -35.8470   -3.1780 C.3   212  PHE212      0.0534
    122  CG        49.9950  -34.5430   -2.4930 C.ar  212  PHE212     -0.0203
    123  CD1       49.5010  -33.3440   -3.0200 C.ar  212  PHE212     -0.0042
    124  CD2       50.7240  -34.5190   -1.3160 C.ar  212  PHE212     -0.0042
    125  CE1       49.7560  -32.1280   -2.3800 C.ar  212  PHE212     -0.0003
    126  CE2       50.9820  -33.2950   -0.6660 C.ar  212  PHE212     -0.0003
    127  CZ        50.4980  -32.1110   -1.1940 C.ar  212  PHE212     -0.0000
@<TRIPOS>BOND
     1    25    26    1
     2    68    67    2
     3    24    23   ar
     4    24    22   ar
     5    23    21   ar
     6    26    27    1
     7    67    66    1
     8    22    20   ar
     9    57    56    2
    10    27    28    2
    11    21    18   ar
    12    66    69    1
    13    66    65    1
    14    29    30    1
    15    30    31    1
    16    30    33    1
    17    31    32    2
    18    20    18   ar
    19    20    19   ar
    20    56    65   am
    21    56    55    1
    22    18    16   ar
    23    14    13    2
    24    69    70    1
    25    58    55    1
    26    58    59    1
    27    13    12    1
    28    54    55    1
    29    54    52   am
    30    34    33    1
    31    34    35    1
    32    61    59   ar
    33    61    63   ar
    34    19    17   ar
    35    70    71    1
    36    16    17   ar
    37    16    15    1
    38    51    52    1
    39    51    50    1
    40    59    60   ar
    41    49    48    2
    42    63    64   ar
    43    52    53    2
    44    36    35    1
    45    36    37    1
    46    15    12    1
    47    12    11    1
    48    48    50   am
    49    48    47    1
    50     8     7    2
    51    60    62   ar
    52    71    72    1
    53    38    39    1
    54    11     7   am
    55    64    62   ar
    56     7     6    1
    57     4     3    2
    58    45    43   am
    59    46    47    1
    60    46    40   am
    61     5     6    1
    62     3     2    1
    63    42    39    1
    64    42    43    1
    65     6     9    1
    66    39    40    1
    67    40    41    2
    68    43    44    2
    69     1     2    1
    70   120   119    2
    71     9    10    1
    72   119   118    1
    73   116   115    2
    74   114   115    1
    75   114   113    1
    76   121   118    1
    77   121   122    1
    78   123   122   ar
    79   123   125   ar
    80   118   117    1
    81   113   105   am
    82   122   124   ar
    83    73    74    1
    84   125   127   ar
    85    74    75    1
    86   105   106    2
    87   105   104    1
    88   111   109   ar
    89   111   112   ar
    90   124   126   ar
    91   127   126   ar
    92   109   108   ar
    93   112   110   ar
    94   104   103    1
    95   104   107    1
    96    94    92    1
    97    75    76    2
    98   108   110   ar
    99   108   107    1
   100    98    97    2
   101   103    97   am
   102    97    96    1
   103    92    93    1
   104    92    89    1
   105    96    95    1
   106    96    99    1
   107    91    90    2
   108    95    90   am
   109    90    89    1
   110    89    88    1
   111    99   100    1
   112    87    85    1
   113   101   100    2
   114   100   102   am
   115    85    84    2
   116    85    86    1
   117    84    83    1
   118    83    82    1
   119    82    81    1
   120    77    78    1
   121    81    78    1
   122    78    79    1
   123    79    80    2
