@<TRIPOS>MOLECULE
tmp/4p6pB00.pdb
 121 111 0 0 0
SMALL
GASTEIGER

@<TRIPOS>ATOM
      1  N        -16.0530   11.3210    1.5150 N.3    40  ARG40      -0.1231
      2  CA       -15.9170   10.2490    0.5250 C.3    40  ARG40       0.1694
      3  C        -15.1740   10.8100   -0.6970 C.2    40  ARG40       0.2591
      4  O        -13.9770   11.1060   -0.6180 O.2    40  ARG40      -0.2718
      5  CB       -17.2900    9.6740    0.1460 C.3    40  ARG40       0.0321
      6  CG       -17.2530    8.3330   -0.6130 C.3    40  ARG40       0.0489
      7  CD       -18.6660    7.7390   -0.7950 C.3    40  ARG40       0.2205
      8  NE       -18.6410    6.5290   -1.6180 N.pl3  40  ARG40      -0.0865
      9  CZ       -18.7040    6.5270   -2.9470 C.cat  40  ARG40       0.5346
     10  NH1      -18.8100    7.6730   -3.6310 N.pl3  40  ARG40       0.1354
     11  NH2      -18.6560    5.3720   -3.6020 N.pl3  40  ARG40       0.1354
     12  N        -15.8700   10.9900   -1.8140 N.am   41  GLU41      -0.1979
     13  CA       -15.2370   11.6130   -2.9720 C.3    41  GLU41       0.1602
     14  C        -15.2790   13.1350   -2.9010 C.2    41  GLU41       0.2287
     15  O        -14.4240   13.8130   -3.4700 O.2    41  GLU41      -0.2864
     16  CB       -15.9080   11.1500   -4.2550 C.3    41  GLU41       0.0415
     17  CG       -15.8010    9.6590   -4.4720 C.3    41  GLU41       0.1163
     18  CD       -16.2980    9.2750   -5.8340 C.2    41  GLU41       0.3649
     19  OE1      -17.5320    9.2500   -6.0190 O.co2  41  GLU41      -0.2457
     20  OE2      -15.4500    9.0390   -6.7150 O.co2  41  GLU41      -0.2457
     21  N        -21.4940   14.8330   -9.5190 N.3    45  ASP45      -0.1239
     22  CA       -21.6660   14.1990  -10.8240 C.3    45  ASP45       0.1674
     23  C        -22.9370   14.6930  -11.4930 C.2    45  ASP45       0.2266
     24  O        -23.9750   14.7860  -10.8380 O.2    45  ASP45      -0.2867
     25  CB       -21.7700   12.6780  -10.6960 C.3    45  ASP45       0.1410
     26  CG       -20.4860   12.0030  -10.2350 C.2    45  ASP45       0.3668
     27  OD1      -19.6230   12.6480   -9.6060 O.co2  45  ASP45      -0.2456
     28  OD2      -20.3760   10.7790  -10.4830 O.co2  45  ASP45      -0.2456
     29  N        -15.4710   10.0970  -18.8370 N.3    68  ILE68      -0.1245
     30  CA       -15.6650    8.6820  -18.5700 C.3    68  ILE68       0.1561
     31  C        -17.1220    8.5370  -18.1410 C.2    68  ILE68       0.2260
     32  O        -17.4490    8.4900  -16.9550 O.2    68  ILE68      -0.2867
     33  CB       -14.6870    8.1530  -17.5110 C.3    68  ILE68       0.0252
     34  CG1      -13.2470    8.4410  -17.9520 C.3    68  ILE68       0.0019
     35  CG2      -14.8760    6.6460  -17.2980 C.3    68  ILE68       0.0019
     36  CD1      -12.2100    8.2720  -16.8530 C.3    68  ILE68       0.0001
     37  N        -20.5570    6.9950  -17.3550 N.3    70  CYS70      -0.1235
     38  CA       -20.9760    5.6800  -16.8860 C.3    70  CYS70       0.1677
     39  C        -22.4720    5.4630  -17.0250 C.2    70  CYS70       0.2270
     40  O        -23.2500    6.4130  -17.0210 O.2    70  CYS70      -0.2867
     41  CB       -20.5860    5.4740  -15.4220 C.3    70  CYS70       0.0956
     42  SG       -18.7890    5.4270  -15.1210 S.3    70  CYS70      -0.0801
     43  N        -13.2550    2.9350   -3.8130 N.3    94  ASN94      -0.1240
     44  CA       -14.6790    2.8670   -3.4610 C.3    94  ASN94       0.1653
     45  C        -15.3570    1.5700   -3.8930 C.2    94  ASN94       0.2266
     46  O        -16.5810    1.4400   -3.7790 O.2    94  ASN94      -0.2867
     47  CB       -15.4470    4.0370   -4.0860 C.3    94  ASN94       0.1155
     48  CG       -14.9910    5.3850   -3.5760 C.2    94  ASN94       0.2627
     49  OD1      -14.7560    5.5720   -2.3760 O.2    94  ASN94      -0.2716
     50  ND2      -14.8650    6.3430   -4.4910 N.am   94  ASN94      -0.0877
     51  N        -15.9120    0.6890   -6.8680 N.3    96  THR96      -0.1218
     52  CA       -16.8460    1.1220   -7.9130 C.3    96  THR96       0.1862
     53  C        -17.1020   -0.0420   -8.8580 C.2    96  THR96       0.2287
     54  O        -16.1620   -0.6570   -9.3460 O.2    96  THR96      -0.2866
     55  CB       -16.2860    2.3420   -8.6730 C.3    96  THR96       0.1770
     56  OG1      -16.0200    3.3840   -7.7310 O.3    96  THR96      -0.2211
     57  CG2      -17.2660    2.8640   -9.7320 C.3    96  THR96       0.0375
     58  N        -17.5590   -1.3390  -11.7930 N.3    98  PHE98      -0.1241
     59  CA       -17.3970   -1.3680  -13.2470 C.3    98  PHE98       0.1605
     60  C        -17.6370   -2.7580  -13.8110 C.2    98  PHE98       0.2264
     61  O        -17.0210   -3.7120  -13.3600 O.2    98  PHE98      -0.2867
     62  CB       -15.9850   -0.9390  -13.6560 C.3    98  PHE98       0.0534
     63  CG       -15.7180    0.5220  -13.4980 C.ar   98  PHE98      -0.0203
     64  CD1      -16.1040    1.4180  -14.4850 C.ar   98  PHE98      -0.0042
     65  CD2      -15.0470    0.9950  -12.3810 C.ar   98  PHE98      -0.0042
     66  CE1      -15.8440    2.7670  -14.3510 C.ar   98  PHE98      -0.0003
     67  CE2      -14.7780    2.3490  -12.2340 C.ar   98  PHE98      -0.0003
     68  CZ       -15.1760    3.2350  -13.2200 C.ar   98  PHE98      -0.0000
     69  N        -22.1510    0.3590  -14.6350 N.3   143  LEU143     -0.1245
     70  CA       -21.9180    0.1530  -13.2140 C.3   143  LEU143      0.1561
     71  C        -23.1050   -0.5960  -12.6230 C.2   143  LEU143      0.2260
     72  O        -24.2540   -0.2420  -12.8780 O.2   143  LEU143     -0.2867
     73  CB       -21.7350    1.4930  -12.4730 C.3   143  LEU143      0.0270
     74  CG       -20.6570    2.4750  -12.9580 C.3   143  LEU143      0.0019
     75  CD1      -20.8290    3.8440  -12.3060 C.3   143  LEU143      0.0001
     76  CD2      -19.2600    1.9460  -12.6920 C.3   143  LEU143      0.0001
     77  N        -25.3870    1.4830    0.0070 N.3   153  ARG153     -0.1245
     78  CA       -24.0840    1.9800   -0.4250 C.3   153  ARG153      0.1563
     79  C        -24.2380    3.4330   -0.8190 C.2   153  ARG153      0.2260
     80  O        -25.0990    3.7660   -1.6300 O.2   153  ARG153     -0.2867
     81  CB       -23.5290    1.1860   -1.6090 C.3   153  ARG153      0.0307
     82  CG       -22.2050    1.7480   -2.1530 C.3   153  ARG153      0.0489
     83  CD       -21.6480    0.8710   -3.2710 C.3   153  ARG153      0.2205
     84  NE       -20.3180    1.2900   -3.7190 N.pl3 153  ARG153     -0.0865
     85  CZ       -20.0830    2.1930   -4.6740 C.cat 153  ARG153      0.5346
     86  NH1      -21.0900    2.7940   -5.3090 N.pl3 153  ARG153      0.1354
     87  NH2      -18.8290    2.4820   -5.0190 N.pl3 153  ARG153      0.1354
     88  N        -22.5210    7.4840   -5.9000 N.3   156  HIS156     -0.1226
     89  CA       -23.2940    8.1370   -6.9540 C.3   156  HIS156      0.1752
     90  C        -24.0630    7.1030   -7.7840 C.2   156  HIS156      0.2596
     91  O        -25.1250    7.4090   -8.3060 O.2   156  HIS156     -0.2718
     92  CB       -22.4110    8.9610   -7.8990 C.3   156  HIS156      0.0759
     93  CG       -21.7390   10.1490   -7.2670 C.ar  156  HIS156      0.0818
     94  ND1      -20.3950   10.1700   -6.9590 N.ar  156  HIS156     -0.2268
     95  CD2      -22.2190   11.3760   -6.9380 C.ar  156  HIS156      0.1154
     96  CE1      -20.0760   11.3530   -6.4550 C.ar  156  HIS156      0.1986
     97  NE2      -21.1670   12.1000   -6.4230 N.ar  156  HIS156     -0.2212
     98  N        -23.5150    5.8970   -7.9180 N.am  157  THR157     -0.1953
     99  CA       -24.1840    4.8270   -8.6730 C.3   157  THR157      0.1897
    100  C        -25.5670    4.5190   -8.0930 C.2   157  THR157      0.2313
    101  O        -26.5560    4.4810   -8.8160 O.2   157  THR157     -0.2863
    102  CB       -23.3750    3.5070   -8.6860 C.3   157  THR157      0.1794
    103  OG1      -22.0350    3.7420   -9.1520 O.3   157  THR157     -0.2208
    104  CG2      -24.0530    2.4960   -9.5940 C.3   157  THR157      0.0378
    105  N        -24.0550    8.9940  -15.8030 N.3   175  LEU175     -0.1245
    106  CA       -23.3760    9.6200  -14.6870 C.3   175  LEU175      0.1561
    107  C        -21.9420   10.0210  -15.0330 C.2   175  LEU175      0.2260
    108  O        -21.1840    9.2130  -15.5730 O.2   175  LEU175     -0.2867
    109  CB       -23.4090    8.6360  -13.5090 C.3   175  LEU175      0.0270
    110  CG       -22.7080    8.8940  -12.1930 C.3   175  LEU175      0.0019
    111  CD1      -23.5110    9.9070  -11.4260 C.3   175  LEU175      0.0001
    112  CD2      -22.6260    7.5890  -11.4090 C.3   175  LEU175      0.0001
    113  N        -18.5180   12.8560  -13.6660 N.3   177  GLU177     -0.1245
    114  CA       -17.9850   13.7910  -12.6750 C.3   177  GLU177      0.1567
    115  C        -17.7150   15.1780  -13.2520 C.2   177  GLU177      0.2260
    116  O        -16.9420   15.3070  -14.2000 O.2   177  GLU177     -0.2867
    117  CB       -16.6750   13.2400  -12.0920 C.3   177  GLU177      0.0388
    118  CG       -16.7470   11.8120  -11.5600 C.3   177  GLU177      0.1160
    119  CD       -16.2460   10.7760  -12.5650 C.2   177  GLU177      0.3649
    120  OE1      -16.5460   10.9080  -13.7720 O.co2 177  GLU177     -0.2457
    121  OE2      -15.5390    9.8340  -12.1490 O.co2 177  GLU177     -0.2457
@<TRIPOS>BOND
     1    29    30    1
     2    30    31    1
     3    30    33    1
     4    31    32    2
     5    34    33    1
     6    34    36    1
     7    33    35    1
     8    37    38    1
     9    39    40    2
    10    39    38    1
    11    38    41    1
    12   105   106    1
    13   108   107    2
    14    41    42    1
    15   107   106    1
    16   106   109    1
    17    69    70    1
    18    64    66   ar
    19    64    63   ar
    20    66    68   ar
    21   116   115    2
    22    60    61    2
    23    60    59    1
    24   120   119   ar
    25   113   114    1
    26    62    63    1
    27    62    59    1
    28   109   110    1
    29    63    65   ar
    30   115   114    1
    31    59    58    1
    32    68    67   ar
    33    70    71    1
    34    70    73    1
    35    74    76    1
    36    74    73    1
    37    74    75    1
    38    72    71    2
    39   114   117    1
    40   119   121   ar
    41   119   118    1
    42    65    67   ar
    43   110   111    1
    44   110   112    1
    45   117   118    1
    46    23    24    2
    47    23    22    1
    48    22    25    1
    49    22    21    1
    50    25    26    1
    51    28    26   ar
    52    26    27   ar
    53    57    55    1
    54   104   102    1
    55    54    53    2
    56   103   102    1
    57    53    52    1
    58   101   100    2
    59   102    99    1
    60    55    52    1
    61    55    56    1
    62    99   100    1
    63    99    98    1
    64    91    90    2
    65    98    90   am
    66    52    51    1
    67    92    93    1
    68    92    89    1
    69    90    89    1
    70    93    94   ar
    71    93    95   ar
    72    94    96   ar
    73    89    88    1
    74    95    97   ar
    75    20    18   ar
    76    96    97   ar
    77    19    18   ar
    78    18    17    1
    79    86    85    1
    80    87    85    1
    81    85    84    2
    82    50    48   am
    83    17    16    1
    84    16    13    1
    85    47    48    1
    86    47    44    1
    87    45    46    2
    88    45    44    1
    89    43    44    1
    90    84    83    1
    91    10     9    1
    92    11     9    1
    93    48    49    2
    94    15    14    2
    95    83    82    1
    96    13    14    1
    97    13    12    1
    98     9     8    2
    99    82    81    1
   100    12     3   am
   101    80    79    2
   102     8     7    1
   103    81    78    1
   104    79    78    1
   105     7     6    1
   106     3     4    2
   107     3     2    1
   108     6     5    1
   109    78    77    1
   110     5     2    1
   111     2     1    1
