@<TRIPOS>MOLECULE
tmp/4p6rA00.pdb
 147 145 0 0 0
SMALL
GASTEIGER

@<TRIPOS>ATOM
      1  N         18.1420   15.3030   20.6130 N.3    39  HIS39      -0.1241
      2  CA        19.4990   15.3030   20.0760 C.3    39  HIS39       0.1621
      3  C         20.4280   16.1700   20.9000 C.2    39  HIS39       0.2264
      4  O         21.5480   15.7630   21.1890 O.2    39  HIS39      -0.2867
      5  CB        19.4660   15.7790   18.6290 C.3    39  HIS39       0.0745
      6  CG        20.8040   15.8260   17.9560 C.ar   39  HIS39       0.0817
      7  ND1       21.4730   17.0110   17.7250 N.ar   39  HIS39      -0.2268
      8  CD2       21.5590   14.8530   17.3930 C.ar   39  HIS39       0.1154
      9  CE1       22.5960   16.7630   17.0750 C.ar   39  HIS39       0.1986
     10  NE2       22.6710   15.4620   16.8540 N.ar   39  HIS39      -0.2212
     11  N         27.2370   10.9850   19.9340 N.3    57  HIS57      -0.1226
     12  CA        28.3900   11.3790   19.1230 C.3    57  HIS57       0.1752
     13  C         29.6920   10.9660   19.7300 C.2    57  HIS57       0.2595
     14  O         29.7740   10.7100   20.9270 O.2    57  HIS57      -0.2718
     15  CB        28.4880   12.9030   18.9270 C.3    57  HIS57       0.0759
     16  CG        27.2020   13.5820   18.5640 C.ar   57  HIS57       0.0818
     17  ND1       26.2860   13.9060   19.4600 N.ar   57  HIS57      -0.2268
     18  CD2       26.7200   14.0120   17.3460 C.ar   57  HIS57       0.1154
     19  CE1       25.2660   14.5020   18.8560 C.ar   57  HIS57       0.1986
     20  NE2       25.5320   14.5690   17.5640 N.ar   57  HIS57      -0.2212
     21  N         30.7440   10.9580   18.9240 N.am   58  MET58      -0.1979
     22  CA        32.1170   10.8470   19.4180 C.3    58  MET58       0.1605
     23  C         32.3780    9.5530   20.1520 C.2    58  MET58       0.2287
     24  O         33.1460    9.5020   21.0890 O.2    58  MET58      -0.2864
     25  CB        32.4700   12.0370   20.3050 C.3    58  MET58       0.0413
     26  CG        32.2510   13.3560   19.6100 C.3    58  MET58       0.0598
     27  SD        32.5830   14.8260   20.5610 S.3    58  MET58      -0.1393
     28  CE        32.2820   16.0590   19.3230 C.3    58  MET58       0.0692
     29  N         21.6830    7.3890   15.8990 N.3    66  HIS66      -0.1241
     30  CA        21.0400    8.1140   14.8110 C.3    66  HIS66       0.1621
     31  C         20.0790    7.2730   13.9680 C.2    66  HIS66       0.2264
     32  O         19.1180    7.8110   13.4190 O.2    66  HIS66      -0.2867
     33  CB        22.0790    8.8360   13.9350 C.3    66  HIS66       0.0745
     34  CG        22.6410   10.0730   14.5780 C.ar   66  HIS66       0.0817
     35  ND1       23.6530   10.0300   15.5140 N.ar   66  HIS66      -0.2268
     36  CD2       22.3130   11.3800   14.4380 C.ar   66  HIS66       0.1154
     37  CE1       23.9300   11.2570   15.9130 C.ar   66  HIS66       0.1986
     38  NE2       23.1410   12.0970   15.2690 N.ar   66  HIS66      -0.2212
     39  N         36.2020   12.1040   12.3370 N.3   194  PHE194     -0.1241
     40  CA        37.3050   12.6250   13.1500 C.3   194  PHE194      0.1605
     41  C         38.7140   12.2450   12.6680 C.2   194  PHE194      0.2264
     42  O         39.7110   12.7430   13.1800 O.2   194  PHE194     -0.2867
     43  CB        37.1080   12.2570   14.6260 C.3   194  PHE194      0.0534
     44  CG        35.9580   12.9730   15.2700 C.ar  194  PHE194     -0.0203
     45  CD1       36.0580   14.3200   15.5940 C.ar  194  PHE194     -0.0042
     46  CD2       34.7710   12.3090   15.5380 C.ar  194  PHE194     -0.0042
     47  CE1       34.9970   14.9890   16.1820 C.ar  194  PHE194     -0.0003
     48  CE2       33.6990   12.9690   16.1290 C.ar  194  PHE194     -0.0003
     49  CZ        33.8100   14.3110   16.4440 C.ar  194  PHE194     -0.0000
     50  N         37.6400   17.8700    9.8100 N.3   198  PRO198     -0.2116
     51  CA        36.3540   17.1750    9.6550 C.3   198  PRO198      0.1372
     52  C         36.1750   16.5180    8.2760 C.2   198  PRO198      0.2244
     53  O         36.2780   17.2010    7.2500 O.2   198  PRO198     -0.2868
     54  CB        35.3430   18.3080    9.8310 C.3   198  PRO198      0.0268
     55  CG        36.0500   19.5120    9.2320 C.3   198  PRO198      0.0207
     56  CD        37.5190   19.3190    9.5460 C.3   198  PRO198      0.0892
     57  N         30.6440   12.7800    7.6920 N.3   201  HIS201     -0.1226
     58  CA        29.4850   13.2820    8.4440 C.3   201  HIS201      0.1752
     59  C         29.7200   14.6290    9.0570 C.2   201  HIS201      0.2596
     60  O         28.8720   15.4970    8.9420 O.2   201  HIS201     -0.2718
     61  CB        28.9980   12.2910    9.5210 C.3   201  HIS201      0.0759
     62  CG        28.2500   12.9340   10.6800 C.ar  201  HIS201      0.0818
     63  ND1       28.8560   13.3560   11.7800 N.ar  201  HIS201     -0.2268
     64  CD2       26.9030   13.1700   10.8700 C.ar  201  HIS201      0.1154
     65  CE1       27.9600   13.8580   12.6220 C.ar  201  HIS201      0.1986
     66  NE2       26.7610   13.7490   12.0650 N.ar  201  HIS201     -0.2212
     67  N         30.8610   14.8090    9.7130 N.am  202  ASN202     -0.1974
     68  CA        31.1950   16.0660   10.3850 C.3   202  ASN202      0.1688
     69  C         31.3920   17.2040    9.3790 C.2   202  ASN202      0.2292
     70  O         30.9710   18.3510    9.6160 O.2   202  ASN202     -0.2864
     71  CB        32.4670   15.9060   11.2320 C.3   202  ASN202      0.1181
     72  CG        32.2390   15.0860   12.5100 C.2   202  ASN202      0.2629
     73  OD1       31.1060   14.7540   12.8590 O.2   202  ASN202     -0.2716
     74  ND2       33.3280   14.7570   13.2070 N.am  202  ASN202     -0.0877
     75  N         28.0700   18.6580    8.1570 N.3   205  HIS205     -0.1226
     76  CA        27.5150   19.5940    9.1340 C.3   205  HIS205      0.1752
     77  C         28.1200   21.0010    8.9940 C.2   205  HIS205      0.2595
     78  O         27.3930   21.9830    8.8650 O.2   205  HIS205     -0.2718
     79  CB        27.7460   19.0680   10.5500 C.3   205  HIS205      0.0759
     80  CG        26.6960   18.1120   11.0260 C.ar  205  HIS205      0.0818
     81  ND1       25.4430   18.5220   11.4250 N.ar  205  HIS205     -0.2268
     82  CD2       26.7240   16.7650   11.1860 C.ar  205  HIS205      0.1154
     83  CE1       24.7440   17.4720   11.8160 C.ar  205  HIS205      0.1986
     84  NE2       25.4890   16.3900   11.6730 N.ar  205  HIS205     -0.2212
     85  N         29.4530   21.0740    8.9790 N.am  206  ARG206     -0.1980
     86  CA        30.1650   22.3430    8.9360 C.3   206  ARG206      0.1597
     87  C         30.0720   23.0500    7.5740 C.2   206  ARG206      0.2287
     88  O         30.1070   24.2770    7.5200 O.2   206  ARG206     -0.2864
     89  CB        31.6340   22.1620    9.3510 C.3   206  ARG206      0.0334
     90  CG        31.8470   21.0710   10.3790 C.3   206  ARG206      0.0492
     91  CD        32.5950   21.4990   11.6400 C.3   206  ARG206      0.2205
     92  NE        33.9370   22.0250   11.3900 N.pl3 206  ARG206     -0.0865
     93  CZ        35.0090   21.7350   12.1240 C.cat 206  ARG206      0.5346
     94  NH1       34.9200   20.8940   13.1470 N.pl3 206  ARG206      0.1354
     95  NH2       36.1820   22.2830   11.8300 N.pl3 206  ARG206      0.1354
     96  N         23.2360   23.8920   11.3960 N.3   212  MET212     -0.1230
     97  CA        23.7780   22.5630   11.0800 C.3   212  MET212      0.1702
     98  C         25.2220   22.4040   11.5340 C.2   212  MET212      0.2593
     99  O         25.7430   21.2810   11.6010 O.2   212  MET212     -0.2718
    100  CB        23.7010   22.2680    9.5790 C.3   212  MET212      0.0401
    101  CG        22.4180   21.5510    9.1510 C.3   212  MET212      0.0596
    102  SD        22.2620   19.8710    9.8230 S.3   212  MET212     -0.1393
    103  CE        22.8880   18.8780    8.4350 C.3   212  MET212      0.0692
    104  N         25.8690   23.5190   11.8590 N.am  213  GLY213     -0.1942
    105  CA        27.2810   23.4830   12.2060 C.3   213  GLY213      0.2014
    106  C         27.5380   23.2320   13.6810 C.2   213  GLY213      0.2639
    107  O         28.6870   23.0730   14.1170 O.2   213  GLY213     -0.2714
    108  N         26.4680   23.2140   14.4660 N.am  214  VAL214     -0.1963
    109  CA        26.6300   23.0680   15.9150 C.3   214  VAL214      0.1727
    110  C         25.7000   22.0120   16.5000 C.2   214  VAL214      0.2616
    111  O         24.5060   21.9540   16.1770 O.2   214  VAL214     -0.2715
    112  CB        26.5760   24.4410   16.6720 C.3   214  VAL214      0.0290
    113  CG1       26.6650   25.6080   15.7100 C.3   214  VAL214      0.0023
    114  CG2       25.3410   24.5780   17.5360 C.3   214  VAL214      0.0023
    115  N         26.2700   21.1550   17.3350 N.am  215  VAL215     -0.1977
    116  CA        25.5310   20.0220   17.9110 C.3   215  VAL215      0.1596
    117  C         24.1430   20.3610   18.4770 C.2   215  VAL215      0.2287
    118  O         23.1530   19.7950   18.0060 O.2   215  VAL215     -0.2864
    119  CB        26.3840   19.2110   18.9270 C.3   215  VAL215      0.0276
    120  CG1       25.6260   17.9540   19.4050 C.3   215  VAL215      0.0022
    121  CG2       27.7080   18.8490   18.3080 C.3   215  VAL215      0.0022
    122  N         21.7160   21.7110   15.4820 N.3   218  ALA218     -0.1245
    123  CA        21.7030   21.0860   14.1430 C.3   218  ALA218      0.1562
    124  C         20.3400   20.6050   13.6050 C.2   218  ALA218      0.2260
    125  O         19.9730   20.9520   12.4880 O.2   218  ALA218     -0.2867
    126  CB        22.7880   20.0190   14.0000 C.3   218  ALA218      0.0290
    127  N         19.0360   18.0200    8.1950 N.3   224  PHE224     -0.1241
    128  CA        19.7270   17.1820    9.1680 C.3   224  PHE224      0.1605
    129  C         19.3330   15.7300    8.9500 C.2   224  PHE224      0.2264
    130  O         20.1720   14.8410    9.0010 O.2   224  PHE224     -0.2867
    131  CB        19.3510   17.6100   10.5950 C.3   224  PHE224      0.0534
    132  CG        19.9840   16.7740   11.6840 C.ar  224  PHE224     -0.0203
    133  CD1       19.4000   15.5860   12.0990 C.ar  224  PHE224     -0.0042
    134  CD2       21.1510   17.1930   12.3190 C.ar  224  PHE224     -0.0042
    135  CE1       19.9780   14.8050   13.1210 C.ar  224  PHE224     -0.0003
    136  CE2       21.7280   16.4270   13.3570 C.ar  224  PHE224     -0.0003
    137  CZ        21.1410   15.2300   13.7450 C.ar  224  PHE224     -0.0000
    138  N         21.4780   12.5310    7.6690 N.3   228  HIS228     -0.1241
    139  CA        21.6610   11.3060    8.4390 C.3   228  HIS228      0.1621
    140  C         21.1230   10.0480    7.7680 C.2   228  HIS228      0.2264
    141  O         21.6760    8.9620    7.9380 O.2   228  HIS228     -0.2867
    142  CB        21.2090   11.4800    9.9050 C.3   228  HIS228      0.0745
    143  CG        22.2610   12.1410   10.7320 C.ar  228  HIS228      0.0817
    144  ND1       23.2930   11.4320   11.3140 N.ar  228  HIS228     -0.2268
    145  CD2       22.5210   13.4510   10.9630 C.ar  228  HIS228      0.1154
    146  CE1       24.1090   12.2780   11.9180 C.ar  228  HIS228      0.1986
    147  NE2       23.6690   13.5100   11.7100 N.ar  228  HIS228     -0.2212
@<TRIPOS>BOND
     1    53    52    2
     2    88    87    2
     3    87    86    1
     4   138   139    1
     5    57    58    1
     6   140   141    2
     7   140   139    1
     8    75    76    1
     9   127   128    1
    10    52    51    1
    11   103   102    1
    12   139   142    1
    13    58    59    1
    14    58    61    1
    15    78    77    2
    16    86    85    1
    17    86    89    1
    18    60    59    2
    19   129   130    2
    20   129   128    1
    21    85    77   am
    22    77    76    1
    23    59    67   am
    24    76    79    1
    25   101   100    1
    26   101   102    1
    27   128   131    1
    28    55    56    1
    29    55    54    1
    30    89    90    1
    31    69    70    2
    32    69    68    1
    33    61    62    1
    34    56    50    1
    35   100    97    1
    36    51    50    1
    37    51    54    1
    38    67    68    1
    39   142   143    1
    40    90    91    1
    41    68    71    1
    42    79    80    1
    43   131   132    1
    44    62    64   ar
    45    62    63   ar
    46   143   145   ar
    47   143   144   ar
    48    64    66   ar
    49   145   147   ar
    50    80    82   ar
    51    80    81   ar
    52    97    96    1
    53    97    98    1
    54    82    84   ar
    55    71    72    1
    56   144   146   ar
    57    92    91    1
    58    92    93    2
    59    81    83   ar
    60    98    99    2
    61    98   104   am
    62    84    83   ar
    63   132   133   ar
    64   132   134   ar
    65   147   146   ar
    66    63    65   ar
    67    95    93    1
    68   104   105    1
    69    66    65   ar
    70   133   135   ar
    71    93    94    1
    72   105   106    1
    73   134   136   ar
    74    39    40    1
    75   125   124    2
    76    72    73    2
    77    72    74   am
    78    41    40    1
    79    41    42    2
    80   135   137   ar
    81    40    43    1
    82   136   137   ar
    83    32    31    2
    84   124   123    1
    85   106   107    2
    86   106   108   am
    87    33    34    1
    88    33    30    1
    89    31    30    1
    90   126   123    1
    91   123   122    1
    92    36    34   ar
    93    36    38   ar
    94   108   109    1
    95    34    35   ar
    96    43    44    1
    97    30    29    1
    98    38    37   ar
    99    44    46   ar
   100    44    45   ar
   101    35    37   ar
   102    46    48   ar
   103    45    47   ar
   104   113   112    1
   105   109   110    1
   106   109   112    1
   107    48    49   ar
   108   111   110    2
   109    47    49   ar
   110   110   115   am
   111   112   114    1
   112    10     9   ar
   113    10     8   ar
   114     9     7   ar
   115   115   116    1
   116    18    20   ar
   117    18    16   ar
   118     8     6   ar
   119    20    19   ar
   120     7     6   ar
   121   116   117    1
   122   116   119    1
   123     6     5    1
   124   118   117    2
   125   121   119    1
   126    16    15    1
   127    16    17   ar
   128     5     2    1
   129    19    17   ar
   130    21    22    1
   131    21    13   am
   132   119   120    1
   133    15    12    1
   134    12    13    1
   135    12    11    1
   136    28    27    1
   137    22    23    1
   138    22    25    1
   139    26    25    1
   140    26    27    1
   141    13    14    2
   142     2     1    1
   143     2     3    1
   144    23    24    2
   145     3     4    2
