@<TRIPOS>MOLECULE
tmp/4p6tA00.pdb
 138 135 0 0 0
SMALL
GASTEIGER

@<TRIPOS>ATOM
      1  N          7.5600  -23.4440   20.5160 N.3    39  HIS39      -0.1241
      2  CA         6.2190  -23.3030   20.0070 C.3    39  HIS39       0.1621
      3  C          5.2640  -24.1810   20.8120 C.2    39  HIS39       0.2264
      4  O          4.1520  -23.7570   21.1490 O.2    39  HIS39      -0.2867
      5  CB         6.1960  -23.6580   18.5200 C.3    39  HIS39       0.0745
      6  CG         4.8550  -23.5060   17.8970 C.ar   39  HIS39       0.0817
      7  ND1        3.9280  -24.5240   17.8760 N.ar   39  HIS39      -0.2268
      8  CD2        4.2670  -22.4460   17.2960 C.ar   39  HIS39       0.1154
      9  CE1        2.8300  -24.1000   17.2830 C.ar   39  HIS39       0.1986
     10  NE2        3.0120  -22.8420   16.9170 N.ar   39  HIS39      -0.2212
     11  N         -1.2790  -18.7310   20.2660 N.3    57  HIS57      -0.1241
     12  CA        -2.4890  -18.8650   19.4560 C.3    57  HIS57       0.1621
     13  C         -3.7340  -18.4180   20.1950 C.2    57  HIS57       0.2264
     14  O         -3.7030  -18.1820   21.3980 O.2    57  HIS57      -0.2867
     15  CB        -2.7100  -20.3090   18.9930 C.3    57  HIS57       0.0745
     16  CG        -1.4540  -21.0310   18.6150 C.ar   57  HIS57       0.0817
     17  ND1       -0.6110  -21.5970   19.5470 N.ar   57  HIS57      -0.2268
     18  CD2       -0.9010  -21.2830   17.4070 C.ar   57  HIS57       0.1154
     19  CE1        0.4110  -22.1610   18.9310 C.ar   57  HIS57       0.1986
     20  NE2        0.2590  -21.9850   17.6310 N.ar   57  HIS57      -0.2212
     21  N         -6.0850  -15.9380   11.6050 N.3   192  GLU192     -0.1245
     22  CA        -5.7960  -17.1710   12.3400 C.3   192  GLU192      0.1567
     23  C         -6.6810  -18.3030   11.7990 C.2   192  GLU192      0.2260
     24  O         -6.2030  -19.4150   11.5450 O.2   192  GLU192     -0.2867
     25  CB        -5.9840  -16.9850   13.8500 C.3   192  GLU192      0.0388
     26  CG        -5.5000  -18.1590   14.6580 C.3   192  GLU192      0.1160
     27  CD        -5.1440  -17.7970   16.0940 C.2   192  GLU192      0.3649
     28  OE1       -4.4620  -18.6100   16.7490 O.co2 192  GLU192     -0.2457
     29  OE2       -5.5420  -16.7110   16.5700 O.co2 192  GLU192     -0.2457
     30  N        -10.4000  -18.9600   12.8080 N.3   194  PHE194     -0.1241
     31  CA       -11.4220  -19.5770   13.6650 C.3   194  PHE194      0.1605
     32  C        -12.8740  -19.3110   13.2620 C.2   194  PHE194      0.2264
     33  O        -13.7670  -20.1090   13.5730 O.2   194  PHE194     -0.2867
     34  CB       -11.2150  -19.2080   15.1400 C.3   194  PHE194      0.0534
     35  CG       -10.1420  -20.0040   15.8080 C.ar  194  PHE194     -0.0203
     36  CD1      -10.3780  -21.3030   16.1920 C.ar  194  PHE194     -0.0042
     37  CD2       -8.8810  -19.4570   16.0190 C.ar  194  PHE194     -0.0042
     38  CE1       -9.3770  -22.0540   16.7870 C.ar  194  PHE194     -0.0003
     39  CE2       -7.8810  -20.1870   16.6130 C.ar  194  PHE194     -0.0003
     40  CZ        -8.1250  -21.4950   17.0050 C.ar  194  PHE194     -0.0000
     41  N        -12.1560  -24.7920    9.9120 N.3   198  PRO198     -0.2116
     42  CA       -10.8950  -24.0400    9.7920 C.3   198  PRO198      0.1372
     43  C        -10.8180  -23.2430    8.4820 C.2   198  PRO198      0.2244
     44  O        -11.1740  -23.7660    7.4270 O.2   198  PRO198     -0.2868
     45  CB        -9.8230  -25.1430    9.8330 C.3   198  PRO198      0.0268
     46  CG       -10.5200  -26.3690    9.2840 C.3   198  PRO198      0.0207
     47  CD       -11.9770  -26.2400    9.6720 C.3   198  PRO198      0.0892
     48  N         -5.3840  -19.4850    7.9960 N.3   201  HIS201     -0.1226
     49  CA        -4.2070  -20.1060    8.6430 C.3   201  HIS201      0.1752
     50  C         -4.4420  -21.5200    9.2050 C.2   201  HIS201      0.2596
     51  O         -3.6570  -22.4490    8.9490 O.2   201  HIS201     -0.2718
     52  CB        -3.6210  -19.2060    9.7320 C.3   201  HIS201      0.0759
     53  CG        -2.8720  -19.9560   10.7970 C.ar  201  HIS201      0.0818
     54  ND1       -3.4450  -20.2970   12.0020 N.ar  201  HIS201     -0.2268
     55  CD2       -1.6050  -20.4320   10.8360 C.ar  201  HIS201      0.1154
     56  CE1       -2.5620  -20.9380   12.7410 C.ar  201  HIS201      0.1986
     57  NE2       -1.4400  -21.0440   12.0540 N.ar  201  HIS201     -0.2212
     58  N         -5.5050  -21.6760    9.9840 N.am  202  ASN202     -0.1974
     59  CA        -5.8970  -23.0060   10.4670 C.3   202  ASN202      0.1688
     60  C         -6.1250  -24.0400    9.3560 C.2   202  ASN202      0.2292
     61  O         -5.6090  -25.1520    9.4210 O.2   202  ASN202     -0.2864
     62  CB        -7.1070  -22.9190   11.3910 C.3   202  ASN202      0.1181
     63  CG        -6.7520  -22.3160   12.7300 C.2   202  ASN202      0.2629
     64  OD1       -5.5930  -22.3840   13.1480 O.2   202  ASN202     -0.2716
     65  ND2       -7.7330  -21.7060   13.4060 N.am  202  ASN202     -0.0877
     66  N         -2.7310  -25.4910    7.9520 N.3   205  HIS205     -0.1226
     67  CA        -2.2460  -26.5080    8.8860 C.3   205  HIS205      0.1752
     68  C         -2.9140  -27.8760    8.6890 C.2   205  HIS205      0.2595
     69  O         -2.2560  -28.9260    8.5550 O.2   205  HIS205     -0.2718
     70  CB        -2.5200  -26.0660   10.3290 C.3   205  HIS205      0.0759
     71  CG        -1.5130  -25.1040   10.8720 C.ar  205  HIS205      0.0818
     72  ND1       -0.2430  -25.4900   11.2480 N.ar  205  HIS205     -0.2268
     73  CD2       -1.5890  -23.7750   11.1110 C.ar  205  HIS205      0.1154
     74  CE1        0.4200  -24.4380   11.6920 C.ar  205  HIS205      0.1986
     75  NE2       -0.3740  -23.3850   11.6220 N.ar  205  HIS205     -0.2212
     76  N         -4.2380  -27.8500    8.7300 N.am  206  ARG206     -0.1980
     77  CA        -5.0390  -29.0490    8.6640 C.3   206  ARG206      0.1597
     78  C         -5.0200  -29.6560    7.2750 C.2   206  ARG206      0.2287
     79  O         -5.1730  -30.8570    7.1260 O.2   206  ARG206     -0.2864
     80  CB        -6.4710  -28.7560    9.1040 C.3   206  ARG206      0.0334
     81  CG        -7.3200  -29.9980    9.2750 C.3   206  ARG206      0.0492
     82  CD        -8.6390  -29.6780    9.9470 C.3   206  ARG206      0.2205
     83  NE        -9.7000  -30.5830    9.5230 N.pl3 206  ARG206     -0.0865
     84  CZ       -10.1160  -31.6260   10.2290 C.cat 206  ARG206      0.5346
     85  NH1       -9.5580  -31.8940   11.3990 N.pl3 206  ARG206      0.1354
     86  NH2      -11.0900  -32.4000    9.7670 N.pl3 206  ARG206      0.1354
     87  N          2.1230  -30.9690   11.1250 N.3   212  MET212     -0.1230
     88  CA         1.5360  -29.6970   10.8160 C.3   212  MET212      0.1702
     89  C          0.1170  -29.5350   11.2710 C.2   212  MET212      0.2593
     90  O         -0.3470  -28.4530   11.4540 O.2   212  MET212     -0.2718
     91  CB         1.5550  -29.4350    9.3090 C.3   212  MET212      0.0401
     92  CG         2.7850  -28.7230    8.7450 C.3   212  MET212      0.0596
     93  SD         2.9810  -26.9650    8.8960 S.3   212  MET212     -0.1393
     94  CE         3.0040  -26.8380   10.5990 C.3   212  MET212      0.0692
     95  N         -0.5750  -30.6410   11.4350 N.am  213  GLY213     -0.1942
     96  CA        -1.9860  -30.5790   11.7510 C.3   213  GLY213      0.2014
     97  C         -2.2360  -30.6010   13.2440 C.2   213  GLY213      0.2639
     98  O         -3.3810  -30.4820   13.6880 O.2   213  GLY213     -0.2714
     99  N         -1.1700  -30.7780   14.0250 N.am  214  VAL214     -0.1963
    100  CA        -1.2810  -30.7030   15.4840 C.3   214  VAL214      0.1727
    101  C         -0.3520  -29.6140   16.0250 C.2   214  VAL214      0.2616
    102  O          0.7880  -29.4750   15.5750 O.2   214  VAL214     -0.2715
    103  CB        -1.1130  -32.1060   16.1690 C.3   214  VAL214      0.0290
    104  CG1       -1.4690  -33.2180   15.1770 C.3   214  VAL214      0.0023
    105  CG2        0.2820  -32.3120   16.7350 C.3   214  VAL214      0.0023
    106  N         -0.8630  -28.8230   16.9650 N.am  215  VAL215     -0.1977
    107  CA        -0.1790  -27.5960   17.3860 C.3   215  VAL215      0.1596
    108  C          1.2190  -27.8340   17.9440 C.2   215  VAL215      0.2287
    109  O          2.1870  -27.2370   17.4690 O.2   215  VAL215     -0.2864
    110  CB        -0.9830  -26.8060   18.4340 C.3   215  VAL215      0.0276
    111  CG1       -0.1950  -25.5770   18.8760 C.3   215  VAL215      0.0022
    112  CG2       -2.3440  -26.3990   17.8800 C.3   215  VAL215      0.0022
    113  N          3.8270  -29.0690   15.0400 N.3   218  ALA218     -0.1245
    114  CA         3.8490  -28.5180   13.6840 C.3   218  ALA218      0.1562
    115  C          5.2080  -28.0340   13.1640 C.2   218  ALA218      0.2260
    116  O          5.5360  -28.2420   11.9960 O.2   218  ALA218     -0.2867
    117  CB         2.8120  -27.4210   13.5480 C.3   218  ALA218      0.0290
    118  N          6.2460  -25.2780    7.9600 N.3   224  PHE224     -0.1241
    119  CA         5.6820  -24.4150    8.9950 C.3   224  PHE224      0.1605
    120  C          6.1340  -22.9720    8.8020 C.2   224  PHE224      0.2264
    121  O          5.3310  -22.0250    8.9040 O.2   224  PHE224     -0.2867
    122  CB         6.0570  -24.9300   10.3920 C.3   224  PHE224      0.0534
    123  CG         5.4590  -24.1340   11.5270 C.ar  224  PHE224     -0.0203
    124  CD1        6.1260  -23.0330   12.0540 C.ar  224  PHE224     -0.0042
    125  CD2        4.2400  -24.4870   12.0700 C.ar  224  PHE224     -0.0042
    126  CE1        5.5820  -22.2990   13.0930 C.ar  224  PHE224     -0.0003
    127  CE2        3.6900  -23.7570   13.1180 C.ar  224  PHE224     -0.0003
    128  CZ         4.3700  -22.6600   13.6280 C.ar  224  PHE224     -0.0000
    129  N          3.9760  -19.7300    7.7650 N.3   228  HIS228     -0.1241
    130  CA         3.8840  -18.5460    8.6070 C.3   228  HIS228      0.1621
    131  C          4.5240  -17.2800    8.0110 C.2   228  HIS228      0.2264
    132  O          4.2060  -16.1700    8.4130 O.2   228  HIS228     -0.2867
    133  CB         4.3090  -18.8430   10.0490 C.3   228  HIS228      0.0745
    134  CG         3.1540  -19.2270   10.9300 C.ar  228  HIS228      0.0817
    135  ND1        2.3620  -18.2930   11.5640 N.ar  228  HIS228     -0.2268
    136  CD2        2.6250  -20.4370   11.2370 C.ar  228  HIS228      0.1154
    137  CE1        1.4160  -18.9090   12.2480 C.ar  228  HIS228      0.1986
    138  NE2        1.5510  -20.2120   12.0670 N.ar  228  HIS228     -0.2212
@<TRIPOS>BOND
     1    79    78    2
     2    78    77    1
     3    44    43    2
     4   129   130    1
     5    66    67    1
     6   118   119    1
     7    48    49    1
     8   131   132    2
     9   131   130    1
    10    43    42    1
    11    69    68    2
    12   130   133    1
    13    49    50    1
    14    49    52    1
    15    77    76    1
    16    77    80    1
    17    68    76   am
    18    68    67    1
    19    92    93    1
    20    92    91    1
    21   120   121    2
    22   120   119    1
    23    67    70    1
    24    93    94    1
    25    51    50    2
    26   119   122    1
    27    80    81    1
    28    50    58   am
    29    81    82    1
    30    46    47    1
    31    46    45    1
    32    91    88    1
    33    60    61    2
    34    60    59    1
    35    83    82    1
    36    83    84    2
    37    47    41    1
    38    52    53    1
    39    86    84    1
    40    42    45    1
    41    42    41    1
    42    58    59    1
    43   133   134    1
    44    84    85    1
    45    70    71    1
    46   122   123    1
    47    59    62    1
    48    53    55   ar
    49    53    54   ar
    50    88    87    1
    51    88    89    1
    52    55    57   ar
    53    71    73   ar
    54    71    72   ar
    55   134   136   ar
    56   134   135   ar
    57    73    75   ar
    58   136   138   ar
    59    72    74   ar
    60    89    95   am
    61    89    90    2
    62    62    63    1
    63    95    96    1
    64   123   124   ar
    65   123   125   ar
    66    24    23    2
    67   135   137   ar
    68    21    22    1
    69    75    74   ar
    70    96    97    1
    71    23    22    1
    72   116   115    2
    73    54    56   ar
    74    57    56   ar
    75   124   126   ar
    76   138   137   ar
    77   125   127   ar
    78    22    25    1
    79    63    64    2
    80    63    65   am
    81    30    31    1
    82   126   128   ar
    83   127   128   ar
    84   115   114    1
    85    97    98    2
    86    97    99   am
    87    32    33    2
    88    32    31    1
    89   117   114    1
    90    31    34    1
    91   114   113    1
    92    25    26    1
    93    99   100    1
    94    26    27    1
    95    34    35    1
    96   104   103    1
    97   100   101    1
    98   100   103    1
    99   102   101    2
   100    35    37   ar
   101    35    36   ar
   102    37    39   ar
   103   101   106   am
   104    27    29   ar
   105    27    28   ar
   106   103   105    1
   107    36    38   ar
   108    39    40   ar
   109    38    40   ar
   110    10     9   ar
   111    10     8   ar
   112   106   107    1
   113     9     7   ar
   114     8     6   ar
   115   107   108    1
   116   107   110    1
   117    18    20   ar
   118    18    16   ar
   119   109   108    2
   120    20    19   ar
   121     7     6   ar
   122   112   110    1
   123     6     5    1
   124   110   111    1
   125     5     2    1
   126    16    15    1
   127    16    17   ar
   128    19    17   ar
   129    15    12    1
   130    12    13    1
   131    12    11    1
   132     2     1    1
   133     2     3    1
   134    13    14    2
   135     3     4    2
