@<TRIPOS>MOLECULE
tmp/4p6vC00.pdb
 90 87 0 0 0
SMALL
GASTEIGER

@<TRIPOS>ATOM
      1  N         22.1250   22.3730  -16.8050 N.3   140  LEU140     -0.1231
      2  CA        21.6310   21.3050  -17.6680 C.3   140  LEU140      0.1693
      3  C         22.5300   21.1370  -18.8910 C.2   140  LEU140      0.2592
      4  O         22.9040   20.0150  -19.2530 O.2   140  LEU140     -0.2718
      5  CB        20.1870   21.5690  -18.0840 C.3   140  LEU140      0.0284
      6  CG        19.6070   20.4310  -18.9230 C.3   140  LEU140      0.0019
      7  CD1       19.7380   19.1080  -18.1820 C.3   140  LEU140      0.0001
      8  CD2       18.1570   20.7070  -19.2690 C.3   140  LEU140      0.0001
      9  N         22.9030   22.2540  -19.5270 N.am  141  TRP141     -0.1976
     10  CA        23.6880   22.2530  -20.7550 C.3   141  TRP141      0.1640
     11  C         25.0700   22.8610  -20.6110 C.2   141  TRP141      0.2290
     12  O         25.8730   22.7370  -21.5410 O.2   141  TRP141     -0.2864
     13  CB        23.0020   23.1160  -21.8310 C.3   141  TRP141      0.0576
     14  CG        21.5470   22.9680  -22.1190 C.ar  141  TRP141      0.0006
     15  CD1       20.5920   23.9290  -21.9620 C.ar  141  TRP141      0.0946
     16  CD2       20.9310   21.9360  -22.8990 C.ar  141  TRP141      0.0152
     17  NE1       19.3850   23.4880  -22.4360 N.ar  141  TRP141     -0.2442
     18  CE2       19.5700   22.2730  -23.0370 C.ar  141  TRP141      0.0810
     19  CE3       21.3820   20.7270  -23.4350 C.ar  141  TRP141      0.0012
     20  CZ2       18.6590   21.4470  -23.6870 C.ar  141  TRP141      0.0191
     21  CZ3       20.4760   19.9120  -24.0840 C.ar  141  TRP141      0.0001
     22  CH2       19.1290   20.2720  -24.1990 C.ar  141  TRP141      0.0015
     23  N         22.4250   27.8800  -21.2770 N.3   167  GLU167     -0.1231
     24  CA        21.1310   27.2550  -21.0660 C.3   167  GLU167      0.1699
     25  C         20.1350   27.7600  -22.1100 C.2   167  GLU167      0.2592
     26  O         20.4080   28.7000  -22.8600 O.2   167  GLU167     -0.2718
     27  CB        20.6290   27.5620  -19.6580 C.3   167  GLU167      0.0402
     28  CG        21.6000   27.1770  -18.5450 C.3   167  GLU167      0.1161
     29  CD        21.7220   25.6860  -18.3330 C.2   167  GLU167      0.3649
     30  OE1       20.9100   25.1270  -17.5690 O.co2 167  GLU167     -0.2457
     31  OE2       22.6430   25.0780  -18.9170 O.co2 167  GLU167     -0.2457
     32  N         18.9520   27.1570  -22.1220 N.am  168  THR168     -0.1953
     33  CA        17.9860   27.4520  -23.1780 C.3   168  THR168      0.1897
     34  C         17.3850   28.8390  -22.9770 C.2   168  THR168      0.2313
     35  O         16.8890   29.1420  -21.8850 O.2   168  THR168     -0.2863
     36  CB        16.8850   26.4020  -23.2230 C.3   168  THR168      0.1794
     37  OG1       17.4710   25.1190  -23.4770 O.3   168  THR168     -0.2208
     38  CG2       15.9050   26.7270  -24.3390 C.3   168  THR168      0.0378
     39  N         14.1410   29.4920  -20.7610 N.3   171  LEU171     -0.1231
     40  CA        14.0360   28.5000  -19.7040 C.3   171  LEU171      0.1693
     41  C         15.2270   28.7250  -18.7720 C.2   171  LEU171      0.2592
     42  O         15.1700   29.6090  -17.9120 O.2   171  LEU171     -0.2718
     43  CB        13.9740   27.0730  -20.2520 C.3   171  LEU171      0.0284
     44  CG        12.6470   26.4650  -20.7180 C.3   171  LEU171      0.0019
     45  CD1       11.5090   27.4750  -20.7980 C.3   171  LEU171      0.0001
     46  CD2       12.8500   25.7640  -22.0360 C.3   171  LEU171      0.0001
     47  N         16.3020   27.9470  -18.9000 N.am  172  GLY172     -0.1957
     48  CA        17.4500   28.1540  -18.0400 C.3   172  GLY172      0.1869
     49  C         18.1720   29.4410  -18.3500 C.2   172  GLY172      0.2309
     50  O         18.9620   29.9180  -17.5270 O.2   172  GLY172     -0.2863
     51  N         11.2670   26.5600   -6.4250 N.3   202  LYS202     -0.1245
     52  CA        10.5480   26.1630   -7.6280 C.3   202  LYS202      0.1561
     53  C          9.1740   26.8230   -7.6830 C.2   202  LYS202      0.2260
     54  O          8.3710   26.7170   -6.7510 O.2   202  LYS202     -0.2867
     55  CB        10.4140   24.6400   -7.6630 C.3   202  LYS202      0.0271
     56  CG         9.7980   24.0780   -8.9290 C.3   202  LYS202      0.0035
     57  CD         9.5170   22.5920   -8.7670 C.3   202  LYS202      0.0206
     58  CE         8.3100   22.1660   -9.5920 C.3   202  LYS202      0.1093
     59  NZ         8.4530   20.7940  -10.1560 N.3   202  LYS202     -0.1314
     60  N          9.6850   26.7850  -15.4120 N.3   218  GLY218     -0.1210
     61  CA         9.8630   25.8130  -16.4650 C.3   218  GLY218      0.1956
     62  C         11.2970   25.3710  -16.6300 C.2   218  GLY218      0.2612
     63  O         11.6090   24.6720  -17.6010 O.2   218  GLY218     -0.2717
     64  N         12.1750   25.7540  -15.7010 N.am  219  ALA219     -0.1965
     65  CA        13.5990   25.4450  -15.7520 C.3   219  ALA219      0.1728
     66  C         14.1060   25.0790  -14.3550 C.2   219  ALA219      0.2617
     67  O         14.9670   25.7370  -13.7760 O.2   219  ALA219     -0.2715
     68  CB        14.3890   26.6130  -16.3360 C.3   219  ALA219      0.0334
     69  N         13.5470   24.0040  -13.7980 N.am  220  THR220     -0.1937
     70  CA        13.9380   23.5510  -12.4670 C.3   220  THR220      0.2028
     71  C         15.3910   23.0820  -12.4120 C.2   220  THR220      0.2642
     72  O         16.0660   23.2820  -11.3960 O.2   220  THR220     -0.2714
     73  CB        13.0130   22.4140  -12.0240 C.3   220  THR220      0.1808
     74  OG1       11.6430   22.8110  -12.1650 O.3   220  THR220     -0.2208
     75  CG2       13.3040   21.9940  -10.5850 C.3   220  THR220      0.0379
     76  N         15.8990   22.4830  -13.4910 N.am  221  LEU221     -0.1963
     77  CA        17.2620   21.9550  -13.4720 C.3   221  LEU221      0.1728
     78  C         18.3110   23.0590  -13.4170 C.2   221  LEU221      0.2616
     79  O         19.2690   22.9730  -12.6390 O.2   221  LEU221     -0.2715
     80  CB        17.4940   21.0600  -14.6880 C.3   221  LEU221      0.0311
     81  CG        16.5920   19.8320  -14.7780 C.3   221  LEU221      0.0022
     82  CD1       16.7780   19.1410  -16.1120 C.3   221  LEU221      0.0001
     83  CD2       16.8970   18.8780  -13.6350 C.3   221  LEU221      0.0001
     84  N         18.1740   24.0890  -14.2540 N.am  222  THR222     -0.1951
     85  CA        19.0440   25.2540  -14.1170 C.3   222  THR222      0.1897
     86  C         18.9410   25.8570  -12.7220 C.2   222  THR222      0.2313
     87  O         19.9590   26.1690  -12.0940 O.2   222  THR222     -0.2863
     88  CB        18.7120   26.2940  -15.1850 C.3   222  THR222      0.1794
     89  OG1       19.0440   25.7690  -16.4750 O.3   222  THR222     -0.2208
     90  CG2       19.5080   27.5670  -14.9480 C.3   222  THR222      0.0378
@<TRIPOS>BOND
     1    38    36    1
     2    22    21   ar
     3    22    20   ar
     4    21    19   ar
     5    20    18   ar
     6    37    36    1
     7    19    16   ar
     8    36    33    1
     9    33    34    1
    10    33    32    1
    11    18    16   ar
    12    18    17   ar
    13    34    35    2
    14    16    14   ar
    15    26    25    2
    16    17    15   ar
    17    32    25   am
    18    14    15   ar
    19    14    13    1
    20    25    24    1
    21    46    44    1
    22    13    10    1
    23    12    11    2
    24    23    24    1
    25    24    27    1
    26    45    44    1
    27    39    40    1
    28    10    11    1
    29    10     9    1
    30    44    43    1
    31    43    40    1
    32    40    41    1
    33    27    28    1
    34     9     3   am
    35     8     6    1
    36     4     3    2
    37     6     7    1
    38     6     5    1
    39    31    29   ar
    40    47    41   am
    41    47    48    1
    42     3     2    1
    43    41    42    2
    44    28    29    1
    45    49    48    1
    46    49    50    2
    47    29    30   ar
    48     5     2    1
    49     2     1    1
    50    63    62    2
    51    62    61    1
    52    62    64   am
    53    89    88    1
    54    61    60    1
    55    68    65    1
    56    82    81    1
    57    65    64    1
    58    65    66    1
    59    88    90    1
    60    88    85    1
    61    81    80    1
    62    81    83    1
    63    80    77    1
    64    66    69   am
    65    66    67    2
    66    84    85    1
    67    84    78   am
    68    85    86    1
    69    69    70    1
    70    76    77    1
    71    76    71   am
    72    77    78    1
    73    78    79    2
    74    86    87    2
    75    70    71    1
    76    70    73    1
    77    71    72    2
    78    74    73    1
    79    73    75    1
    80    59    58    1
    81    58    57    1
    82    56    57    1
    83    56    55    1
    84    53    52    1
    85    53    54    2
    86    55    52    1
    87    52    51    1
