@<TRIPOS>MOLECULE
tmp/4p6vB00.pdb
 192 187 0 0 0
SMALL
GASTEIGER

@<TRIPOS>ATOM
      1  N        -14.2350   18.7600   -2.5790 N.3   125  LEU125     -0.1231
      2  CA       -13.7240   18.1950   -1.3380 C.3   125  LEU125      0.1693
      3  C        -12.2770   17.7230   -1.4310 C.2   125  LEU125      0.2591
      4  O        -11.7240   17.2870   -0.4180 O.2   125  LEU125     -0.2718
      5  CB       -14.6110   17.0300   -0.8880 C.3   125  LEU125      0.0284
      6  CG       -16.0530   17.3610   -0.5030 C.3   125  LEU125      0.0019
      7  CD1      -16.8190   16.0880   -0.1780 C.3   125  LEU125      0.0001
      8  CD2      -16.0860   18.3260    0.6720 C.3   125  LEU125      0.0001
      9  N        -11.6490   17.7820   -2.6110 N.am  126  ILE126     -0.1980
     10  CA       -10.2350   17.4300   -2.7150 C.3   126  ILE126      0.1595
     11  C         -9.3220   18.6000   -2.3880 C.2   126  ILE126      0.2287
     12  O         -8.0950   18.4450   -2.4260 O.2   126  ILE126     -0.2864
     13  CB        -9.8640   16.8900   -4.1150 C.3   126  ILE126      0.0276
     14  CG1      -10.4470   17.7640   -5.2200 C.3   126  ILE126      0.0022
     15  CG2      -10.3750   15.4890   -4.2970 C.3   126  ILE126      0.0022
     16  CD1       -9.5620   18.8860   -5.6770 C.3   126  ILE126      0.0001
     17  N         -8.7720   20.9490    0.6870 N.3   128  PRO128     -0.2116
     18  CA        -8.9670   21.5060    2.0350 C.3   128  PRO128      0.1372
     19  C         -8.7500   23.0110    2.0940 C.2   128  PRO128      0.2244
     20  O         -9.3240   23.6710    2.9740 O.2   128  PRO128     -0.2868
     21  CB        -7.9200   20.7580    2.8760 C.3   128  PRO128      0.0268
     22  CG        -7.7600   19.4490    2.1820 C.3   128  PRO128      0.0207
     23  CD        -7.9160   19.7480    0.7060 C.3   128  PRO128      0.0892
     24  N         -8.9430   15.3320  -10.6080 N.3   163  LEU163     -0.1245
     25  CA        -7.5440   15.4780  -10.2310 C.3   163  LEU163      0.1561
     26  C         -6.7480   16.2680  -11.2600 C.2   163  LEU163      0.2260
     27  O         -5.7290   16.8670  -10.9050 O.2   163  LEU163     -0.2867
     28  CB        -6.9230   14.1020  -10.0090 C.3   163  LEU163      0.0270
     29  CG        -7.4280   13.4800   -8.7050 C.3   163  LEU163      0.0019
     30  CD1       -7.3390   11.9700   -8.7240 C.3   163  LEU163      0.0001
     31  CD2       -6.6610   14.0500   -7.5240 C.3   163  LEU163      0.0001
     32  N         -7.3360   19.9240  -10.0680 N.3   166  ARG166     -0.1245
     33  CA        -6.5300   20.2520   -8.9000 C.3   166  ARG166      0.1563
     34  C         -5.0630   20.3770   -9.2770 C.2   166  ARG166      0.2260
     35  O         -4.3620   21.2660   -8.7800 O.2   166  ARG166     -0.2867
     36  CB        -6.7040   19.2030   -7.8080 C.3   166  ARG166      0.0307
     37  CG        -6.2230   19.7030   -6.4620 C.3   166  ARG166      0.0489
     38  CD        -5.7390   18.5950   -5.5540 C.3   166  ARG166      0.2205
     39  NE        -4.7850   19.1390   -4.5940 N.pl3 166  ARG166     -0.0865
     40  CZ        -4.8910   19.0260   -3.2770 C.cat 166  ARG166      0.5346
     41  NH1       -5.9060   18.3620   -2.7450 N.pl3 166  ARG166      0.1354
     42  NH2       -3.9730   19.5730   -2.4940 N.pl3 166  ARG166      0.1354
     43  N         -2.8970   23.2580   -8.6440 N.3   170  PHE170     -0.1241
     44  CA        -1.6620   22.9960   -7.9110 C.3   170  PHE170      0.1605
     45  C         -0.4750   23.7070   -8.5530 C.2   170  PHE170      0.2264
     46  O          0.2730   24.4220   -7.8770 O.2   170  PHE170     -0.2867
     47  CB        -1.4060   21.4890   -7.8300 C.3   170  PHE170      0.0534
     48  CG        -0.2340   21.1180   -6.9660 C.ar  170  PHE170     -0.0203
     49  CD1       -0.4050   20.8650   -5.6180 C.ar  170  PHE170     -0.0042
     50  CD2        1.0380   21.0200   -7.5020 C.ar  170  PHE170     -0.0042
     51  CE1        0.6660   20.5320   -4.8250 C.ar  170  PHE170     -0.0003
     52  CE2        2.1120   20.6840   -6.7090 C.ar  170  PHE170     -0.0003
     53  CZ         1.9230   20.4390   -5.3690 C.ar  170  PHE170     -0.0000
     54  N         -2.4660   26.2440   -2.5950 N.3   177  ILE177     -0.1231
     55  CA        -2.4680   24.7920   -2.4720 C.3   177  ILE177      0.1692
     56  C         -1.2270   24.2510   -1.7770 C.2   177  ILE177      0.2593
     57  O         -1.2450   23.0930   -1.3280 O.2   177  ILE177     -0.2718
     58  CB        -2.6340   24.1210   -3.8520 C.3   177  ILE177      0.0266
     59  CG1       -3.2690   22.7370   -3.7070 C.3   177  ILE177      0.0019
     60  CG2       -1.2990   24.0590   -4.5680 C.3   177  ILE177      0.0020
     61  CD1       -4.6490   22.7650   -3.0870 C.3   177  ILE177      0.0001
     62  N         -0.1520   25.0250   -1.6640 N.am  178  SER178     -0.1938
     63  CA         1.0410   24.5420   -0.9920 C.3   178  SER178      0.2055
     64  C          0.8990   24.6970    0.5200 C.2   178  SER178      0.2643
     65  O         -0.0720   25.2660    1.0300 O.2   178  SER178     -0.2714
     66  CB         2.2790   25.2830   -1.4890 C.3   178  SER178      0.2130
     67  OG         2.4660   25.0630   -2.8760 O.3   178  SER178     -0.2179
     68  N          1.8930   24.1840    1.2380 N.am  179  GLY179     -0.1954
     69  CA         1.8510   24.1470    2.6810 C.3   179  GLY179      0.1869
     70  C          1.9400   25.5150    3.3160 C.2   179  GLY179      0.2309
     71  O          1.8460   26.5560    2.6670 O.2   179  GLY179     -0.2863
     72  N         -3.8640   26.9250    5.3320 N.3   183  TRP183     -0.1241
     73  CA        -4.7580   25.7790    5.2840 C.3   183  TRP183      0.1605
     74  C         -5.8980   25.9060    6.2810 C.2   183  TRP183      0.2264
     75  O         -6.6900   24.9670    6.4200 O.2   183  TRP183     -0.2867
     76  CB        -3.9840   24.4810    5.5500 C.3   183  TRP183      0.0550
     77  CG        -3.1260   24.0520    4.4090 C.ar  183  TRP183      0.0003
     78  CD1       -1.8930   24.5320    4.0860 C.ar  183  TRP183      0.0946
     79  CD2       -3.4360   23.0500    3.4360 C.ar  183  TRP183      0.0152
     80  NE1       -1.4160   23.8930    2.9680 N.ar  183  TRP183     -0.2442
     81  CE2       -2.3460   22.9770    2.5500 C.ar  183  TRP183      0.0810
     82  CE3       -4.5310   22.2080    3.2280 C.ar  183  TRP183      0.0012
     83  CZ2       -2.3180   22.0950    1.4720 C.ar  183  TRP183      0.0191
     84  CZ3       -4.5000   21.3310    2.1600 C.ar  183  TRP183      0.0001
     85  CH2       -3.4040   21.2840    1.2940 C.ar  183  TRP183      0.0015
     86  N          1.3190   21.9490    8.3710 N.3   193  THR193     -0.1203
     87  CA         0.7140   20.7350    7.8100 C.3   193  THR193      0.1994
     88  C          1.4370   19.4440    8.2090 C.2   193  THR193      0.2618
     89  O          2.6560   19.3160    8.0620 O.2   193  THR193     -0.2717
     90  CB         0.5740   20.8460    6.2760 C.3   193  THR193      0.1784
     91  OG1       -0.2180   19.7480    5.7820 O.3   193  THR193     -0.2211
     92  CG2        1.9240   20.9050    5.5780 C.3   193  THR193      0.0376
     93  N          0.6620   18.4670    8.6960 N.am  194  ALA194     -0.1965
     94  CA         1.2320   17.3060    9.3780 C.3   194  ALA194      0.1728
     95  C          2.3010   16.6040    8.5480 C.2   194  ALA194      0.2616
     96  O          3.2930   16.1110    9.0970 O.2   194  ALA194     -0.2715
     97  CB         0.1220   16.3200    9.7510 C.3   194  ALA194      0.0334
     98  N          2.1290   16.5570    7.2250 N.am  195  LEU195     -0.1977
     99  CA         3.0810   15.8220    6.3960 C.3   195  LEU195      0.1596
    100  C          4.3660   16.6080    6.1580 C.2   195  LEU195      0.2287
    101  O          5.4610   16.0410    6.2500 O.2   195  LEU195     -0.2864
    102  CB         2.4400   15.4290    5.0650 C.3   195  LEU195      0.0297
    103  CG         1.5080   14.2190    5.1230 C.3   195  LEU195      0.0022
    104  CD1        0.0870   14.6490    5.4550 C.3   195  LEU195      0.0001
    105  CD2        1.5590   13.4440    3.8200 C.3   195  LEU195      0.0001
    106  N         -3.7980   12.5470    5.6730 N.3   273  GLY273     -0.1210
    107  CA        -3.4140   13.6380    4.7950 C.3   273  GLY273      0.1956
    108  C         -3.7040   13.3900    3.3320 C.2   273  GLY273      0.2612
    109  O         -2.8660   13.6840    2.4690 O.2   273  GLY273     -0.2717
    110  N         -4.8610   12.8070    3.0320 N.am  274  GLY274     -0.1956
    111  CA        -5.3340   12.6840    1.6760 C.3   274  GLY274      0.1869
    112  C         -5.0770   11.3470    1.0110 C.2   274  GLY274      0.2309
    113  O         -5.7500   11.0290    0.0230 O.2   274  GLY274     -0.2863
    114  N         -8.2320    8.9760    1.2800 N.3   277  PHE277     -0.1227
    115  CA        -9.2930    9.4360    0.3950 C.3   277  PHE277      0.1736
    116  C         -8.9160    9.2700   -1.0690 C.2   277  PHE277      0.2596
    117  O         -9.7950    9.0700   -1.9150 O.2   277  PHE277     -0.2718
    118  CB        -9.6350   10.8910    0.6960 C.3   277  PHE277      0.0547
    119  CG       -10.5410   11.5170   -0.3170 C.ar  277  PHE277     -0.0202
    120  CD1      -11.8780   11.1630   -0.3880 C.ar  277  PHE277     -0.0042
    121  CD2      -10.0580   12.4560   -1.2050 C.ar  277  PHE277     -0.0042
    122  CE1      -12.7140   11.7440   -1.3310 C.ar  277  PHE277     -0.0003
    123  CE2      -10.8850   13.0360   -2.1400 C.ar  277  PHE277     -0.0003
    124  CZ       -12.2150   12.6810   -2.2070 C.ar  277  PHE277     -0.0000
    125  N         -7.6250    9.3510   -1.3890 N.am  278  GLY278     -0.1957
    126  CA        -7.2030    9.0880   -2.7530 C.3   278  GLY278      0.1869
    127  C         -7.3840    7.6330   -3.1390 C.2   278  GLY278      0.2309
    128  O         -7.7590    7.3240   -4.2740 O.2   278  GLY278     -0.2863
    129  N        -10.8960    7.9030   -5.5740 N.3   282  MET282     -0.1245
    130  CA       -10.4190    8.2770   -6.9010 C.3   282  MET282      0.1570
    131  C         -9.5090    7.2460   -7.5420 C.2   282  MET282      0.2261
    132  O         -9.4220    7.2080   -8.7710 O.2   282  MET282     -0.2867
    133  CB        -9.6840    9.6250   -6.8660 C.3   282  MET282      0.0387
    134  CG       -10.6000   10.8130   -7.0730 C.3   282  MET282      0.0595
    135  SD       -10.7210   11.8370   -5.6010 S.3   282  MET282     -0.1393
    136  CE        -9.0190   12.3550   -5.4360 C.3   282  MET282      0.0692
    137  N          6.7460   18.5790   -2.5350 N.3   317  TYR317     -0.1228
    138  CA         5.4440   18.1310   -2.0610 C.3   317  TYR317      0.1721
    139  C          5.5920   17.3460   -0.7620 C.2   317  TYR317      0.2437
    140  O          6.3980   16.4050   -0.6990 O.2   317  TYR317     -0.2733
    141  CB         4.7450   17.2520   -3.1000 C.3   317  TYR317      0.0547
    142  CG         5.1410   17.5030   -4.5340 C.ar  317  TYR317     -0.0200
    143  CD1        4.7530   18.6600   -5.1920 C.ar  317  TYR317     -0.0009
    144  CD2        5.8830   16.5660   -5.2370 C.ar  317  TYR317     -0.0009
    145  CE1        5.1080   18.8850   -6.5060 C.ar  317  TYR317      0.0417
    146  CE2        6.2430   16.7810   -6.5490 C.ar  317  TYR317      0.0417
    147  CZ         5.8520   17.9430   -7.1790 C.ar  317  TYR317      0.1957
    148  OH         6.2060   18.1650   -8.4880 O.3   317  TYR317     -0.2866
    149  N          4.8470   17.6930    0.2890 N.am  318  PRO318     -0.2718
    150  CA         4.7280   16.7640    1.4210 C.3   318  PRO318      0.1535
    151  C          4.0230   15.4890    1.0140 C.2   318  PRO318      0.2598
    152  O          4.3340   14.4050    1.5230 O.2   318  PRO318     -0.2715
    153  CB         3.9160   17.5690    2.4420 C.3   318  PRO318      0.0310
    154  CG         3.0890   18.4980    1.6040 C.3   318  PRO318      0.0237
    155  CD         3.9620   18.8630    0.4320 C.3   318  PRO318      0.0939
    156  N          3.0760   15.6140    0.0940 N.am  319  GLU319     -0.1964
    157  CA         2.3710   14.5270   -0.5560 C.3   319  GLU319      0.1733
    158  C          2.0920   15.1080   -1.9350 C.2   319  GLU319      0.2617
    159  O          1.9050   16.3160   -2.0340 O.2   319  GLU319     -0.2715
    160  CB         1.0900   14.1710    0.2010 C.3   319  GLU319      0.0429
    161  CG         0.3710   12.9330   -0.2780 C.3   319  GLU319      0.1163
    162  CD        -1.0760   12.9060    0.1500 C.2   319  GLU319      0.3649
    163  OE1       -1.7610   13.9360   -0.0250 O.co2 319  GLU319     -0.2457
    164  OE2       -1.5260   11.8610    0.6640 O.co2 319  GLU319     -0.2457
    165  N          2.1090   14.3090   -3.0010 N.am  320  GLY320     -0.1940
    166  CA         2.4270   12.8950   -2.9590 C.3   320  GLY320      0.2014
    167  C          1.4210   12.0800   -3.7580 C.2   320  GLY320      0.2639
    168  O          1.7720   11.3990   -4.7200 O.2   320  GLY320     -0.2714
    169  N          0.1510   12.1840   -3.3670 N.am  321  MET321     -0.1963
    170  CA        -0.8810   11.3000   -3.8960 C.3   321  MET321      0.1736
    171  C         -1.3840   11.7600   -5.2610 C.2   321  MET321      0.2616
    172  O         -1.4650   10.9580   -6.1980 O.2   321  MET321     -0.2715
    173  CB        -2.0370   11.2080   -2.8980 C.3   321  MET321      0.0427
    174  CG        -3.2830   10.5320   -3.4350 C.3   321  MET321      0.0599
    175  SD        -3.1580    8.7390   -3.5220 S.3   321  MET321     -0.1393
    176  CE        -4.4010    8.4180   -4.7690 C.3   321  MET321      0.0692
    177  N         -1.7290   13.0460   -5.3890 N.am  322  MET322     -0.1963
    178  CA        -2.3780   13.5400   -6.6040 C.3   322  MET322      0.1736
    179  C         -1.5070   13.3180   -7.8350 C.2   322  MET322      0.2616
    180  O         -1.9950   12.8890   -8.8870 O.2   322  MET322     -0.2715
    181  CB        -2.7140   15.0220   -6.4530 C.3   322  MET322      0.0427
    182  CG        -3.4080   15.6400   -7.6480 C.3   322  MET322      0.0599
    183  SD        -2.6860   17.2290   -8.0940 S.3   322  MET322     -0.1393
    184  CE        -2.3640   17.9330   -6.4790 C.3   322  MET322      0.0692
    185  N         -0.2140   13.6220   -7.7300 N.am  323  LEU323     -0.1977
    186  CA         0.6820   13.3750   -8.8520 C.3   323  LEU323      0.1596
    187  C          0.9760   11.8930   -9.0290 C.2   323  LEU323      0.2287
    188  O          1.4540   11.4920  -10.0950 O.2   323  LEU323     -0.2864
    189  CB         1.9890   14.1510   -8.6740 C.3   323  LEU323      0.0297
    190  CG         1.9460   15.6750   -8.8290 C.3   323  LEU323      0.0022
    191  CD1        1.4100   16.3570   -7.5760 C.3   323  LEU323      0.0001
    192  CD2        3.3250   16.2080   -9.1820 C.3   323  LEU323      0.0001
@<TRIPOS>BOND
     1    26    27    2
     2    26    25    1
     3    24    25    1
     4    25    28    1
     5   188   187    2
     6    32    33    1
     7    28    29    1
     8    34    33    1
     9    34    35    2
    10   192   190    1
    11   187   186    1
    12    33    36    1
    13   180   179    2
    14   186   189    1
    15   186   185    1
    16   190   189    1
    17   190   191    1
    18   132   131    2
    19    30    29    1
    20    29    31    1
    21    43    44    1
    22    45    44    1
    23    45    46    2
    24   148   147    1
    25   183   182    1
    26   183   184    1
    27    44    47    1
    28   179   185   am
    29   179   178    1
    30    47    48    1
    31    36    37    1
    32   182   181    1
    33   131   130    1
    34    50    48   ar
    35    50    52   ar
    36   147   146   ar
    37   147   145   ar
    38   134   133    1
    39   134   135    1
    40    48    49   ar
    41   130   133    1
    42   130   129    1
    43    52    53   ar
    44   178   181    1
    45   178   177    1
    46   146   144   ar
    47   145   143   ar
    48    37    38    1
    49   172   171    2
    50    16    14    1
    51    49    51   ar
    52   135   136    1
    53    38    39    1
    54   177   171   am
    55    53    51   ar
    56   171   170    1
    57   144   142   ar
    58    14    13    1
    59   143   142   ar
    60   176   175    1
    61   168   167    2
    62    39    40    2
    63    60    58    1
    64   142   141    1
    65    15    13    1
    66   128   127    2
    67    13    10    1
    68   170   169    1
    69   170   173    1
    70    58    59    1
    71    58    55    1
    72   167   169   am
    73   167   166    1
    74    59    61    1
    75   175   174    1
    76   174   173    1
    77    40    41    1
    78    40    42    1
    79   127   126    1
    80   141   138    1
    81   165   166    1
    82   165   158   am
    83    67    66    1
    84   126   125    1
    85    10     9    1
    86    10    11    1
    87     9     3   am
    88    54    55    1
    89     1     2    1
    90   137   138    1
    91    55    56    1
    92    12    11    2
    93   124   123   ar
    94   124   122   ar
    95   123   121   ar
    96   138   139    1
    97   159   158    2
    98   158   157    1
    99   117   116    2
   100    56    62   am
   101    56    57    2
   102    62    63    1
   103    66    63    1
   104     3     2    1
   105     3     4    2
   106   125   116   am
   107     2     5    1
   108   122   120   ar
   109   121   119   ar
   110   116   115    1
   111    63    64    1
   112     5     6    1
   113   139   140    2
   114   139   149   am
   115   157   156    1
   116   157   160    1
   117     6     7    1
   118     6     8    1
   119   120   119   ar
   120   119   118    1
   121   161   162    1
   122   161   160    1
   123   163   162   ar
   124   113   112    2
   125   156   151   am
   126   162   164   ar
   127   149   155    1
   128   149   150    1
   129   115   118    1
   130   115   114    1
   131   155   154    1
   132    64    65    2
   133    64    68   am
   134    17    23    1
   135    17    18    1
   136    23    22    1
   137   112   111    1
   138   151   150    1
   139   151   152    2
   140    68    69    1
   141    85    83   ar
   142    85    84   ar
   143   150   153    1
   144    83    81   ar
   145   154   153    1
   146   111   110    1
   147    18    19    1
   148    18    21    1
   149    19    20    2
   150    84    82   ar
   151    22    21    1
   152   109   108    2
   153    81    80   ar
   154    81    79   ar
   155    71    70    2
   156    69    70    1
   157    80    78   ar
   158   110   108   am
   159    82    79   ar
   160   108   107    1
   161    79    77   ar
   162   105   103    1
   163    78    77   ar
   164    77    76    1
   165   107   106    1
   166   102   103    1
   167   102    99    1
   168   103   104    1
   169    73    72    1
   170    73    76    1
   171    73    74    1
   172    92    90    1
   173    91    90    1
   174   100   101    2
   175   100    99    1
   176    90    87    1
   177    74    75    2
   178    99    98    1
   179    98    95   am
   180    87    88    1
   181    87    86    1
   182    89    88    2
   183    88    93   am
   184    95    96    2
   185    95    94    1
   186    93    94    1
   187    94    97    1
