@<TRIPOS>MOLECULE
tmp/4p6wA00.pdb
 145 136 0 0 0
SMALL
GASTEIGER

@<TRIPOS>ATOM
      1  N         25.0680  -50.8780  -48.0020 N.3    46  VAL46      -0.1231
      2  CA        23.7880  -50.2200  -48.2320 C.3    46  VAL46       0.1692
      3  C         23.7310  -49.6420  -49.6460 C.2    46  VAL46       0.2591
      4  O         22.6980  -49.7110  -50.3080 O.2    46  VAL46      -0.2718
      5  CB        23.5310  -49.1130  -47.1880 C.3    46  VAL46       0.0266
      6  CG1       22.3490  -48.2490  -47.5900 C.3    46  VAL46       0.0020
      7  CG2       23.2990  -49.7320  -45.8150 C.3    46  VAL46       0.0020
      8  N         24.8450  -49.0880  -50.1160 N.am   47  ILE47      -0.1980
      9  CA        24.9200  -48.6020  -51.4910 C.3    47  ILE47       0.1595
     10  C         24.6860  -49.7580  -52.4630 C.2    47  ILE47       0.2287
     11  O         23.9380  -49.6260  -53.4330 O.2    47  ILE47      -0.2864
     12  CB        26.2760  -47.9290  -51.7880 C.3    47  ILE47       0.0276
     13  CG1       26.3980  -46.6270  -50.9970 C.3    47  ILE47       0.0022
     14  CG2       26.4220  -47.6490  -53.2730 C.3    47  ILE47       0.0022
     15  CD1       27.7280  -45.9210  -51.1580 C.3    47  ILE47       0.0001
     16  N         21.0260  -50.6300  -52.6870 N.3    50  VAL50      -0.1245
     17  CA        20.2280  -49.7720  -53.5580 C.3    50  VAL50       0.1561
     18  C         20.2030  -50.3320  -54.9750 C.2    50  VAL50       0.2260
     19  O         19.1380  -50.4500  -55.5840 O.2    50  VAL50      -0.2867
     20  CB        20.7630  -48.3290  -53.5880 C.3    50  VAL50       0.0252
     21  CG1       19.9790  -47.4900  -54.5920 C.3    50  VAL50       0.0019
     22  CG2       20.6860  -47.7140  -52.2050 C.3    50  VAL50       0.0019
     23  N         16.8990  -51.8890  -56.9970 N.3    54  LYS54      -0.1245
     24  CA        16.4910  -51.3970  -58.3090 C.3    54  LYS54       0.1561
     25  C         16.4050  -52.5150  -59.3470 C.2    54  LYS54       0.2260
     26  O         15.7840  -52.3450  -60.3940 O.2    54  LYS54      -0.2867
     27  CB        17.4470  -50.3020  -58.7960 C.3    54  LYS54       0.0271
     28  CG        17.4570  -49.0630  -57.9090 C.3    54  LYS54       0.0035
     29  CD        17.8980  -47.8170  -58.6660 C.3    54  LYS54       0.0206
     30  CE        19.2850  -47.9700  -59.2630 C.3    54  LYS54       0.1093
     31  NZ        19.7230  -46.7130  -59.9290 N.3    54  LYS54      -0.1314
     32  N         10.1570  -52.6150  -58.5150 N.3    59  PHE59      -0.1227
     33  CA        10.6140  -51.6650  -57.5020 C.3    59  PHE59       0.1736
     34  C         10.8220  -50.2700  -58.0850 C.2    59  PHE59       0.2595
     35  O         10.4160  -49.2770  -57.4830 O.2    59  PHE59      -0.2718
     36  CB        11.9080  -52.1480  -56.8370 C.3    59  PHE59       0.0547
     37  CG        12.3570  -51.2780  -55.6940 C.ar   59  PHE59      -0.0202
     38  CD1       11.7840  -51.4100  -54.4400 C.ar   59  PHE59      -0.0042
     39  CD2       13.3470  -50.3250  -55.8740 C.ar   59  PHE59      -0.0042
     40  CE1       12.1880  -50.6090  -53.3860 C.ar   59  PHE59      -0.0003
     41  CE2       13.7550  -49.5200  -54.8230 C.ar   59  PHE59      -0.0003
     42  CZ        13.1740  -49.6630  -53.5780 C.ar   59  PHE59      -0.0000
     43  N         11.4380  -50.1970  -59.2620 N.am   60  ARG60      -0.1980
     44  CA        11.6980  -48.9060  -59.8960 C.3    60  ARG60       0.1597
     45  C         10.4210  -48.2200  -60.3860 C.2    60  ARG60       0.2287
     46  O         10.4260  -47.0200  -60.6680 O.2    60  ARG60      -0.2864
     47  CB        12.6830  -49.0710  -61.0570 C.3    60  ARG60       0.0334
     48  CG        14.0980  -49.4060  -60.6060 C.3    60  ARG60       0.0492
     49  CD        15.0560  -49.5780  -61.7810 C.3    60  ARG60       0.2205
     50  NE        15.6010  -48.3050  -62.2450 N.pl3  60  ARG60      -0.0865
     51  CZ        16.7950  -48.1690  -62.8160 C.cat  60  ARG60       0.5346
     52  NH1       17.5730  -49.2320  -62.9900 N.pl3  60  ARG60       0.1354
     53  NH2       17.2140  -46.9720  -63.2080 N.pl3  60  ARG60       0.1354
     54  N          9.3800  -42.5190  -56.5120 N.3    64  LEU64      -0.1231
     55  CA        10.7520  -42.3910  -56.0240 C.3    64  LEU64       0.1693
     56  C         10.8060  -42.1580  -54.5140 C.2    64  LEU64       0.2592
     57  O         11.7020  -42.6610  -53.8360 O.2    64  LEU64      -0.2718
     58  CB        11.4880  -41.2590  -56.7430 C.3    64  LEU64       0.0284
     59  CG        13.0000  -41.3120  -56.5110 C.3    64  LEU64       0.0019
     60  CD1       13.6370  -42.3850  -57.3820 C.3    64  LEU64       0.0001
     61  CD2       13.6500  -39.9670  -56.7500 C.3    64  LEU64       0.0001
     62  N          9.8480  -41.3960  -53.9930 N.am   65  ASP65      -0.1974
     63  CA         9.7380  -41.1880  -52.5520 C.3    65  ASP65       0.1709
     64  C          9.5060  -42.5100  -51.8200 C.2    65  ASP65       0.2293
     65  O          9.9910  -42.7020  -50.7050 O.2    65  ASP65      -0.2864
     66  CB         8.6050  -40.2120  -52.2250 C.3    65  ASP65       0.1436
     67  CG         8.9330  -38.7790  -52.6070 C.2    65  ASP65       0.3671
     68  OD1       10.1230  -38.4030  -52.5620 O.co2  65  ASP65      -0.2456
     69  OD2        7.9970  -38.0220  -52.9410 O.co2  65  ASP65      -0.2456
     70  N         10.4820  -45.5960  -52.9510 N.3    67  GLN67      -0.1231
     71  CA        11.7330  -46.3430  -53.0390 C.3    67  GLN67       0.1698
     72  C         12.6780  -45.8990  -51.9400 C.2    67  GLN67       0.2592
     73  O         13.3380  -46.7120  -51.2970 O.2    67  GLN67      -0.2718
     74  CB        12.4030  -46.1430  -54.3960 C.3    67  GLN67       0.0381
     75  CG        11.5800  -46.5770  -55.5850 C.3    67  GLN67       0.0905
     76  CD        12.2800  -46.2920  -56.8960 C.2    67  GLN67       0.2608
     77  OE1       13.4590  -46.6010  -57.0630 O.2    67  GLN67      -0.2717
     78  NE2       11.5590  -45.6890  -57.8330 N.am   67  GLN67      -0.0878
     79  N         12.7320  -44.5890  -51.7380 N.am   68  MET68      -0.1979
     80  CA        13.5880  -44.0010  -50.7270 C.3    68  MET68       0.1605
     81  C         13.1400  -44.4190  -49.3400 C.2    68  MET68       0.2287
     82  O         13.9410  -44.8700  -48.5230 O.2    68  MET68      -0.2864
     83  CB        13.5700  -42.4840  -50.8450 C.3    68  MET68       0.0413
     84  CG        14.7610  -41.8100  -50.2240 C.3    68  MET68       0.0598
     85  SD        14.6600  -40.0380  -50.4570 S.3    68  MET68      -0.1393
     86  CE        14.2760  -40.0330  -52.2020 C.3    68  MET68       0.0692
     87  N         13.8610  -48.1500  -48.3410 N.3    71  LEU71      -0.1231
     88  CA        15.2620  -48.4110  -48.0390 C.3    71  LEU71       0.1693
     89  C         15.6850  -47.7590  -46.7220 C.2    71  LEU71       0.2591
     90  O         16.4880  -48.3200  -45.9800 O.2    71  LEU71      -0.2718
     91  CB        16.1480  -47.9360  -49.1910 C.3    71  LEU71       0.0284
     92  CG        16.0810  -48.8550  -50.4140 C.3    71  LEU71       0.0019
     93  CD1       16.4400  -48.1170  -51.6960 C.3    71  LEU71       0.0001
     94  CD2       16.9870  -50.0580  -50.2190 C.3    71  LEU71       0.0001
     95  N         15.1320  -46.5860  -46.4270 N.am   72  GLN72      -0.1979
     96  CA        15.4000  -45.9160  -45.1530 C.3    72  GLN72       0.1601
     97  C         14.8850  -46.7200  -43.9630 C.2    72  GLN72       0.2287
     98  O         15.5390  -46.7910  -42.9210 O.2    72  GLN72      -0.2864
     99  CB        14.7640  -44.5300  -45.1220 C.3    72  GLN72       0.0394
    100  CG        15.3520  -43.5330  -46.0850 C.3    72  GLN72       0.0908
    101  CD        14.4520  -42.3310  -46.2570 C.2    72  GLN72       0.2608
    102  OE1       13.4590  -42.1800  -45.5450 O.2    72  GLN72      -0.2717
    103  NE2       14.7840  -41.4740  -47.2080 N.am   72  GLN72      -0.0878
    104  N         28.7470  -41.0020  -45.0820 N.3   226  GLU226     -0.1231
    105  CA        27.6290  -40.1340  -45.4450 C.3   226  GLU226      0.1699
    106  C         26.3150  -40.9010  -45.5860 C.2   226  GLU226      0.2592
    107  O         25.2780  -40.4550  -45.1030 O.2   226  GLU226     -0.2718
    108  CB        27.9210  -39.3910  -46.7510 C.3   226  GLU226      0.0402
    109  CG        26.8660  -38.3490  -47.1060 C.3   226  GLU226      0.1161
    110  CD        27.0380  -37.7830  -48.5030 C.2   226  GLU226      0.3649
    111  OE1       26.1750  -36.9890  -48.9360 O.co2 226  GLU226     -0.2457
    112  OE2       28.0350  -38.1330  -49.1690 O.co2 226  GLU226     -0.2457
    113  N         26.3710  -42.0550  -46.2420 N.am  227  MET227     -0.1979
    114  CA        25.1690  -42.8490  -46.4870 C.3   227  MET227      0.1605
    115  C         24.4000  -43.1740  -45.2040 C.2   227  MET227      0.2287
    116  O         23.1940  -42.9400  -45.1240 O.2   227  MET227     -0.2864
    117  CB        25.5220  -44.1460  -47.2140 C.3   227  MET227      0.0413
    118  CG        24.3190  -45.0460  -47.4400 C.3   227  MET227      0.0598
    119  SD        23.0620  -44.2460  -48.4570 S.3   227  MET227     -0.1393
    120  CE        23.8560  -44.3520  -50.0430 C.3   227  MET227      0.0692
    121  N         23.2010  -39.8660  -43.1070 N.3   230  GLU230     -0.1231
    122  CA        22.0220  -39.2060  -43.6560 C.3   230  GLU230      0.1699
    123  C         20.7510  -39.9890  -43.3370 C.2   230  GLU230      0.2592
    124  O         19.7430  -39.4080  -42.9350 O.2   230  GLU230     -0.2718
    125  CB        22.1700  -39.0190  -45.1650 C.3   230  GLU230      0.0402
    126  CG        23.3040  -38.0820  -45.5440 C.3   230  GLU230      0.1161
    127  CD        23.3990  -37.8350  -47.0370 C.2   230  GLU230      0.3649
    128  OE1       22.9860  -38.7150  -47.8210 O.co2 230  GLU230     -0.2457
    129  OE2       23.8910  -36.7530  -47.4250 O.co2 230  GLU230     -0.2457
    130  N         20.8060  -41.3060  -43.5070 N.am  231  ILE231     -0.1980
    131  CA        19.6530  -42.1510  -43.2210 C.3   231  ILE231      0.1595
    132  C         19.2920  -42.0980  -41.7410 C.2   231  ILE231      0.2287
    133  O         18.1310  -41.8950  -41.3860 O.2   231  ILE231     -0.2864
    134  CB        19.9050  -43.6090  -43.6380 C.3   231  ILE231      0.0276
    135  CG1       20.0380  -43.7090  -45.1590 C.3   231  ILE231      0.0022
    136  CG2       18.7690  -44.4970  -43.1640 C.3   231  ILE231      0.0022
    137  CD1       20.5010  -45.0680  -45.6400 C.3   231  ILE231      0.0001
    138  N         17.7190  -38.8290  -40.6910 N.3   234  ASN234     -0.1240
    139  CA        16.3570  -38.6910  -41.1870 C.3   234  ASN234      0.1653
    140  C         15.3600  -39.5880  -40.4570 C.2   234  ASN234      0.2266
    141  O         14.1750  -39.2650  -40.3730 O.2   234  ASN234     -0.2867
    142  CB        16.3170  -38.9870  -42.6850 C.3   234  ASN234      0.1155
    143  CG        14.9310  -38.8240  -43.2740 C.2   234  ASN234      0.2627
    144  OD1       14.1660  -39.7850  -43.3700 O.2   234  ASN234     -0.2716
    145  ND2       14.6030  -37.6040  -43.6830 N.am  234  ASN234     -0.0877
@<TRIPOS>BOND
     1    53    51    1
     2    52    51    1
     3    51    50    2
     4    50    49    1
     5    49    48    1
     6    47    48    1
     7    47    44    1
     8    46    45    2
     9    26    25    2
    10    45    44    1
    11    31    30    1
    12    44    43    1
    13    25    24    1
    14    30    29    1
    15    43    34   am
    16    27    24    1
    17    27    28    1
    18    29    28    1
    19    32    33    1
    20    24    23    1
    21    34    33    1
    22    34    35    2
    23    78    76   am
    24    33    36    1
    25    60    59    1
    26    77    76    2
    27    76    75    1
    28    36    37    1
    29    61    59    1
    30    58    59    1
    31    58    55    1
    32    54    55    1
    33    55    56    1
    34    39    37   ar
    35    39    41   ar
    36    37    38   ar
    37    75    74    1
    38    19    18    2
    39    18    17    1
    40    41    42   ar
    41    21    20    1
    42    56    62   am
    43    56    57    2
    44    38    40   ar
    45    74    71    1
    46    62    63    1
    47    20    17    1
    48    20    22    1
    49    42    40   ar
    50    17    16    1
    51    11    10    2
    52    14    12    1
    53    71    70    1
    54    71    72    1
    55    69    67   ar
    56    67    68   ar
    57    67    66    1
    58    63    66    1
    59    63    64    1
    60    10     9    1
    61    86    85    1
    62    72    79   am
    63    72    73    2
    64    64    65    2
    65    12     9    1
    66    12    13    1
    67    79    80    1
    68    93    92    1
    69     9     8    1
    70    15    13    1
    71    83    80    1
    72    83    84    1
    73    80    81    1
    74    85    84    1
    75    92    94    1
    76    92    91    1
    77     4     3    2
    78     8     3   am
    79   120   119    1
    80     3     2    1
    81    81    82    2
    82    91    88    1
    83   112   110   ar
    84   111   110   ar
    85   110   109    1
    86   119   118    1
    87    87    88    1
    88     2     1    1
    89     2     5    1
    90    88    89    1
    91   128   127   ar
    92     6     5    1
    93   118   117    1
    94   129   127   ar
    95   117   114    1
    96   103   101   am
    97     5     7    1
    98   109   108    1
    99   127   126    1
   100   108   105    1
   101    89    95   am
   102    89    90    2
   103   114   113    1
   104   114   115    1
   105    95    96    1
   106   101   100    1
   107   101   102    2
   108   113   106   am
   109   100    99    1
   110   137   135    1
   111   106   105    1
   112   106   107    2
   113   126   125    1
   114   105   104    1
   115   115   116    2
   116   125   122    1
   117   135   134    1
   118    96    99    1
   119    96    97    1
   120    97    98    2
   121   145   143   am
   122   122   123    1
   123   122   121    1
   124   134   131    1
   125   134   136    1
   126   130   123   am
   127   130   131    1
   128   144   143    2
   129   123   124    2
   130   143   142    1
   131   131   132    1
   132   142   139    1
   133   132   133    2
   134   139   138    1
   135   139   140    1
   136   140   141    2
