@<TRIPOS>MOLECULE
tmp/4p6wA01.pdb
 217 203 0 0 0
SMALL
GASTEIGER

@<TRIPOS>ATOM
      1  N         36.9160  -51.2110  -34.5930 N.3    34  ILE34      -0.1231
      2  CA        36.0180  -52.1940  -35.1830 C.3    34  ILE34       0.1692
      3  C         34.6900  -51.5650  -35.5980 C.2    34  ILE34       0.2591
      4  O         34.2210  -51.7830  -36.7150 O.2    34  ILE34      -0.2718
      5  CB        35.7620  -53.3590  -34.2110 C.3    34  ILE34       0.0266
      6  CG1       37.0090  -54.2370  -34.1290 C.3    34  ILE34       0.0019
      7  CG2       34.5590  -54.1850  -34.6560 C.3    34  ILE34       0.0020
      8  CD1       36.9040  -55.3590  -33.1370 C.3    34  ILE34       0.0001
      9  N         34.0960  -50.7750  -34.7080 N.am   35  MET35      -0.1979
     10  CA        32.8180  -50.1280  -34.9920 C.3    35  MET35       0.1605
     11  C         32.9060  -49.1700  -36.1770 C.2    35  MET35       0.2287
     12  O         32.0320  -49.1630  -37.0440 O.2    35  MET35      -0.2864
     13  CB        32.3090  -49.3870  -33.7560 C.3    35  MET35       0.0413
     14  CG        31.8680  -50.3100  -32.6290 C.3    35  MET35       0.0598
     15  SD        31.1110  -49.4280  -31.2550 S.3    35  MET35      -0.1393
     16  CE        30.4540  -50.7860  -30.2870 C.3    35  MET35       0.0692
     17  N         33.2350  -51.1530  -39.3500 N.3    38  LEU38      -0.1231
     18  CA        31.9710  -51.7960  -39.6940 C.3    38  LEU38       0.1693
     19  C         30.9700  -50.7820  -40.2410 C.2    38  LEU38       0.2592
     20  O         30.2110  -51.0910  -41.1570 O.2    38  LEU38      -0.2718
     21  CB        31.3920  -52.5250  -38.4800 C.3    38  LEU38       0.0284
     22  CG        32.1310  -53.8160  -38.1210 C.3    38  LEU38       0.0019
     23  CD1       31.5920  -54.4310  -36.8390 C.3    38  LEU38       0.0001
     24  CD2       32.0460  -54.8030  -39.2720 C.3    38  LEU38       0.0001
     25  N         30.9740  -49.5750  -39.6840 N.am   39  ASN39      -0.1974
     26  CA        30.1270  -48.5010  -40.1930 C.3    39  ASN39       0.1688
     27  C         30.4530  -48.1620  -41.6420 C.2    39  ASN39       0.2292
     28  O         29.5540  -47.9710  -42.4580 O.2    39  ASN39      -0.2864
     29  CB        30.2630  -47.2440  -39.3330 C.3    39  ASN39       0.1181
     30  CG        29.3890  -47.2820  -38.1000 C.2    39  ASN39       0.2629
     31  OD1       28.5190  -48.1400  -37.9690 O.2    39  ASN39      -0.2716
     32  ND2       29.6060  -46.3400  -37.1920 N.am   39  ASN39      -0.0877
     33  N         31.9720  -50.1710  -43.7760 N.3    41  LEU41      -0.1231
     34  CA        31.5600  -51.3480  -44.5330 C.3    41  LEU41       0.1693
     35  C         30.0520  -51.3180  -44.7620 C.2    41  LEU41       0.2592
     36  O         29.5760  -51.6050  -45.8600 O.2    41  LEU41      -0.2718
     37  CB        31.9640  -52.6340  -43.8060 C.3    41  LEU41       0.0284
     38  CG        31.4000  -53.9530  -44.3470 C.3    41  LEU41       0.0019
     39  CD1       31.8840  -54.2340  -45.7650 C.3    41  LEU41       0.0001
     40  CD2       31.7440  -55.1120  -43.4200 C.3    41  LEU41       0.0001
     41  N         29.3120  -50.9530  -43.7200 N.am   42  GLY42      -0.1957
     42  CA        27.8640  -50.8680  -43.7870 C.3    42  GLY42       0.1869
     43  C         27.3940  -49.8830  -44.8340 C.2    42  GLY42       0.2309
     44  O         26.4690  -50.1700  -45.5910 O.2    42  GLY42      -0.2863
     45  N         27.7460  -51.5030  -48.1310 N.3    45  GLN45      -0.1245
     46  CA        26.7710  -52.5760  -48.2940 C.3    45  GLN45       0.1566
     47  C         25.3950  -52.0060  -48.6230 C.2    45  GLN45       0.2260
     48  O         24.6480  -52.5770  -49.4200 O.2    45  GLN45      -0.2867
     49  CB        26.6950  -53.4350  -47.0340 C.3    45  GLN45       0.0367
     50  CG        27.9070  -54.3150  -46.7940 C.3    45  GLN45       0.0905
     51  CD        27.7940  -55.0930  -45.4930 C.2    45  GLN45       0.2608
     52  OE1       26.8870  -54.8550  -44.6940 O.2    45  GLN45      -0.2717
     53  NE2       28.7140  -56.0240  -45.2750 N.am   45  GLN45      -0.0878
     54  N         16.9840  -50.6620  -44.0590 N.3    75  TRP75      -0.1227
     55  CA        18.4070  -50.8870  -44.3080 C.3    75  TRP75       0.1737
     56  C         19.0430  -51.7410  -43.2110 C.2    75  TRP75       0.2595
     57  O         19.8310  -52.6380  -43.5050 O.2    75  TRP75      -0.2718
     58  CB        19.1600  -49.5570  -44.4610 C.3    75  TRP75       0.0564
     59  CG        19.3740  -48.7930  -43.1890 C.ar   75  TRP75       0.0003
     60  CD1       18.5470  -47.8570  -42.6490 C.ar   75  TRP75       0.0946
     61  CD2       20.5010  -48.8910  -42.3090 C.ar   75  TRP75       0.0152
     62  NE1       19.0830  -47.3660  -41.4830 N.ar   75  TRP75      -0.2442
     63  CE2       20.2830  -47.9850  -41.2520 C.ar   75  TRP75       0.0810
     64  CE3       21.6720  -49.6590  -42.3090 C.ar   75  TRP75       0.0012
     65  CZ2       21.1890  -47.8260  -40.2080 C.ar   75  TRP75       0.0191
     66  CZ3       22.5700  -49.5010  -41.2710 C.ar   75  TRP75       0.0001
     67  CH2       22.3230  -48.5900  -40.2350 C.ar   75  TRP75       0.0015
     68  N         18.6770  -51.4880  -41.9570 N.am   76  MET76      -0.1979
     69  CA        19.2160  -52.2690  -40.8450 C.3    76  MET76       0.1605
     70  C         18.7330  -53.7170  -40.9070 C.2    76  MET76       0.2287
     71  O         19.5010  -54.6460  -40.6430 O.2    76  MET76      -0.2864
     72  CB        18.8310  -51.6390  -39.5040 C.3    76  MET76       0.0413
     73  CG        19.4060  -52.3680  -38.2930 C.3    76  MET76       0.0598
     74  SD        21.2260  -52.3670  -38.2610 S.3    76  MET76      -0.1393
     75  CE        21.5320  -50.7930  -37.4500 C.3    76  MET76       0.0692
     76  N         20.7260  -55.4100  -43.6510 N.3    79  MET79      -0.1230
     77  CA        22.1170  -55.6200  -43.2640 C.3    79  MET79       0.1702
     78  C         22.2460  -56.7270  -42.2160 C.2    79  MET79       0.2592
     79  O         23.1130  -57.5940  -42.3290 O.2    79  MET79      -0.2718
     80  CB        22.7380  -54.3190  -42.7410 C.3    79  MET79       0.0401
     81  CG        22.8650  -53.2130  -43.7890 C.3    79  MET79       0.0596
     82  SD        23.7030  -53.7480  -45.2930 S.3    79  MET79      -0.1393
     83  CE        22.3360  -53.9400  -46.4340 C.3    79  MET79       0.0692
     84  N         21.3810  -56.6990  -41.2070 N.am   80  ALA80      -0.1980
     85  CA        21.4310  -57.6980  -40.1410 C.3    80  ALA80       0.1597
     86  C         21.0740  -59.0970  -40.6470 C.2    80  ALA80       0.2287
     87  O         21.6420  -60.0940  -40.1930 O.2    80  ALA80      -0.2864
     88  CB        20.5090  -57.2970  -38.9970 C.3    80  ALA80       0.0319
     89  N         23.9940  -60.4490  -42.6190 N.3    83  LEU83      -0.1245
     90  CA        25.0120  -60.7980  -41.6310 C.3    83  LEU83       0.1561
     91  C         24.7060  -62.1530  -41.0030 C.2    83  LEU83       0.2260
     92  O         25.5860  -63.0060  -40.8820 O.2    83  LEU83      -0.2867
     93  CB        25.1030  -59.7280  -40.5430 C.3    83  LEU83       0.0270
     94  CG        25.9480  -60.1070  -39.3220 C.3    83  LEU83       0.0019
     95  CD1       27.3940  -60.3840  -39.7260 C.3    83  LEU83       0.0001
     96  CD2       25.8750  -59.0210  -38.2620 C.3    83  LEU83       0.0001
     97  N         25.4570  -64.9920  -43.6220 N.3    86  ARG86      -0.1245
     98  CA        26.8820  -65.2730  -43.7750 C.3    86  ARG86       0.1563
     99  C         27.4230  -66.0280  -42.5630 C.2    86  ARG86       0.2260
    100  O         28.2070  -66.9670  -42.7040 O.2    86  ARG86      -0.2867
    101  CB        27.6760  -63.9790  -43.9810 C.3    86  ARG86       0.0307
    102  CG        27.4120  -63.2820  -45.3060 C.3    86  ARG86       0.0489
    103  CD        28.4190  -62.1700  -45.5660 C.3    86  ARG86       0.2205
    104  NE        28.4060  -61.1440  -44.5250 N.pl3  86  ARG86      -0.0865
    105  CZ        27.5950  -60.0920  -44.5220 C.cat  86  ARG86       0.5346
    106  NH1       26.7180  -59.9260  -45.5050 N.pl3  86  ARG86       0.1354
    107  NH2       27.6540  -59.2060  -43.5370 N.pl3  86  ARG86       0.1354
    108  N         31.0970  -60.6080  -40.4560 N.3    98  PHE98      -0.1241
    109  CA        30.7970  -59.3280  -41.0920 C.3    98  PHE98       0.1605
    110  C         31.4210  -59.2550  -42.4760 C.2    98  PHE98       0.2264
    111  O         30.8240  -58.7270  -43.4130 O.2    98  PHE98      -0.2867
    112  CB        31.2930  -58.1680  -40.2340 C.3    98  PHE98       0.0534
    113  CG        30.6450  -58.0990  -38.8910 C.ar   98  PHE98      -0.0203
    114  CD1       31.2120  -58.7340  -37.8070 C.ar   98  PHE98      -0.0042
    115  CD2       29.4590  -57.4130  -38.7170 C.ar   98  PHE98      -0.0042
    116  CE1       30.6170  -58.6830  -36.5700 C.ar   98  PHE98      -0.0003
    117  CE2       28.8520  -57.3520  -37.4800 C.ar   98  PHE98      -0.0003
    118  CZ        29.4370  -57.9810  -36.3960 C.ar   98  PHE98      -0.0000
    119  N         34.0940  -61.8100  -36.0140 N.3   104  ILE104     -0.1245
    120  CA        34.0800  -61.6680  -34.5670 C.3   104  ILE104      0.1561
    121  C         33.6520  -62.9720  -33.9030 C.2   104  ILE104      0.2260
    122  O         32.4880  -63.3730  -33.9710 O.2   104  ILE104     -0.2867
    123  CB        33.1620  -60.5170  -34.1290 C.3   104  ILE104      0.0252
    124  CG1       33.7400  -59.1900  -34.6260 C.3   104  ILE104      0.0019
    125  CG2       33.0090  -60.4980  -32.6170 C.3   104  ILE104      0.0019
    126  CD1       32.9450  -57.9820  -34.2240 C.3   104  ILE104      0.0001
    127  N         30.5360  -54.6840  -26.5610 N.3   114  MET114     -0.1245
    128  CA        30.2600  -55.5120  -27.7320 C.3   114  MET114      0.1570
    129  C         29.4270  -56.7650  -27.4690 C.2   114  MET114      0.2261
    130  O         28.8880  -57.3490  -28.4090 O.2   114  MET114     -0.2867
    131  CB        31.5700  -55.9190  -28.4030 C.3   114  MET114      0.0387
    132  CG        32.0980  -54.8790  -29.3710 C.3   114  MET114      0.0595
    133  SD        33.4570  -55.5080  -30.3640 S.3   114  MET114     -0.1393
    134  CE        32.8110  -57.1130  -30.8230 C.3   114  MET114      0.0692
    135  N         25.2990  -56.3790  -28.0440 N.3   117  GLN117     -0.1231
    136  CA        25.0160  -56.1390  -29.4550 C.3   117  GLN117      0.1698
    137  C         25.2210  -57.3970  -30.2840 C.2   117  GLN117      0.2592
    138  O         24.3750  -57.7540  -31.1060 O.2   117  GLN117     -0.2718
    139  CB        25.8960  -55.0130  -30.0030 C.3   117  GLN117      0.0381
    140  CG        25.3980  -53.6240  -29.6750 C.3   117  GLN117      0.0905
    141  CD        25.3280  -53.3800  -28.1830 C.2   117  GLN117      0.2608
    142  OE1       24.2430  -53.2510  -27.6130 O.2   117  GLN117     -0.2717
    143  NE2       26.4890  -53.3200  -27.5380 N.am  117  GLN117     -0.0878
    144  N         26.3480  -58.0650  -30.0690 N.am  118  CYS118     -0.1970
    145  CA        26.6530  -59.2840  -30.8020 C.3   118  CYS118      0.1712
    146  C         25.6180  -60.3700  -30.5290 C.2   118  CYS118      0.2296
    147  O         25.2920  -61.1580  -31.4130 O.2   118  CYS118     -0.2864
    148  CB        28.0510  -59.7860  -30.4470 C.3   118  CYS118      0.0983
    149  SG        29.3910  -58.7740  -31.1330 S.3   118  CYS118     -0.0798
    150  N         22.6030  -59.7690  -32.6280 N.3   121  MET121     -0.1245
    151  CA        22.9130  -60.1100  -34.0110 C.3   121  MET121      0.1570
    152  C         23.0100  -61.6180  -34.2110 C.2   121  MET121      0.2261
    153  O         22.6170  -62.1410  -35.2520 O.2   121  MET121     -0.2867
    154  CB        24.2170  -59.4370  -34.4470 C.3   121  MET121      0.0387
    155  CG        24.0760  -57.9460  -34.6960 C.3   121  MET121      0.0595
    156  SD        25.6340  -57.1500  -35.1300 S.3   121  MET121     -0.1393
    157  CE        26.1170  -56.4670  -33.5480 C.3   121  MET121      0.0692
    158  N         19.0060  -53.0460  -32.4610 N.3   207  LEU207     -0.1245
    159  CA        20.2210  -52.6060  -33.1380 C.3   207  LEU207      0.1561
    160  C         20.1790  -51.1140  -33.4620 C.2   207  LEU207      0.2260
    161  O         21.1960  -50.4250  -33.3620 O.2   207  LEU207     -0.2867
    162  CB        20.4470  -53.4190  -34.4160 C.3   207  LEU207      0.0270
    163  CG        20.6610  -54.9230  -34.2360 C.3   207  LEU207      0.0019
    164  CD1       20.8300  -55.6180  -35.5810 C.3   207  LEU207      0.0001
    165  CD2       21.8520  -55.2000  -33.3320 C.3   207  LEU207      0.0001
    166  N         20.7740  -48.8250  -30.3160 N.3   210  TYR210     -0.1227
    167  CA        22.1810  -48.7070  -29.9830 C.3   210  TYR210      0.1736
    168  C         22.9240  -47.9030  -31.0500 C.2   210  TYR210      0.2595
    169  O         23.8310  -47.1330  -30.7310 O.2   210  TYR210     -0.2718
    170  CB        22.8090  -50.0870  -29.8140 C.3   210  TYR210      0.0548
    171  CG        24.1890  -50.0330  -29.2210 C.ar  210  TYR210     -0.0200
    172  CD1       25.2940  -49.7590  -30.0330 C.ar  210  TYR210     -0.0009
    173  CD2       24.3980  -50.2420  -27.8510 C.ar  210  TYR210     -0.0009
    174  CE1       26.5700  -49.7240  -29.5190 C.ar  210  TYR210      0.0417
    175  CE2       25.6680  -50.1830  -27.3210 C.ar  210  TYR210      0.0417
    176  CZ        26.7500  -49.9010  -28.1590 C.ar  210  TYR210      0.1957
    177  OH        28.0270  -49.8460  -27.6460 O.3   210  TYR210     -0.2866
    178  N         22.5370  -48.0820  -32.3100 N.am  211  CYS211     -0.1970
    179  CA        23.1330  -47.3290  -33.4110 C.3   211  CYS211      0.1712
    180  C         22.8800  -45.8330  -33.2450 C.2   211  CYS211      0.2296
    181  O         23.7940  -45.0200  -33.3740 O.2   211  CYS211     -0.2864
    182  CB        22.5830  -47.8130  -34.7560 C.3   211  CYS211      0.0983
    183  SG        23.1530  -46.8750  -36.1940 S.3   211  CYS211     -0.0798
    184  N         24.9270  -44.4540  -30.2950 N.3   214  THR214     -0.1218
    185  CA        26.3240  -44.2790  -30.6710 C.3   214  THR214      0.1862
    186  C         26.5020  -43.0740  -31.5900 C.2   214  THR214      0.2287
    187  O         27.4400  -42.2920  -31.4340 O.2   214  THR214     -0.2866
    188  CB        26.8740  -45.5300  -31.3730 C.3   214  THR214      0.1770
    189  OG1       26.7280  -46.6640  -30.5110 O.3   214  THR214     -0.2211
    190  CG2       28.3360  -45.3450  -31.7140 C.3   214  THR214      0.0375
    191  N         33.3270  -42.3410  -32.9480 N.3   222  ILE222     -0.1245
    192  CA        33.1090  -43.3930  -33.9330 C.3   222  ILE222      0.1561
    193  C         32.5820  -42.7650  -35.2190 C.2   222  ILE222      0.2260
    194  O         31.6530  -41.9570  -35.1860 O.2   222  ILE222     -0.2867
    195  CB        32.1240  -44.4560  -33.4110 C.3   222  ILE222      0.0252
    196  CG1       32.7200  -45.1540  -32.1890 C.3   222  ILE222      0.0019
    197  CG2       31.7880  -45.4680  -34.4990 C.3   222  ILE222      0.0019
    198  CD1       31.7590  -46.0460  -31.4640 C.3   222  ILE222      0.0001
    199  N         30.8930  -42.4610  -39.0500 N.3   224  PHE224     -0.1241
    200  CA        29.8540  -42.9840  -39.9320 C.3   224  PHE224      0.1605
    201  C         30.0590  -42.4100  -41.3340 C.2   224  PHE224      0.2264
    202  O         30.4100  -41.2390  -41.4740 O.2   224  PHE224     -0.2867
    203  CB        28.4550  -42.6160  -39.4220 C.3   224  PHE224      0.0534
    204  CG        28.0740  -43.2790  -38.1240 C.ar  224  PHE224     -0.0203
    205  CD1       28.6450  -42.8790  -36.9260 C.ar  224  PHE224     -0.0042
    206  CD2       27.1180  -44.2830  -38.1020 C.ar  224  PHE224     -0.0042
    207  CE1       28.2870  -43.4830  -35.7330 C.ar  224  PHE224     -0.0003
    208  CE2       26.7510  -44.8890  -36.9120 C.ar  224  PHE224     -0.0003
    209  CZ        27.3380  -44.4880  -35.7260 C.ar  224  PHE224     -0.0000
    210  N         25.0920  -43.7070  -44.2030 N.3   228  LEU228     -0.1245
    211  CA        24.4310  -44.0760  -42.9560 C.3   228  LEU228      0.1561
    212  C         24.0480  -42.8450  -42.1430 C.2   228  LEU228      0.2260
    213  O         22.9720  -42.8030  -41.5490 O.2   228  LEU228     -0.2867
    214  CB        25.3170  -45.0000  -42.1190 C.3   228  LEU228      0.0270
    215  CG        25.7110  -46.3460  -42.7310 C.3   228  LEU228      0.0019
    216  CD1       26.2640  -47.2700  -41.6580 C.3   228  LEU228      0.0001
    217  CD2       24.5390  -46.9930  -43.4560 C.3   228  LEU228      0.0001
@<TRIPOS>BOND
     1    48    47    2
     2    47    46    1
     3    46    45    1
     4    46    49    1
     5    49    50    1
     6    50    51    1
     7    83    82    1
     8    36    35    2
     9    39    38    1
    10    44    43    2
    11   103   102    1
    12   103   104    1
    13   106   105    1
    14    51    53   am
    15    51    52    2
    16   102   101    1
    17    82    81    1
    18    43    42    1
    19    35    34    1
    20    35    41   am
    21    34    37    1
    22    34    33    1
    23   104   105    2
    24   105   107    1
    25    58    55    1
    26    58    59    1
    27    38    37    1
    28    38    40    1
    29    55    54    1
    30    55    56    1
    31   210   211    1
    32   101    98    1
    33    81    80    1
    34    42    41    1
    35    98    97    1
    36    98    99    1
    37    76    77    1
    38    57    56    2
    39   217   215    1
    40   111   110    2
    41    77    80    1
    42    77    78    1
    43    56    68   am
    44    59    60   ar
    45    59    61   ar
    46   211   212    1
    47   211   214    1
    48   215   214    1
    49   215   216    1
    50   100    99    2
    51    60    62   ar
    52    89    90    1
    53   110   109    1
    54    28    27    2
    55    79    78    2
    56    61    64   ar
    57    61    63   ar
    58    64    66   ar
    59    78    84   am
    60   212   213    2
    61    68    69    1
    62    27    26    1
    63    90    91    1
    64    90    93    1
    65    62    63   ar
    66   202   201    2
    67   201   200    1
    68    66    67   ar
    69    63    65   ar
    70    84    85    1
    71    20    19    2
    72   109   108    1
    73   109   112    1
    74    91    92    2
    75    70    69    1
    76    70    71    2
    77    69    72    1
    78    86    87    2
    79    86    85    1
    80    93    94    1
    81    19    18    1
    82    19    25   am
    83    67    65   ar
    84   112   113    1
    85    26    25    1
    86    26    29    1
    87    85    88    1
    88   200   203    1
    89   200   199    1
    90    95    94    1
    91    18    17    1
    92    18    21    1
    93    72    73    1
    94   203   204    1
    95    29    30    1
    96    94    96    1
    97    24    22    1
    98   113   115   ar
    99   113   114   ar
   100   115   117   ar
   101    21    22    1
   102    73    74    1
   103    74    75    1
   104   204   206   ar
   105   204   205   ar
   106    22    23    1
   107   206   208   ar
   108    30    31    2
   109    30    32   am
   110   114   116   ar
   111   117   118   ar
   112    12    11    2
   113   205   207   ar
   114   208   209   ar
   115     4     3    2
   116   116   118   ar
   117   183   182    1
   118    11    10    1
   119   119   120    1
   120   207   209   ar
   121     3     2    1
   122     3     9   am
   123   164   163    1
   124   153   152    2
   125   193   194    2
   126   193   192    1
   127     2     1    1
   128     2     5    1
   129   156   155    1
   130   156   157    1
   131    10     9    1
   132    10    13    1
   133   182   179    1
   134   155   154    1
   135     7     5    1
   136   124   126    1
   137   124   123    1
   138   120   123    1
   139   120   121    1
   140   197   195    1
   141   154   151    1
   142   162   163    1
   143   162   159    1
   144   163   165    1
   145     5     6    1
   146   152   151    1
   147   123   125    1
   148     6     8    1
   149   151   150    1
   150   122   121    2
   151   192   195    1
   152   192   191    1
   153    13    14    1
   154   160   161    2
   155   160   159    1
   156   179   180    1
   157   179   178    1
   158   195   196    1
   159   181   180    2
   160   159   158    1
   161    14    15    1
   162   178   168   am
   163   196   198    1
   164   190   188    1
   165   186   187    2
   166   186   185    1
   167   147   146    2
   168   188   185    1
   169   188   189    1
   170    15    16    1
   171   149   148    1
   172   138   137    2
   173   168   169    2
   174   168   167    1
   175   134   133    1
   176   145   146    1
   177   145   148    1
   178   145   144    1
   179   185   184    1
   180   133   132    1
   181   166   167    1
   182   137   144   am
   183   137   136    1
   184   172   174   ar
   185   172   171   ar
   186   139   140    1
   187   139   136    1
   188   167   170    1
   189   170   171    1
   190   140   141    1
   191   174   176   ar
   192   136   135    1
   193   132   131    1
   194   171   173   ar
   195   130   129    2
   196   131   128    1
   197   141   142    2
   198   141   143   am
   199   176   177    1
   200   176   175   ar
   201   173   175   ar
   202   128   129    1
   203   128   127    1
