@<TRIPOS>MOLECULE
tmp/4p6zC00.pdb
 230 232 0 0 0
SMALL
GASTEIGER

@<TRIPOS>ATOM
      1  N        -80.2420  -58.3950   68.9640 N.3   164  PHE164     -0.1227
      2  CA       -79.0890  -58.9450   68.2620 C.3   164  PHE164      0.1736
      3  C        -78.0460  -57.8920   68.0270 C.2   164  PHE164      0.2595
      4  O        -78.3630  -56.8020   67.5760 O.2   164  PHE164     -0.2718
      5  CB       -79.5100  -59.5650   66.9410 C.3   164  PHE164      0.0547
      6  CG       -80.4470  -60.7100   67.1230 C.ar  164  PHE164     -0.0202
      7  CD1      -81.8330  -60.4740   67.1970 C.ar  164  PHE164     -0.0042
      8  CD2      -79.9730  -62.0230   67.2950 C.ar  164  PHE164     -0.0042
      9  CE1      -82.6940  -61.5010   67.3770 C.ar  164  PHE164     -0.0003
     10  CE2      -80.8490  -63.0450   67.4510 C.ar  164  PHE164     -0.0003
     11  CZ       -82.2020  -62.7900   67.5030 C.ar  164  PHE164     -0.0000
     12  N        -76.7920  -58.2210   68.3040 N.am  165  LEU165     -0.1966
     13  CA       -75.6910  -57.3130   67.9920 C.3   165  LEU165      0.1728
     14  C        -74.7660  -57.9960   66.9750 C.2   165  LEU165      0.2616
     15  O        -74.2790  -59.1000   67.2060 O.2   165  LEU165     -0.2715
     16  CB       -74.9120  -56.9470   69.2390 C.3   165  LEU165      0.0311
     17  CG       -75.5980  -56.0810   70.2870 C.3   165  LEU165      0.0022
     18  CD1      -76.4750  -56.8840   71.2160 C.3   165  LEU165      0.0001
     19  CD2      -74.5940  -55.3040   71.1160 C.3   165  LEU165      0.0001
     20  N        -74.5260  -57.3280   65.8520 N.am  166  ASP166     -0.1971
     21  CA       -73.4950  -57.7530   64.9230 C.3   166  ASP166      0.1709
     22  C        -72.2930  -56.8590   65.0060 C.2   166  ASP166      0.2293
     23  O        -72.3600  -55.6870   64.6100 O.2   166  ASP166     -0.2864
     24  CB       -74.0300  -57.7930   63.5080 C.3   166  ASP166      0.1436
     25  CG       -74.8930  -58.9820   63.2430 C.2   166  ASP166      0.3671
     26  OD1      -74.7360  -59.6130   62.1810 O.co2 166  ASP166     -0.2456
     27  OD2      -75.7430  -59.2750   64.1020 O.co2 166  ASP166     -0.2456
     28  N        -80.1960  -55.5700   65.7350 N.3   193  ARG193     -0.1245
     29  CA       -81.5930  -55.8050   65.4660 C.3   193  ARG193      0.1563
     30  C        -82.3580  -55.8290   66.8160 C.2   193  ARG193      0.2260
     31  O        -82.2720  -56.7910   67.5830 O.2   193  ARG193     -0.2867
     32  CB       -81.8010  -57.1040   64.7270 C.3   193  ARG193      0.0307
     33  CG       -81.1370  -57.1460   63.3840 C.3   193  ARG193      0.0489
     34  CD       -81.1070  -58.5780   62.8450 C.3   193  ARG193      0.2205
     35  NE       -82.4430  -59.0920   62.5770 N.pl3 193  ARG193     -0.0865
     36  CZ       -83.1150  -58.8830   61.4350 C.cat 193  ARG193      0.5346
     37  NH1      -82.5790  -58.1460   60.4490 N.pl3 193  ARG193      0.1354
     38  NH2      -84.3360  -59.3950   61.2960 N.pl3 193  ARG193      0.1354
     39  N        -63.5700  -67.1200   54.9820 N.3   300  ASN300     -0.1225
     40  CA       -64.4780  -67.6490   53.9890 C.3   300  ASN300      0.1785
     41  C        -64.5680  -66.7420   52.8090 C.2   300  ASN300      0.2597
     42  O        -64.4220  -65.5230   52.9340 O.2   300  ASN300     -0.2718
     43  CB       -65.8930  -67.8040   54.5420 C.3   300  ASN300      0.1169
     44  CG       -65.9540  -68.7380   55.6980 C.2   300  ASN300      0.2627
     45  OD1      -65.1670  -69.6980   55.8110 O.2   300  ASN300     -0.2716
     46  ND2      -66.8940  -68.4540   56.6030 N.am  300  ASN300     -0.0877
     47  N        -64.8620  -67.3380   51.6460 N.am  301  ASN301     -0.1974
     48  CA       -65.1850  -66.6150   50.4270 C.3   301  ASN301      0.1688
     49  C        -64.1740  -65.5690   50.1290 C.2   301  ASN301      0.2292
     50  O        -64.5190  -64.3670   49.9420 O.2   301  ASN301     -0.2864
     51  CB       -66.5700  -65.9990   50.5240 C.3   301  ASN301      0.1181
     52  CG       -67.6280  -67.0260   50.7080 C.2   301  ASN301      0.2629
     53  OD1      -67.5970  -68.1020   50.1470 O.2   301  ASN301     -0.2716
     54  ND2      -68.5640  -66.7150   51.5280 N.am  301  ASN301     -0.0877
     55  N        -63.6510  -62.8140   54.5280 N.3   373  GLU373     -0.1245
     56  CA       -64.6140  -62.7770   55.6250 C.3   373  GLU373      0.1567
     57  C        -64.2690  -63.8330   56.6540 C.2   373  GLU373      0.2260
     58  O        -64.1600  -65.0050   56.3220 O.2   373  GLU373     -0.2867
     59  CB       -65.9840  -63.0310   55.0590 C.3   373  GLU373      0.0388
     60  CG       -67.1100  -62.7610   56.0280 C.3   373  GLU373      0.1160
     61  CD       -68.4640  -63.1330   55.4330 C.2   373  GLU373      0.3649
     62  OE1      -69.4210  -62.3810   55.6960 O.co2 373  GLU373     -0.2457
     63  OE2      -68.5680  -64.1640   54.7150 O.co2 373  GLU373     -0.2457
     64  N        -65.5910  -65.2990   60.2320 N.3   375  PRO375     -0.2102
     65  CA       -66.6470  -65.3510   61.2250 C.3   375  PRO375      0.1504
     66  C        -66.1050  -65.7390   62.5870 C.2   375  PRO375      0.2575
     67  O        -65.0610  -66.4490   62.6760 O.2   375  PRO375     -0.2718
     68  CB       -67.5190  -66.4870   60.7050 C.3   375  PRO375      0.0282
     69  CG       -66.5950  -67.3800   59.9410 C.3   375  PRO375      0.0208
     70  CD       -65.5790  -66.4810   59.3450 C.3   375  PRO375      0.0893
     71  N        -66.8090  -65.3030   63.6410 N.am  376  TYR376     -0.1977
     72  CA       -66.3570  -65.4880   65.0330 C.3   376  TYR376      0.1639
     73  C        -64.9240  -64.9930   65.1720 C.2   376  TYR376      0.2290
     74  O        -64.0380  -65.7830   65.5910 O.2   376  TYR376     -0.2864
     75  CB       -66.4430  -66.9340   65.4380 C.3   376  TYR376      0.0560
     76  CG       -67.5580  -67.6770   64.7580 C.ar  376  TYR376     -0.0198
     77  CD1      -67.2870  -68.6950   63.8350 C.ar  376  TYR376     -0.0009
     78  CD2      -68.8810  -67.3700   65.0370 C.ar  376  TYR376     -0.0009
     79  CE1      -68.3050  -69.3780   63.2130 C.ar  376  TYR376      0.0417
     80  CE2      -69.9190  -68.0810   64.4560 C.ar  376  TYR376      0.0417
     81  CZ       -69.6230  -69.0770   63.5330 C.ar  376  TYR376      0.1957
     82  OH       -70.6260  -69.7740   62.8940 O.3   376  TYR376     -0.2866
     83  N        -68.1820  -56.9370   73.4720 N.3   384  VAL384     -0.1231
     84  CA       -69.3590  -56.3510   74.0970 C.3   384  VAL384      0.1692
     85  C        -69.5910  -57.1380   75.3840 C.2   384  VAL384      0.2592
     86  O        -70.0450  -58.2620   75.3590 O.2   384  VAL384     -0.2718
     87  CB       -70.6020  -56.2630   73.1680 C.3   384  VAL384      0.0266
     88  CG1      -70.7090  -57.4770   72.3300 C.3   384  VAL384      0.0020
     89  CG2      -71.8550  -56.0830   74.0120 C.3   384  VAL384      0.0020
     90  N        -69.2360  -56.5180   76.5020 N.am  385  ARG385     -0.1966
     91  CA       -69.1960  -57.1600   77.7860 C.3   385  ARG385      0.1729
     92  C        -70.5830  -57.3260   78.3750 C.2   385  ARG385      0.2616
     93  O        -70.8380  -58.3220   79.0330 O.2   385  ARG385     -0.2715
     94  CB       -68.3290  -56.3450   78.7300 C.3   385  ARG385      0.0348
     95  CG       -66.8590  -56.3710   78.4640 C.3   385  ARG385      0.0492
     96  CD       -66.1180  -55.5520   79.5090 C.3   385  ARG385      0.2205
     97  NE       -66.3410  -56.0560   80.8810 N.pl3 385  ARG385     -0.0865
     98  CZ       -67.1870  -55.4800   81.7530 C.cat 385  ARG385      0.5346
     99  NH1      -67.8610  -54.3870   81.4010 N.pl3 385  ARG385      0.1354
    100  NH2      -67.3620  -55.9490   82.9620 N.pl3 385  ARG385      0.1354
    101  N        -71.4690  -56.3560   78.1630 N.am  386  TYR386     -0.1960
    102  CA       -72.8560  -56.5000   78.6280 C.3   386  TYR386      0.1771
    103  C        -73.7850  -55.6180   77.8210 C.2   386  TYR386      0.2619
    104  O        -73.3490  -54.5540   77.2670 O.2   386  TYR386     -0.2715
    105  CB       -73.0140  -56.1520   80.0870 C.3   386  TYR386      0.0574
    106  CG       -72.7680  -54.7050   80.4550 C.ar  386  TYR386     -0.0198
    107  CD1      -73.7880  -53.7880   80.4410 C.ar  386  TYR386     -0.0009
    108  CD2      -71.5160  -54.2780   80.8510 C.ar  386  TYR386     -0.0009
    109  CE1      -73.5720  -52.4760   80.7830 C.ar  386  TYR386      0.0417
    110  CE2      -71.2620  -52.9620   81.1970 C.ar  386  TYR386      0.0417
    111  CZ       -72.2840  -52.0600   81.1720 C.ar  386  TYR386      0.1957
    112  OH       -72.0540  -50.7430   81.5480 O.3   386  TYR386     -0.2866
    113  N        -75.0600  -56.0420   77.7590 N.am  387  LEU387     -0.1963
    114  CA       -76.0760  -55.1770   77.1900 C.3   387  LEU387      0.1728
    115  C        -77.2160  -55.1130   78.1520 C.2   387  LEU387      0.2616
    116  O        -78.0090  -56.0270   78.1980 O.2   387  LEU387     -0.2715
    117  CB       -76.5480  -55.6900   75.8220 C.3   387  LEU387      0.0311
    118  CG       -77.6690  -54.8420   75.2240 C.3   387  LEU387      0.0022
    119  CD1      -77.1140  -53.4740   74.8710 C.3   387  LEU387      0.0001
    120  CD2      -78.2520  -55.4940   74.0160 C.3   387  LEU387      0.0001
    121  N        -77.3220  -54.0180   78.8910 N.am  388  LYS388     -0.1963
    122  CA       -78.3650  -53.9040   79.9110 C.3   388  LYS388      0.1728
    123  C        -79.6500  -53.4160   79.2740 C.2   388  LYS388      0.2616
    124  O        -79.6340  -52.4600   78.4660 O.2   388  LYS388     -0.2715
    125  CB       -77.9330  -52.9720   81.0470 C.3   388  LYS388      0.0311
    126  CG       -78.9120  -52.9340   82.1870 C.3   388  LYS388      0.0038
    127  CD       -78.5040  -51.9070   83.2490 C.3   388  LYS388      0.0206
    128  CE       -77.5650  -52.4550   84.3240 C.3   388  LYS388      0.1093
    129  NZ       -76.2040  -52.7590   83.7950 N.3   388  LYS388     -0.1314
    130  N        -80.7640  -54.0800   79.6250 N.am  389  ILE389     -0.1977
    131  CA       -82.0650  -53.6450   79.1360 C.3   389  ILE389      0.1596
    132  C        -82.9320  -53.1940   80.2720 C.2   389  ILE389      0.2287
    133  O        -83.1960  -53.9620   81.1580 O.2   389  ILE389     -0.2864
    134  CB       -82.7640  -54.7310   78.3160 C.3   389  ILE389      0.0276
    135  CG1      -81.8430  -55.1940   77.1840 C.3   389  ILE389      0.0022
    136  CG2      -84.0660  -54.2060   77.7380 C.3   389  ILE389      0.0022
    137  CD1      -82.4680  -56.2350   76.3040 C.3   389  ILE389      0.0001
    138  N        -89.6200  -57.1950   81.7200 N.3   395  TYR395     -0.1227
    139  CA       -89.7370  -58.4790   81.0410 C.3   395  TYR395      0.1736
    140  C        -88.3570  -59.0990   80.7900 C.2   395  TYR395      0.2595
    141  O        -87.3380  -58.4060   80.8020 O.2   395  TYR395     -0.2718
    142  CB       -90.4910  -58.3500   79.7160 C.3   395  TYR395      0.0548
    143  CG       -89.9610  -57.2770   78.7840 C.ar  395  TYR395     -0.0200
    144  CD1      -88.7260  -57.4050   78.1660 C.ar  395  TYR395     -0.0009
    145  CD2      -90.7100  -56.1540   78.5000 C.ar  395  TYR395     -0.0009
    146  CE1      -88.2380  -56.4310   77.3050 C.ar  395  TYR395      0.0417
    147  CE2      -90.2350  -55.1800   77.6440 C.ar  395  TYR395      0.0417
    148  CZ       -88.9910  -55.3280   77.0480 C.ar  395  TYR395      0.1957
    149  OH       -88.5040  -54.3570   76.2210 O.3   395  TYR395     -0.2866
    150  N        -88.3330  -60.4030   80.5650 N.am  396  GLN396     -0.1965
    151  CA       -87.0990  -61.0830   80.2530 C.3   396  GLN396      0.1733
    152  C        -86.7580  -60.7910   78.8220 C.2   396  GLN396      0.2616
    153  O        -87.5680  -60.9960   77.9120 O.2   396  GLN396     -0.2715
    154  CB       -87.2520  -62.6040   80.4520 C.3   396  GLN396      0.0408
    155  CG       -85.9580  -63.4060   80.2870 C.3   396  GLN396      0.0908
    156  CD       -86.1500  -64.8670   79.7450 C.2   396  GLN396      0.2608
    157  OE1      -87.2510  -65.2670   79.3300 O.2   396  GLN396     -0.2717
    158  NE2      -85.0710  -65.6450   79.7480 N.am  396  GLN396     -0.0878
    159  N        -85.5550  -60.2970   78.6070 N.am  397  ALA397     -0.1963
    160  CA       -85.0970  -60.0070   77.2450 C.3   397  ALA397      0.1728
    161  C        -83.6420  -60.3410   77.1160 C.2   397  ALA397      0.2616
    162  O        -82.7980  -59.6790   77.7010 O.2   397  ALA397     -0.2715
    163  CB       -85.3330  -58.5500   76.8850 C.3   397  ALA397      0.0334
    164  N        -83.3510  -61.3880   76.3650 N.am  398  LEU398     -0.1964
    165  CA       -81.9800  -61.8250   76.2060 C.3   398  LEU398      0.1713
    166  C        -81.3340  -61.3040   74.9250 C.2   398  LEU398      0.2458
    167  O        -81.8580  -61.4940   73.8350 O.2   398  LEU398     -0.2730
    168  CB       -81.8830  -63.3570   76.3270 C.3   398  LEU398      0.0310
    169  CG       -83.1270  -64.2070   76.0510 C.3   398  LEU398      0.0022
    170  CD1      -83.6240  -64.0450   74.5810 C.3   398  LEU398      0.0001
    171  CD2      -82.7380  -65.6950   76.3720 C.3   398  LEU398      0.0001
    172  N        -80.1860  -60.6490   75.0730 N.am  399  PRO399     -0.2716
    173  CA       -79.4090  -60.1600   73.9280 C.3   399  PRO399      0.1536
    174  C        -78.4780  -61.2000   73.3610 C.2   399  PRO399      0.2599
    175  O        -78.0510  -62.0970   74.0920 O.2   399  PRO399     -0.2715
    176  CB       -78.5630  -59.0480   74.5550 C.3   399  PRO399      0.0310
    177  CG       -78.4200  -59.4380   76.0050 C.3   399  PRO399      0.0237
    178  CD       -79.6510  -60.1790   76.3600 C.3   399  PRO399      0.0939
    179  N        -78.1630  -61.0890   72.0780 N.am  400  TRP400     -0.1960
    180  CA       -77.2350  -62.0070   71.4070 C.3   400  TRP400      0.1771
    181  C        -76.1630  -61.2560   70.6730 C.2   400  TRP400      0.2620
    182  O        -76.2850  -60.0520   70.4460 O.2   400  TRP400     -0.2715
    183  CB       -77.9820  -62.8830   70.4150 C.3   400  TRP400      0.0590
    184  CG       -79.0930  -63.6770   71.0460 C.ar  400  TRP400      0.0006
    185  CD1      -80.3840  -63.2840   71.2570 C.ar  400  TRP400      0.0946
    186  CD2      -78.9970  -65.0070   71.5390 C.ar  400  TRP400      0.0152
    187  NE1      -81.0760  -64.2780   71.8890 N.ar  400  TRP400     -0.2442
    188  CE2      -80.2460  -65.3520   72.0540 C.ar  400  TRP400      0.0810
    189  CE3      -77.9620  -65.9410   71.6000 C.ar  400  TRP400      0.0012
    190  CZ2      -80.4860  -66.5850   72.6280 C.ar  400  TRP400      0.0191
    191  CZ3      -78.2080  -67.1650   72.1470 C.ar  400  TRP400      0.0001
    192  CH2      -79.4510  -67.4780   72.6600 C.ar  400  TRP400      0.0015
    193  N        -75.0910  -61.9310   70.2850 N.am  401  VAL401     -0.1963
    194  CA       -73.9840  -61.2400   69.6030 C.3   401  VAL401      0.1727
    195  C        -73.1030  -62.1740   68.8030 C.2   401  VAL401      0.2616
    196  O        -72.9890  -63.3690   69.1170 O.2   401  VAL401     -0.2715
    197  CB       -73.1190  -60.4120   70.5840 C.3   401  VAL401      0.0290
    198  CG1      -72.2660  -61.3020   71.4360 C.3   401  VAL401      0.0023
    199  CG2      -72.2580  -59.4200   69.8480 C.3   401  VAL401      0.0023
    200  N        -72.5170  -61.6230   67.7320 N.am  402  ARG402     -0.1963
    201  CA       -71.5470  -62.3650   66.9380 C.3   402  ARG402      0.1729
    202  C        -70.5480  -61.4440   66.3380 C.2   402  ARG402      0.2616
    203  O        -70.8460  -60.2860   66.1220 O.2   402  ARG402     -0.2715
    204  CB       -72.2490  -63.1490   65.8560 C.3   402  ARG402      0.0348
    205  CG       -72.9600  -62.2890   64.8570 C.3   402  ARG402      0.0492
    206  CD       -73.6870  -63.1320   63.8620 C.3   402  ARG402      0.2205
    207  NE       -74.3640  -62.3180   62.8790 N.pl3 402  ARG402     -0.0865
    208  CZ       -75.0140  -62.8160   61.8440 C.cat 402  ARG402      0.5346
    209  NH1      -75.0490  -64.1360   61.6530 N.pl3 402  ARG402      0.1354
    210  NH2      -75.6280  -61.9830   61.0050 N.pl3 402  ARG402      0.1354
    211  N        -69.3340  -61.9310   66.1230 N.am  403  TYR403     -0.1960
    212  CA       -68.2560  -61.0680   65.6270 C.3   403  TYR403      0.1771
    213  C        -67.7630  -61.4930   64.2710 C.2   403  TYR403      0.2619
    214  O        -67.4070  -62.6470   64.0610 O.2   403  TYR403     -0.2715
    215  CB       -67.1190  -61.1200   66.6240 C.3   403  TYR403      0.0574
    216  CG       -67.4890  -60.6860   68.0110 C.ar  403  TYR403     -0.0198
    217  CD1      -67.9630  -61.5940   68.9370 C.ar  403  TYR403     -0.0009
    218  CD2      -67.3230  -59.3770   68.4090 C.ar  403  TYR403     -0.0009
    219  CE1      -68.2720  -61.1920   70.2250 C.ar  403  TYR403      0.0417
    220  CE2      -67.5940  -58.9770   69.7020 C.ar  403  TYR403      0.0417
    221  CZ       -68.0940  -59.8740   70.5900 C.ar  403  TYR403      0.1957
    222  OH       -68.3910  -59.4530   71.8480 O.3   403  TYR403     -0.2866
    223  N        -67.7460  -60.5600   63.3430 N.am  404  ILE404     -0.1977
    224  CA       -67.3010  -60.8800   61.9520 C.3   404  ILE404      0.1596
    225  C        -66.2230  -59.9300   61.5340 C.2   404  ILE404      0.2287
    226  O        -66.3740  -58.7170   61.6850 O.2   404  ILE404     -0.2864
    227  CB       -68.4380  -60.8520   60.9170 C.3   404  ILE404      0.0276
    228  CG1      -69.6410  -61.6490   61.4530 C.3   404  ILE404      0.0022
    229  CG2      -67.9650  -61.5230   59.6640 C.3   404  ILE404      0.0022
    230  CD1      -70.8660  -61.6150   60.5630 C.3   404  ILE404      0.0001
@<TRIPOS>BOND
     1    50    49    2
     2    49    48    1
     3    53    52    2
     4    48    51    1
     5    48    47    1
     6    51    52    1
     7    52    54   am
     8    47    41   am
     9    41    42    2
    10    41    40    1
    11    40    43    1
    12    40    39    1
    13    55    56    1
    14    43    44    1
    15    63    61   ar
    16    59    56    1
    17    59    60    1
    18    61    62   ar
    19    61    60    1
    20    56    57    1
    21    44    45    2
    22    44    46   am
    23    58    57    2
    24    70    69    1
    25    70    64    1
    26   229   227    1
    27    69    68    1
    28    64    65    1
    29    37    36    1
    30   230   228    1
    31    68    65    1
    32   227   228    1
    33   227   224    1
    34   210   208    1
    35    65    66    1
    36    38    36    1
    37    36    35    2
    38   225   226    2
    39   225   224    1
    40   209   208    1
    41   208   207    2
    42   224   223    1
    43    26    25   ar
    44    35    34    1
    45    66    67    2
    46    66    71   am
    47    34    33    1
    48   207   206    1
    49    82    81    1
    50    79    81   ar
    51    79    77   ar
    52    25    24    1
    53    25    27   ar
    54   223   213   am
    55    33    32    1
    56    24    21    1
    57    81    80   ar
    58    71    72    1
    59    77    76   ar
    60   206   205    1
    61   214   213    2
    62   213   212    1
    63    80    78   ar
    64    23    22    2
    65    32    29    1
    66    76    78   ar
    67    76    75    1
    68   205   204    1
    69    21    22    1
    70    21    20    1
    71    72    73    1
    72    72    75    1
    73    73    74    2
    74    29    28    1
    75    29    30    1
    76   212   211    1
    77   212   215    1
    78    20    14   am
    79   204   201    1
    80   203   202    2
    81   211   202   am
    82   202   201    1
    83   215   216    1
    84    30    31    2
    85   201   200    1
    86     5     6    1
    87     5     2    1
    88    14    15    2
    89    14    13    1
    90     6     7   ar
    91     6     8   ar
    92     7     9   ar
    93     8    10   ar
    94     9    11   ar
    95    10    11   ar
    96     4     3    2
    97   200   195   am
    98    13    12    1
    99    13    16    1
   100   216   218   ar
   101   216   217   ar
   102     3     2    1
   103     3    12   am
   104     2     1    1
   105   218   220   ar
   106   195   196    2
   107   195   194    1
   108   217   219   ar
   109    16    17    1
   110   194   193    1
   111   194   197    1
   112   220   221   ar
   113   199   197    1
   114   219   221   ar
   115   193   181   am
   116    17    19    1
   117    17    18    1
   118   183   184    1
   119   183   180    1
   120   182   181    2
   121   197   198    1
   122   221   222    1
   123   181   180    1
   124   184   185   ar
   125   184   186   ar
   126   185   187   ar
   127   180   179    1
   128   186   189   ar
   129   186   188   ar
   130   189   191   ar
   131   187   188   ar
   132   188   190   ar
   133   179   174   am
   134   191   192   ar
   135    88    87    1
   136   190   192   ar
   137    87    89    1
   138    87    84    1
   139   174   173    1
   140   174   175    2
   141    83    84    1
   142   167   166    2
   143   173   176    1
   144   173   172    1
   145   120   118    1
   146    84    85    1
   147   176   177    1
   148   170   169    1
   149   119   118    1
   150   166   172   am
   151   166   165    1
   152   172   178    1
   153   118   117    1
   154    86    85    2
   155    85    90   am
   156   117   114    1
   157   177   178    1
   158   169   168    1
   159   169   171    1
   160   165   168    1
   161   165   164    1
   162   149   148    1
   163   137   135    1
   164   164   161   am
   165    90    91    1
   166   163   160    1
   167   148   146   ar
   168   148   147   ar
   169   161   160    1
   170   161   162    2
   171   135   134    1
   172   114   113    1
   173   114   115    1
   174   160   159    1
   175   104   103    2
   176   146   144   ar
   177   147   145   ar
   178   136   134    1
   179   113   103   am
   180    91    92    1
   181    91    94    1
   182   103   102    1
   183   153   152    2
   184   115   116    2
   185   115   121   am
   186   101    92   am
   187   101   102    1
   188   144   143   ar
   189   134   131    1
   190    92    93    2
   191    95    94    1
   192    95    96    1
   193   124   123    2
   194   145   143   ar
   195   159   152   am
   196   102   105    1
   197   143   142    1
   198   152   151    1
   199   121   122    1
   200   131   130    1
   201   131   132    1
   202   123   130   am
   203   123   122    1
   204   157   156    2
   205    96    97    1
   206   142   139    1
   207   156   158   am
   208   156   155    1
   209   122   125    1
   210   105   106    1
   211   151   154    1
   212   151   150    1
   213   132   133    2
   214   155   154    1
   215   107   106   ar
   216   107   109   ar
   217   106   108   ar
   218   150   140   am
   219   109   111   ar
   220   140   141    2
   221   140   139    1
   222   108   110   ar
   223    97    98    2
   224   139   138    1
   225   125   126    1
   226   111   110   ar
   227   111   112    1
   228    99    98    1
   229    98   100    1
   230   126   127    1
   231   127   128    1
   232   129   128    1
