@<TRIPOS>MOLECULE
tmp/4p6zB00.pdb
 169 163 0 0 0
SMALL
GASTEIGER

@<TRIPOS>ATOM
      1  N        -76.3490  -37.4860   17.0200 N.3    11  ARG11      -0.1245
      2  CA       -75.8700  -37.4370   18.3850 C.3    11  ARG11       0.1563
      3  C        -74.3690  -37.7170   18.5000 C.2    11  ARG11       0.2260
      4  O        -73.8730  -38.1060   19.5520 O.2    11  ARG11      -0.2867
      5  CB       -76.6910  -38.3920   19.2250 C.3    11  ARG11       0.0307
      6  CG       -78.0880  -37.9110   19.5390 C.3    11  ARG11       0.0489
      7  CD       -78.6340  -38.7570   20.6700 C.3    11  ARG11       0.2205
      8  NE       -79.4150  -39.8570   20.1170 N.pl3  11  ARG11      -0.0865
      9  CZ       -80.7450  -39.9260   20.1640 C.cat  11  ARG11       0.5346
     10  NH1      -81.4480  -38.9490   20.7450 N.pl3  11  ARG11       0.1354
     11  NH2      -81.3680  -40.9780   19.6340 N.pl3  11  ARG11       0.1354
     12  N        -70.4060  -43.5450   12.2110 N.3    15  ARG15      -0.1245
     13  CA       -70.9770  -44.6600   11.4740 C.3    15  ARG15       0.1563
     14  C        -70.0360  -45.1390   10.3980 C.2    15  ARG15       0.2260
     15  O        -70.0940  -46.3050    9.9980 O.2    15  ARG15      -0.2867
     16  CB       -72.2760  -44.2260   10.8420 C.3    15  ARG15       0.0307
     17  CG       -73.3130  -43.6760   11.7880 C.3    15  ARG15       0.0489
     18  CD       -73.5370  -44.6570   12.8840 C.3    15  ARG15       0.2205
     19  NE       -74.6200  -44.2440   13.7600 N.pl3  15  ARG15      -0.0865
     20  CZ       -74.7860  -44.7140   14.9800 C.cat  15  ARG15       0.5346
     21  NH1      -73.9830  -45.6350   15.4330 N.pl3  15  ARG15       0.1354
     22  NH2      -75.7650  -44.3040   15.7160 N.pl3  15  ARG15       0.1354
     23  N        -77.2500  -33.5350    5.7910 N.3    61  ARG61      -0.1231
     24  CA       -77.8760  -34.4190    6.7640 C.3    61  ARG61       0.1694
     25  C        -79.0650  -35.0940    6.1360 C.2    61  ARG61       0.2592
     26  O        -80.0460  -34.4590    5.7730 O.2    61  ARG61      -0.2718
     27  CB       -78.3560  -33.6150    7.9610 C.3    61  ARG61       0.0321
     28  CG       -79.1800  -34.3900    8.9560 C.3    61  ARG61       0.0489
     29  CD       -79.7830  -33.4760    9.9790 C.3    61  ARG61       0.2205
     30  NE       -80.5370  -34.2580   10.9510 N.pl3  61  ARG61      -0.0865
     31  CZ       -81.1250  -33.7640   12.0490 C.cat  61  ARG61       0.5346
     32  NH1      -81.0570  -32.4570   12.3150 N.pl3  61  ARG61       0.1354
     33  NH2      -81.7950  -34.5860   12.8540 N.pl3  61  ARG61       0.1354
     34  N        -78.9670  -36.4000    5.9800 N.am   62  TYR62      -0.1962
     35  CA       -80.0770  -37.1900    5.4980 C.3    62  TYR62       0.1771
     36  C        -80.6710  -37.8970    6.6860 C.2    62  TYR62       0.2619
     37  O        -79.9980  -38.6980    7.3740 O.2    62  TYR62      -0.2715
     38  CB       -79.5930  -38.2150    4.4770 C.3    62  TYR62       0.0574
     39  CG       -79.1680  -37.6290    3.1620 C.ar   62  TYR62      -0.0198
     40  CD1      -77.8910  -37.1550    2.9700 C.ar   62  TYR62      -0.0009
     41  CD2      -80.0400  -37.6000    2.1070 C.ar   62  TYR62      -0.0009
     42  CE1      -77.4960  -36.6330    1.7690 C.ar   62  TYR62       0.0417
     43  CE2      -79.6710  -37.0820    0.8860 C.ar   62  TYR62       0.0417
     44  CZ       -78.3910  -36.6000    0.7240 C.ar   62  TYR62       0.1957
     45  OH       -77.9770  -36.1180   -0.4930 O.3    62  TYR62      -0.2866
     46  N        -81.9380  -37.5730    6.9470 N.am   63  ALA63      -0.1963
     47  CA       -82.6460  -38.0550    8.1640 C.3    63  ALA63       0.1728
     48  C        -81.8730  -37.7260    9.4030 C.2    63  ALA63       0.2617
     49  O        -81.7540  -36.5730    9.7920 O.2    63  ALA63      -0.2715
     50  CB       -82.9300  -39.5410    8.0990 C.3    63  ALA63       0.0334
     51  N        -81.3360  -38.7510   10.0300 N.am   64  SER64      -0.1936
     52  CA       -80.6070  -38.6220   11.2950 C.3    64  SER64       0.2055
     53  C        -79.1190  -38.7550   11.0370 C.2    64  SER64       0.2642
     54  O        -78.3350  -38.4830   11.9250 O.2    64  SER64      -0.2714
     55  CB       -81.0340  -39.7710   12.1890 C.3    64  SER64       0.2130
     56  OG       -80.7260  -41.0560   11.5660 O.3    64  SER64      -0.2179
     57  N        -78.7310  -39.1950    9.8240 N.am   65  LEU65      -0.1977
     58  CA       -77.3490  -39.4820    9.5420 C.3    65  LEU65       0.1596
     59  C        -76.6790  -38.3230    8.7770 C.2    65  LEU65       0.2287
     60  O        -77.1990  -37.8290    7.7620 O.2    65  LEU65      -0.2864
     61  CB       -77.2650  -40.7620    8.7410 C.3    65  LEU65       0.0297
     62  CG       -75.8900  -41.2880    8.3550 C.3    65  LEU65       0.0022
     63  CD1      -74.9990  -41.3940    9.5910 C.3    65  LEU65       0.0001
     64  CD2      -76.0110  -42.6060    7.5950 C.3    65  LEU65       0.0001
     65  N        -73.6670  -36.8610    6.5120 N.3    67  PHE67      -0.1241
     66  CA       -72.6060  -37.1960    5.5490 C.3    67  PHE67       0.1605
     67  C        -71.7180  -35.9800    5.4250 C.2    67  PHE67       0.2264
     68  O        -72.2110  -34.8550    5.1610 O.2    67  PHE67      -0.2867
     69  CB       -73.2060  -37.5400    4.2110 C.3    67  PHE67       0.0534
     70  CG       -73.9900  -38.8260    4.1910 C.ar   67  PHE67      -0.0203
     71  CD1      -75.1860  -38.9460    4.8990 C.ar   67  PHE67      -0.0042
     72  CD2      -73.5490  -39.9150    3.4650 C.ar   67  PHE67      -0.0042
     73  CE1      -75.9090  -40.1420    4.8820 C.ar   67  PHE67      -0.0003
     74  CE2      -74.2480  -41.1000    3.4480 C.ar   67  PHE67      -0.0003
     75  CZ       -75.4430  -41.2240    4.1360 C.ar   67  PHE67      -0.0000
     76  N        -74.8590  -37.2970   -2.5000 N.3    85  HIS85      -0.1241
     77  CA       -76.2020  -37.7160   -2.8540 C.3    85  HIS85       0.1621
     78  C        -76.1980  -39.0020   -3.6550 C.2    85  HIS85       0.2264
     79  O        -77.0520  -39.8890   -3.4720 O.2    85  HIS85      -0.2867
     80  CB       -76.9620  -36.6360   -3.5710 C.3    85  HIS85       0.0745
     81  CG       -78.3970  -36.9660   -3.7600 C.ar   85  HIS85       0.0817
     82  ND1      -79.2150  -37.3260   -2.7190 N.ar   85  HIS85      -0.2268
     83  CD2      -79.1750  -36.9890   -4.8630 C.ar   85  HIS85       0.1154
     84  CE1      -80.4350  -37.5610   -3.1670 C.ar   85  HIS85       0.1986
     85  NE2      -80.4350  -37.3660   -4.4690 N.ar   85  HIS85      -0.2212
     86  N        -75.6670  -41.8780   -1.2360 N.3    88  VAL88      -0.1231
     87  CA       -76.8950  -42.2600   -0.5540 C.3    88  VAL88       0.1692
     88  C        -77.8930  -42.9220   -1.5190 C.2    88  VAL88       0.2591
     89  O        -78.7500  -43.6930   -1.0930 O.2    88  VAL88      -0.2718
     90  CB       -77.5740  -41.1020    0.2450 C.3    88  VAL88       0.0266
     91  CG1      -76.5330  -40.1630    0.8140 C.3    88  VAL88       0.0020
     92  CG2      -78.4680  -40.3210   -0.6440 C.3    88  VAL88       0.0020
     93  N        -77.7910  -42.6180   -2.8110 N.am   89  GLU89      -0.1979
     94  CA       -78.6450  -43.2840   -3.7970 C.3    89  GLU89       0.1602
     95  C        -78.2090  -44.7290   -4.0160 C.2    89  GLU89       0.2287
     96  O        -79.0370  -45.6340   -4.1480 O.2    89  GLU89      -0.2864
     97  CB       -78.6900  -42.5260   -5.1090 C.3    89  GLU89       0.0415
     98  CG       -79.8790  -41.5780   -5.1670 C.3    89  GLU89       0.1163
     99  CD       -79.9010  -40.7410   -6.4210 C.2    89  GLU89       0.3649
    100  OE1      -78.9540  -40.8460   -7.2800 O.co2  89  GLU89      -0.2457
    101  OE2      -80.8910  -39.9790   -6.5060 O.co2  89  GLU89      -0.2457
    102  N        -76.5920  -46.5050   -1.7240 N.3    91  LEU91      -0.1231
    103  CA       -77.0020  -47.1570   -0.5070 C.3    91  LEU91       0.1693
    104  C        -78.4820  -47.4790   -0.5740 C.2    91  LEU91       0.2592
    105  O        -78.8920  -48.6040   -0.2170 O.2    91  LEU91      -0.2718
    106  CB       -76.7180  -46.2800    0.7190 C.3    91  LEU91       0.0284
    107  CG       -75.2520  -46.0950    1.0930 C.3    91  LEU91       0.0019
    108  CD1      -75.0410  -45.0270    2.1540 C.3    91  LEU91       0.0001
    109  CD2      -74.6660  -47.4240    1.5060 C.3    91  LEU91       0.0001
    110  N        -79.2820  -46.5020   -1.0380 N.am   92  ASP92      -0.1974
    111  CA       -80.7160  -46.6620   -1.0860 C.3    92  ASP92       0.1709
    112  C        -81.0980  -47.8400   -1.9400 C.2    92  ASP92       0.2293
    113  O        -81.9750  -48.6180   -1.5720 O.2    92  ASP92      -0.2864
    114  CB       -81.4030  -45.3930   -1.5360 C.3    92  ASP92       0.1436
    115  CG       -82.9460  -45.5290   -1.5120 C.2    92  ASP92       0.3671
    116  OD1      -83.5300  -45.4290   -0.4450 O.co2  92  ASP92      -0.2456
    117  OD2      -83.6200  -45.7520   -2.5370 O.co2  92  ASP92      -0.2456
    118  N        -84.6370  -48.7660    0.5430 N.3    97  SER97      -0.1202
    119  CA       -85.2230  -47.8090    1.4930 C.3    97  SER97       0.2020
    120  C        -84.2990  -47.6310    2.6780 C.2    97  SER97       0.2619
    121  O        -84.6540  -47.9250    3.8090 O.2    97  SER97      -0.2717
    122  CB       -86.6110  -48.2710    1.9200 C.3    97  SER97       0.2103
    123  OG       -87.2870  -47.2030    2.5090 O.3    97  SER97      -0.2182
    124  N        -83.0910  -47.1500    2.4030 N.am   98  VAL98      -0.1965
    125  CA       -81.9980  -47.1990    3.3690 C.3    98  VAL98       0.1727
    126  C        -82.2500  -46.2740    4.5310 C.2    98  VAL98       0.2616
    127  O        -82.7590  -45.1670    4.3420 O.2    98  VAL98      -0.2715
    128  CB       -80.6430  -46.9300    2.6980 C.3    98  VAL98       0.0290
    129  CG1      -80.5550  -45.4870    2.2760 C.3    98  VAL98       0.0023
    130  CG2      -79.5220  -47.2060    3.6570 C.3    98  VAL98       0.0023
    131  N        -81.9170  -46.7360    5.7280 N.am   99  CYS99      -0.1954
    132  CA       -82.0280  -45.9220    6.9480 C.3    99  CYS99       0.1843
    133  C        -80.6720  -45.9790    7.6450 C.2    99  CYS99       0.2625
    134  O        -79.8160  -46.7960    7.2510 O.2    99  CYS99      -0.2714
    135  CB       -83.1090  -46.4720    7.8730 C.3    99  CYS99       0.0997
    136  SG       -82.6680  -48.0720    8.5200 S.3    99  CYS99      -0.0797
    137  N        -80.4780  -45.1360    8.6670 N.am  100  GLU100     -0.1963
    138  CA       -79.2400  -45.1860    9.4060 C.3   100  GLU100      0.1733
    139  C        -78.9350  -46.5720    9.9940 C.2   100  GLU100      0.2616
    140  O        -77.7750  -47.0250    9.9690 O.2   100  GLU100     -0.2715
    141  CB       -79.2290  -44.1820   10.5290 C.3   100  GLU100      0.0429
    142  CG       -77.8710  -44.0810   11.2220 C.3   100  GLU100      0.1163
    143  CD       -77.8610  -43.1610   12.4020 C.2   100  GLU100      0.3649
    144  OE1      -78.8200  -42.3870   12.6030 O.co2 100  GLU100     -0.2457
    145  OE2      -76.8640  -43.1890   13.1320 O.co2 100  GLU100     -0.2457
    146  N        -79.9690  -47.2470   10.4750 N.am  101  LEU101     -0.1977
    147  CA       -79.7870  -48.5410   11.0900 C.3   101  LEU101      0.1596
    148  C        -79.1120  -49.5640   10.1840 C.2   101  LEU101      0.2287
    149  O        -78.2940  -50.3850   10.6530 O.2   101  LEU101     -0.2864
    150  CB       -81.1460  -49.1070   11.5400 C.3   101  LEU101      0.0297
    151  CG       -81.0600  -50.2040   12.6320 C.3   101  LEU101      0.0022
    152  CD1      -80.1990  -49.7580   13.8070 C.3   101  LEU101      0.0001
    153  CD2      -82.4990  -50.5050   13.0420 C.3   101  LEU101      0.0001
    154  N        -76.8850  -48.8390    7.8880 N.3   103  ILE103     -0.1231
    155  CA       -75.4660  -48.4770    7.9310 C.3   103  ILE103      0.1692
    156  C        -74.8230  -48.9190    9.2210 C.2   103  ILE103      0.2591
    157  O        -73.6860  -49.4180    9.2080 O.2   103  ILE103     -0.2718
    158  CB       -75.2350  -46.9900    7.6780 C.3   103  ILE103      0.0266
    159  CG1      -75.4350  -46.6810    6.1850 C.3   103  ILE103      0.0019
    160  CG2      -73.8080  -46.6190    7.9870 C.3   103  ILE103      0.0020
    161  CD1      -76.8460  -46.2950    5.8470 C.3   103  ILE103      0.0001
    162  N        -75.5670  -48.7650   10.3090 N.am  104  ILE104     -0.1980
    163  CA       -75.1020  -49.2520   11.6320 C.3   104  ILE104      0.1595
    164  C        -74.7770  -50.7370   11.6430 C.2   104  ILE104      0.2287
    165  O        -73.7560  -51.1080   12.1660 O.2   104  ILE104     -0.2864
    166  CB       -76.1670  -48.9770   12.7330 C.3   104  ILE104      0.0276
    167  CG1      -76.4260  -47.5000   12.8340 C.3   104  ILE104      0.0022
    168  CG2      -75.7440  -49.5420   14.0530 C.3   104  ILE104      0.0022
    169  CD1      -77.3060  -47.1400   13.9770 C.3   104  ILE104      0.0001
@<TRIPOS>BOND
     1   100    99   ar
     2   101    99   ar
     3    99    98    1
     4    98    97    1
     5    97    94    1
     6    83    85   ar
     7    83    81   ar
     8    85    84   ar
     9    96    95    2
    10    95    94    1
    11    94    93    1
    12    81    80    1
    13    81    82   ar
    14    78    79    2
    15    78    77    1
    16    80    77    1
    17    84    82   ar
    18    77    76    1
    19    93    88   am
    20   117   115   ar
    21   112   113    2
    22   112   111    1
    23   102   103    1
    24   114   115    1
    25   114   111    1
    26    88    89    2
    27    88    87    1
    28   115   116   ar
    29    86    87    1
    30   111   110    1
    31   110   104   am
    32    92    90    1
    33   104   103    1
    34   104   105    2
    35    87    90    1
    36   103   106    1
    37    45    44    1
    38    90    91    1
    39   118   119    1
    40   106   107    1
    41    44    43   ar
    42    44    42   ar
    43    43    41   ar
    44   107   109    1
    45   107   108    1
    46   119   122    1
    47   119   120    1
    48    42    40   ar
    49   122   123    1
    50    41    39   ar
    51   129   128    1
    52   124   120   am
    53   124   125    1
    54   120   121    2
    55   128   125    1
    56   128   130    1
    57    40    39   ar
    58    39    38    1
    59   125   126    1
    60    74    72   ar
    61    74    75   ar
    62    72    70   ar
    63    75    73   ar
    64    70    69    1
    65    70    71   ar
    66    69    66    1
    67   127   126    2
    68    38    35    1
    69   126   131   am
    70    73    71   ar
    71    68    67    2
    72    67    66    1
    73    35    34    1
    74    35    36    1
    75    66    65    1
    76   131   132    1
    77    26    25    2
    78    23    24    1
    79   161   159    1
    80    34    25   am
    81    25    24    1
    82   159   158    1
    83    36    46   am
    84    36    37    2
    85    24    27    1
    86    46    47    1
    87   132   133    1
    88   132   135    1
    89   134   133    2
    90    64    62    1
    91   133   137   am
    92   158   155    1
    93   158   160    1
    94    60    59    2
    95   135   136    1
    96   154   155    1
    97   155   156    1
    98    27    28    1
    99    50    47    1
   100    47    48    1
   101    62    61    1
   102    62    63    1
   103   137   138    1
   104    61    58    1
   105    59    58    1
   106    28    29    1
   107   157   156    2
   108   156   162   am
   109    48    49    2
   110    48    51   am
   111   138   139    1
   112   138   141    1
   113    58    57    1
   114    57    53   am
   115   140   139    2
   116    29    30    1
   117   139   146   am
   118    15    14    2
   119    51    52    1
   120   148   149    2
   121   148   147    1
   122   162   163    1
   123    14    13    1
   124   146   147    1
   125   141   142    1
   126    16    13    1
   127    16    17    1
   128    30    31    2
   129    53    52    1
   130    53    54    2
   131   147   150    1
   132   142   143    1
   133    52    55    1
   134    13    12    1
   135   150   151    1
   136    56    55    1
   137   163   164    1
   138   163   166    1
   139   164   165    2
   140    17    18    1
   141    31    32    1
   142    31    33    1
   143   143   144   ar
   144   143   145   ar
   145   151   153    1
   146   151   152    1
   147   166   167    1
   148   166   168    1
   149   167   169    1
   150    18    19    1
   151    19    20    2
   152    20    21    1
   153    20    22    1
   154     1     2    1
   155     2     3    1
   156     2     5    1
   157     3     4    2
   158     5     6    1
   159     6     7    1
   160    11     9    1
   161     8     9    2
   162     8     7    1
   163     9    10    1
