@<TRIPOS>MOLECULE
tmp/4p72C00.pdb
 188 176 0 0 0
SMALL
GASTEIGER

@<TRIPOS>ATOM
      1  N         44.9430   27.3870   12.2070 N.3    54  LEU54      -0.1245
      2  CA        44.3080   27.2140   13.5100 C.3    54  LEU54       0.1561
      3  C         43.3140   28.3040   13.8280 C.2    54  LEU54       0.2260
      4  O         43.0030   28.5310   14.9980 O.2    54  LEU54      -0.2867
      5  CB        45.3710   27.0960   14.6000 C.3    54  LEU54       0.0270
      6  CG        46.2080   25.8490   14.5190 C.3    54  LEU54       0.0019
      7  CD1       47.4850   26.0260   15.2550 C.3    54  LEU54       0.0001
      8  CD2       45.4500   24.6700   15.0460 C.3    54  LEU54       0.0001
      9  N         50.3620   22.4210   18.0680 N.3    82  SER82      -0.1217
     10  CA        49.2110   22.2810   17.1560 C.3    82  SER82       0.1889
     11  C         49.6590   22.2290   15.6820 C.2    82  SER82       0.2288
     12  O         49.1080   21.3950   14.9810 O.2    82  SER82      -0.2866
     13  CB        48.1670   23.3710   17.3630 C.3    82  SER82       0.2089
     14  OG        48.1190   23.9140   18.6700 O.3    82  SER82      -0.2183
     15  N         49.6990   18.7370   14.4270 N.3    85  GLN85      -0.1231
     16  CA        48.3470   18.2270   14.2180 C.3    85  GLN85       0.1698
     17  C         47.7970   18.7190   12.8800 C.2    85  GLN85       0.2592
     18  O         47.1300   17.9580   12.1830 O.2    85  GLN85      -0.2718
     19  CB        47.4520   18.6500   15.3670 C.3    85  GLN85       0.0381
     20  CG        47.5100   17.6890   16.5290 C.3    85  GLN85       0.0905
     21  CD        47.6900   18.3790   17.8280 C.2    85  GLN85       0.2608
     22  OE1       48.7160   18.9980   18.0820 O.2    85  GLN85      -0.2717
     23  NE2       46.7000   18.2780   18.6820 N.am   85  GLN85      -0.0878
     24  N         48.1450   19.9550   12.4960 N.am   86  VAL86      -0.1980
     25  CA        47.7830   20.5550   11.2130 C.3    86  VAL86       0.1595
     26  C         48.4500   19.7680   10.0910 C.2    86  VAL86       0.2287
     27  O         47.7660   19.3230    9.1740 O.2    86  VAL86      -0.2864
     28  CB        48.1030   22.0830   11.1490 C.3    86  VAL86       0.0276
     29  CG1       48.0030   22.6150    9.7150 C.3    86  VAL86       0.0022
     30  CG2       47.1870   22.8700   12.0720 C.3    86  VAL86       0.0022
     31  N         46.6290   16.4180    9.6520 N.3    89  MET89      -0.1245
     32  CA        45.3220   16.6510    9.0250 C.3    89  MET89       0.1570
     33  C         45.3980   16.9200    7.5190 C.2    89  MET89       0.2261
     34  O         44.4380   16.6310    6.7940 O.2    89  MET89      -0.2867
     35  CB        44.6120   17.8240    9.7120 C.3    89  MET89       0.0387
     36  CG        43.9970   17.4640   11.0260 C.3    89  MET89       0.0595
     37  SD        42.7580   18.6790   11.5370 S.3    89  MET89      -0.1393
     38  CE        43.8080   20.0630   12.0790 C.3    89  MET89       0.0692
     39  N         57.8020   30.9670   23.5280 N.3   106  ARG106     -0.1245
     40  CA        57.0230   32.1810   23.7340 C.3   106  ARG106      0.1563
     41  C         57.9290   33.2800   24.2600 C.2   106  ARG106      0.2260
     42  O         58.8580   33.0150   25.0210 O.2   106  ARG106     -0.2867
     43  CB        55.8330   31.9390   24.6950 C.3   106  ARG106      0.0307
     44  CG        54.6970   31.1000   24.0750 C.3   106  ARG106      0.0489
     45  CD        53.5020   30.9420   24.9530 C.3   106  ARG106      0.2205
     46  NE        52.6450   29.9070   24.3880 N.pl3 106  ARG106     -0.0865
     47  CZ        51.3210   29.9380   24.4210 C.cat 106  ARG106      0.5346
     48  NH1       50.6880   30.9400   25.0200 N.pl3 106  ARG106      0.1354
     49  NH2       50.6160   28.9660   23.8590 N.pl3 106  ARG106      0.1354
     50  N         59.6790   25.8870   26.5780 N.3   117  PHE117     -0.1241
     51  CA        59.0160   24.9070   27.4340 C.3   117  PHE117      0.1605
     52  C         58.4280   23.7780   26.6150 C.2   117  PHE117      0.2264
     53  O         58.5810   23.7620   25.3980 O.2   117  PHE117     -0.2867
     54  CB        57.9730   25.5410   28.3540 C.3   117  PHE117      0.0534
     55  CG        56.8900   26.3080   27.6560 C.ar  117  PHE117     -0.0203
     56  CD1       57.1250   27.6020   27.1880 C.ar  117  PHE117     -0.0042
     57  CD2       55.6040   25.7870   27.5580 C.ar  117  PHE117     -0.0042
     58  CE1       56.1200   28.3210   26.5470 C.ar  117  PHE117     -0.0003
     59  CE2       54.5860   26.5110   26.9390 C.ar  117  PHE117     -0.0003
     60  CZ        54.8520   27.7710   26.4260 C.ar  117  PHE117     -0.0000
     61  N         55.0320   21.0660   25.8270 N.3   119  GLN119     -0.1245
     62  CA        53.6190   20.8370   25.9360 C.3   119  GLN119      0.1566
     63  C         53.2000   19.6000   25.1590 C.2   119  GLN119      0.2260
     64  O         53.9310   19.1360   24.2920 O.2   119  GLN119     -0.2867
     65  CB        52.8140   22.1100   25.5920 C.3   119  GLN119      0.0367
     66  CG        52.6940   22.4980   24.1450 C.3   119  GLN119      0.0905
     67  CD        51.7540   23.6670   24.0500 C.2   119  GLN119      0.2608
     68  OE1       51.8820   24.6650   24.7580 O.2   119  GLN119     -0.2717
     69  NE2       50.7290   23.5260   23.2480 N.am  119  GLN119     -0.0878
     70  N         49.9250   18.0670   23.1010 N.3   121  GLU121     -0.1245
     71  CA        48.6280   18.3140   22.5160 C.3   121  GLU121      0.1567
     72  C         48.0610   17.0280   21.9530 C.2   121  GLU121      0.2260
     73  O         48.8050   16.1260   21.5850 O.2   121  GLU121     -0.2867
     74  CB        48.7040   19.3850   21.4560 C.3   121  GLU121      0.0388
     75  CG        48.6080   20.7780   22.0330 C.3   121  GLU121      0.1160
     76  CD        48.4340   21.8440   20.9820 C.2   121  GLU121      0.3649
     77  OE1       47.5000   21.7240   20.1550 O.co2 121  GLU121     -0.2457
     78  OE2       49.2520   22.7880   20.9660 O.co2 121  GLU121     -0.2457
     79  N         44.7280   15.1120   19.5150 N.3   123  LEU123     -0.1245
     80  CA        43.7270   15.2610   18.4580 C.3   123  LEU123      0.1561
     81  C         43.1100   13.9340   18.0900 C.2   123  LEU123      0.2260
     82  O         43.8220   12.9620   17.8250 O.2   123  LEU123     -0.2867
     83  CB        44.3380   15.8950   17.2040 C.3   123  LEU123      0.0270
     84  CG        43.4080   16.1590   16.0190 C.3   123  LEU123      0.0019
     85  CD1       42.5330   17.3510   16.2670 C.3   123  LEU123      0.0001
     86  CD2       44.1890   16.3870   14.7540 C.3   123  LEU123      0.0001
     87  N         39.0610   29.4200   22.6780 N.3   159  PHE159     -0.1241
     88  CA        40.2630   29.2720   21.8640 C.3   159  PHE159      0.1605
     89  C         39.8320   29.4950   20.4240 C.2   159  PHE159      0.2264
     90  O         38.7460   29.0370   20.0480 O.2   159  PHE159     -0.2867
     91  CB        40.8810   27.8780   21.9800 C.3   159  PHE159      0.0534
     92  CG        41.2130   27.4230   23.3750 C.ar  159  PHE159     -0.0203
     93  CD1       42.3000   27.9540   24.0580 C.ar  159  PHE159     -0.0042
     94  CD2       40.4520   26.4470   24.0010 C.ar  159  PHE159     -0.0042
     95  CE1       42.5780   27.5600   25.3720 C.ar  159  PHE159     -0.0003
     96  CE2       40.7350   26.0540   25.3100 C.ar  159  PHE159     -0.0003
     97  CZ        41.7920   26.6160   25.9880 C.ar  159  PHE159     -0.0000
     98  N         40.7680   28.0270   17.6840 N.3   161  PHE161     -0.1227
     99  CA        40.8120   26.7110   17.0140 C.3   161  PHE161      0.1736
    100  C         39.7980   25.6760   17.5050 C.2   161  PHE161      0.2596
    101  O         39.6790   24.6170   16.8870 O.2   161  PHE161     -0.2718
    102  CB        42.2400   26.1160   17.0840 C.3   161  PHE161      0.0547
    103  CG        42.9970   26.5380   18.3240 C.ar  161  PHE161     -0.0202
    104  CD1       42.9130   25.7920   19.4960 C.ar  161  PHE161     -0.0042
    105  CD2       43.7110   27.7380   18.3520 C.ar  161  PHE161     -0.0042
    106  CE1       43.6040   26.1860   20.6460 C.ar  161  PHE161     -0.0003
    107  CE2       44.3670   28.1540   19.5180 C.ar  161  PHE161     -0.0003
    108  CZ        44.3050   27.3770   20.6570 C.ar  161  PHE161     -0.0000
    109  N         39.0750   25.9600   18.5980 N.am  162  THR162     -0.1953
    110  CA        38.0500   25.0440   19.1200 C.3   162  THR162      0.1897
    111  C         36.7370   25.7680   19.4280 C.2   162  THR162      0.2313
    112  O         36.7370   26.9650   19.7050 O.2   162  THR162     -0.2863
    113  CB        38.5360   24.2580   20.3580 C.3   162  THR162      0.1794
    114  OG1       39.0440   25.1510   21.3400 O.3   162  THR162     -0.2208
    115  CG2       39.5560   23.2110   20.0340 C.3   162  THR162      0.0378
    116  N         38.3250   24.9480   29.9830 N.3   167  GLU167     -0.1245
    117  CA        39.5150   24.9560   30.8260 C.3   167  GLU167      0.1567
    118  C         39.2160   23.8730   31.8320 C.2   167  GLU167      0.2260
    119  O         38.0900   23.7860   32.3400 O.2   167  GLU167     -0.2867
    120  CB        39.8200   26.3140   31.5060 C.3   167  GLU167      0.0388
    121  CG        40.0910   27.4750   30.5570 C.3   167  GLU167      0.1160
    122  CD        41.4090   28.2210   30.4170 C.2   167  GLU167      0.3649
    123  OE1       42.1710   27.8790   29.4830 O.co2 167  GLU167     -0.2457
    124  OE2       41.6050   29.2390   31.1220 O.co2 167  GLU167     -0.2457
    125  N         44.7720   22.0180   32.3410 N.3   178  MET178     -0.1230
    126  CA        44.7840   21.9110   30.8790 C.3   178  MET178      0.1702
    127  C         43.5690   22.5670   30.2000 C.2   178  MET178      0.2593
    128  O         42.6320   23.0030   30.8690 O.2   178  MET178     -0.2718
    129  CB        44.9500   20.4510   30.4390 C.3   178  MET178      0.0401
    130  CG        43.7330   19.5810   30.6900 C.3   178  MET178      0.0596
    131  SD        44.0490   17.8100   30.4100 S.3   178  MET178     -0.1393
    132  CE        44.4340   17.8090   28.5930 C.3   178  MET178      0.0692
    133  N         43.6150   22.6160   28.8770 N.am  179  GLY179     -0.1942
    134  CA        42.5570   23.1590   28.0390 C.3   179  GLY179      0.2014
    135  C         42.2360   22.1670   26.9460 C.2   179  GLY179      0.2639
    136  O         43.0650   21.3190   26.6030 O.2   179  GLY179     -0.2714
    137  N         41.0150   22.2510   26.4110 N.am  180  CYS180     -0.1967
    138  CA        40.5050   21.3560   25.3640 C.3   180  CYS180      0.1712
    139  C         39.3220   22.0230   24.6560 C.2   180  CYS180      0.2296
    140  O         38.9190   23.1180   25.0250 O.2   180  CYS180     -0.2864
    141  CB        40.0950   20.0210   25.9680 C.3   180  CYS180      0.0983
    142  SG        38.8110   20.1750   27.2290 S.3   180  CYS180     -0.0798
    143  N         37.1870   20.5800   17.8040 N.3   183  VAL183     -0.1245
    144  CA        37.8980   21.2540   16.7060 C.3   183  VAL183      0.1561
    145  C         36.9600   22.1650   15.9090 C.2   183  VAL183      0.2260
    146  O         35.8790   21.7370   15.5190 O.2   183  VAL183     -0.2867
    147  CB        38.7000   20.2700   15.7930 C.3   183  VAL183      0.0252
    148  CG1       39.5540   21.0240   14.7770 C.3   183  VAL183      0.0019
    149  CG2       39.5840   19.3510   16.6230 C.3   183  VAL183      0.0019
    150  N         38.8430   25.0650   11.0300 N.3   187  VAL187     -0.1245
    151  CA        40.1460   24.3980   11.1750 C.3   187  VAL187      0.1561
    152  C         40.1710   23.1170   10.3050 C.2   187  VAL187      0.2260
    153  O         41.1310   22.8820    9.5640 O.2   187  VAL187     -0.2867
    154  CB        40.5220   24.1380   12.6750 C.3   187  VAL187      0.0252
    155  CG1       41.7160   23.1900   12.8110 C.3   187  VAL187      0.0019
    156  CG2       40.7780   25.4460   13.4280 C.3   187  VAL187      0.0019
    157  N         40.2510   18.1860   20.5290 N.3   202  ALA202     -0.1231
    158  CA        41.6610   18.4360   20.7260 C.3   202  ALA202      0.1694
    159  C         41.8710   18.9890   22.1270 C.2   202  ALA202      0.2592
    160  O         40.9570   19.5800   22.7180 O.2   202  ALA202     -0.2718
    161  CB        42.1710   19.3980   19.6850 C.3   202  ALA202      0.0304
    162  N         43.0510   18.7310   22.6860 N.am  203  PHE203     -0.1962
    163  CA        43.4090   19.1640   24.0220 C.3   203  PHE203      0.1771
    164  C         44.8730   19.5740   24.0600 C.2   203  PHE203      0.2620
    165  O         45.6400   19.2040   23.1880 O.2   203  PHE203     -0.2715
    166  CB        43.1170   18.0450   25.0250 C.3   203  PHE203      0.0574
    167  CG        43.7790   16.7190   24.7330 C.ar  203  PHE203     -0.0200
    168  CD1       45.0890   16.4730   25.1310 C.ar  203  PHE203     -0.0042
    169  CD2       43.0830   15.7050   24.0900 C.ar  203  PHE203     -0.0042
    170  CE1       45.6950   15.2460   24.8760 C.ar  203  PHE203     -0.0003
    171  CE2       43.6940   14.4750   23.8240 C.ar  203  PHE203     -0.0003
    172  CZ        44.9960   14.2560   24.2200 C.ar  203  PHE203     -0.0000
    173  N         45.2360   20.3370   25.0710 N.am  204  GLY204     -0.1940
    174  CA        46.5940   20.7970   25.2700 C.3   204  GLY204      0.2014
    175  C         46.9160   20.9350   26.7350 C.2   204  GLY204      0.2639
    176  O         46.0290   21.1910   27.5580 O.2   204  GLY204     -0.2714
    177  N         48.1940   20.7440   27.0740 N.am  205  MET205     -0.1963
    178  CA        48.6580   20.8830   28.4610 C.3   205  MET205      0.1736
    179  C         50.1420   21.2370   28.4740 C.2   205  MET205      0.2617
    180  O         50.8490   20.8380   27.5600 O.2   205  MET205     -0.2715
    181  CB        48.4260   19.5680   29.2300 C.3   205  MET205      0.0427
    182  CG        49.2840   18.4410   28.7160 C.3   205  MET205      0.0599
    183  SD        48.5920   16.8710   29.1330 S.3   205  MET205     -0.1393
    184  CE        47.7600   16.5010   27.6250 C.3   205  MET205      0.0692
    185  N         50.5900   21.9170   29.5250 N.am  206  GLY206     -0.1955
    186  CA        51.9970   22.2240   29.7310 C.3   206  GLY206      0.1869
    187  C         52.6500   21.1170   30.5420 C.2   206  GLY206      0.2309
    188  O         52.1440   20.7480   31.6050 O.2   206  GLY206     -0.2863
@<TRIPOS>BOND
     1    34    33    2
     2    33    32    1
     3    32    31    1
     4    32    35    1
     5    27    26    2
     6   153   152    2
     7    35    36    1
     8    29    28    1
     9    26    25    1
    10   152   151    1
    11    36    37    1
    12   150   151    1
    13    28    25    1
    14    28    30    1
    15   151   154    1
    16    25    24    1
    17    37    38    1
    18    18    17    2
    19     1     2    1
    20    24    17   am
    21   154   155    1
    22   154   156    1
    23    17    16    1
    24     2     3    1
    25     2     5    1
    26     3     4    2
    27    16    15    1
    28    16    19    1
    29     6     5    1
    30     6     8    1
    31     6     7    1
    32    86    84    1
    33   148   147    1
    34    12    11    2
    35    19    20    1
    36   146   145    2
    37    11    10    1
    38   147   149    1
    39   147   144    1
    40   145   144    1
    41    84    85    1
    42    84    83    1
    43    20    21    1
    44   144   143    1
    45   101   100    2
    46    99   102    1
    47    99   100    1
    48    99    98    1
    49   102   103    1
    50    10    13    1
    51    10     9    1
    52    83    80    1
    53    13    14    1
    54   100   109   am
    55    82    81    2
    56    21    22    2
    57    21    23   am
    58    81    80    1
    59   103   105   ar
    60   103   104   ar
    61   105   107   ar
    62    80    79    1
    63   109   110    1
    64   110   111    1
    65   110   113    1
    66   111   112    2
    67   104   106   ar
    68   107   108   ar
    69   161   158    1
    70   115   113    1
    71    90    89    2
    72    77    76   ar
    73   113   114    1
    74    89    88    1
    75   157   158    1
    76   106   108   ar
    77   158   159    1
    78    78    76   ar
    79    76    75    1
    80    74    75    1
    81    74    71    1
    82    73    72    2
    83    88    91    1
    84    88    87    1
    85    72    71    1
    86    91    92    1
    87   159   162   am
    88   159   160    2
    89    71    70    1
    90   162   163    1
    91   165   164    2
    92    69    67   am
    93    92    94   ar
    94    92    93   ar
    95    39    40    1
    96    40    41    1
    97    40    43    1
    98   171   169   ar
    99   171   172   ar
   100    49    47    1
   101    94    96   ar
   102   163   164    1
   103   163   166    1
   104    67    66    1
   105    67    68    2
   106    93    95   ar
   107   164   173   am
   108    44    43    1
   109    44    45    1
   110   169   167   ar
   111    66    65    1
   112   172   170   ar
   113    41    42    2
   114    64    63    2
   115    46    47    2
   116    46    45    1
   117    47    48    1
   118   139   140    2
   119   139   138    1
   120   167   166    1
   121   167   168   ar
   122   170   168   ar
   123   173   174    1
   124    63    62    1
   125   174   175    1
   126    96    97   ar
   127   138   141    1
   128   138   137    1
   129    95    97   ar
   130    53    52    2
   131    65    62    1
   132    61    62    1
   133   141   142    1
   134   137   135   am
   135    60    58   ar
   136    60    59   ar
   137    58    56   ar
   138    50    51    1
   139   136   135    2
   140    52    51    1
   141   175   177   am
   142   175   176    2
   143    59    57   ar
   144   135   134    1
   145   177   178    1
   146    56    55   ar
   147    51    54    1
   148    57    55   ar
   149   180   179    2
   150   184   183    1
   151    55    54    1
   152   134   133    1
   153   178   179    1
   154   178   181    1
   155   179   185   am
   156   132   131    1
   157   182   183    1
   158   182   181    1
   159   133   127   am
   160   123   122   ar
   161   185   186    1
   162   186   187    1
   163   116   117    1
   164   127   128    2
   165   127   126    1
   166   131   130    1
   167   122   121    1
   168   122   124   ar
   169   129   130    1
   170   129   126    1
   171   187   188    2
   172   121   120    1
   173   117   120    1
   174   117   118    1
   175   126   125    1
   176   118   119    2
