@<TRIPOS>MOLECULE
tmp/4p73D00.pdb
 215 206 0 0 0
SMALL
GASTEIGER

@<TRIPOS>ATOM
      1  N         41.9980  -27.6110   33.0250 N.3    54  PHE54      -0.1241
      2  CA        41.2000  -28.4020   32.1050 C.3    54  PHE54       0.1605
      3  C         39.6870  -28.1350   32.1350 C.2    54  PHE54       0.2264
      4  O         39.1260  -27.7050   31.1200 O.2    54  PHE54      -0.2867
      5  CB        41.4790  -29.8920   32.3320 C.3    54  PHE54       0.0534
      6  CG        42.9130  -30.3260   32.1150 C.ar   54  PHE54      -0.0203
      7  CD1       43.4950  -30.2610   30.8500 C.ar   54  PHE54      -0.0042
      8  CD2       43.6610  -30.8690   33.1640 C.ar   54  PHE54      -0.0042
      9  CE1       44.8070  -30.6940   30.6450 C.ar   54  PHE54      -0.0003
     10  CE2       44.9670  -31.3260   32.9530 C.ar   54  PHE54      -0.0003
     11  CZ        45.5290  -31.2330   31.6950 C.ar   54  PHE54      -0.0000
     12  N         37.9630  -25.1150   30.8340 N.3    57  LEU57      -0.1245
     13  CA        38.2430  -24.9400   29.4040 C.3    57  LEU57       0.1561
     14  C         37.6270  -26.0480   28.5210 C.2    57  LEU57       0.2260
     15  O         38.1030  -26.3030   27.3970 O.2    57  LEU57      -0.2867
     16  CB        39.7570  -24.8370   29.1600 C.3    57  LEU57       0.0270
     17  CG        40.4330  -23.6670   29.8040 C.3    57  LEU57       0.0019
     18  CD1       41.8520  -24.0100   30.1460 C.3    57  LEU57       0.0001
     19  CD2       40.3210  -22.4460   28.9330 C.3    57  LEU57       0.0001
     20  N         37.6240  -29.2760   28.7880 N.3    59  ILE59      -0.1245
     21  CA        38.4140  -30.4920   28.6180 C.3    59  ILE59       0.1561
     22  C         37.9230  -31.4710   29.7170 C.2    59  ILE59       0.2260
     23  O         38.2440  -31.2730   30.8920 O.2    59  ILE59      -0.2867
     24  CB        39.9400  -30.2560   28.6490 C.3    59  ILE59       0.0252
     25  CG1       40.3930  -29.3710   27.4640 C.3    59  ILE59       0.0019
     26  CG2       40.6880  -31.5910   28.6460 C.3    59  ILE59       0.0019
     27  CD1       41.4270  -28.3090   27.8410 C.3    59  ILE59       0.0001
     28  N         39.2940  -37.0320   28.7280 N.3    63  HIS63      -0.1241
     29  CA        40.0760  -36.4620   27.6230 C.3    63  HIS63       0.1621
     30  C         41.5450  -36.8870   27.6810 C.2    63  HIS63       0.2264
     31  O         42.1720  -36.7710   28.7390 O.2    63  HIS63      -0.2867
     32  CB        39.9340  -34.9350   27.5270 C.3    63  HIS63       0.0745
     33  CG        40.3670  -34.3460   26.2080 C.ar   63  HIS63       0.0817
     34  ND1       39.4780  -33.6620   25.3880 N.ar   63  HIS63      -0.2268
     35  CD2       41.5880  -34.3230   25.6270 C.ar   63  HIS63       0.1154
     36  CE1       40.1850  -33.2490   24.3450 C.ar   63  HIS63       0.1986
     37  NE2       41.4580  -33.6270   24.4410 N.ar   63  HIS63      -0.2212
     38  N         44.2640  -35.5420   26.7610 N.3    65  ALA65      -0.1245
     39  CA        45.1800  -34.4650   27.1270 C.3    65  ALA65       0.1562
     40  C         45.4540  -34.4880   28.6300 C.2    65  ALA65       0.2260
     41  O         46.5530  -34.1330   29.0600 O.2    65  ALA65      -0.2867
     42  CB        44.6010  -33.1300   26.7220 C.3    65  ALA65       0.0290
     43  N         49.3870  -25.1750   29.4150 N.3    83  HIS83      -0.1241
     44  CA        49.1720  -23.9590   28.6260 C.3    83  HIS83       0.1621
     45  C         49.0040  -22.7610   29.5690 C.2    83  HIS83       0.2264
     46  O         48.9290  -22.9590   30.7860 O.2    83  HIS83      -0.2867
     47  CB        47.9250  -24.1010   27.7060 C.3    83  HIS83       0.0745
     48  CG        46.7110  -24.7740   28.3010 C.ar   83  HIS83       0.0817
     49  ND1       45.5950  -25.0560   27.5210 N.ar   83  HIS83      -0.2268
     50  CD2       46.4780  -25.2230   29.5640 C.ar   83  HIS83       0.1154
     51  CE1       44.7290  -25.6570   28.3300 C.ar   83  HIS83       0.1986
     52  NE2       45.2180  -25.7840   29.5670 N.ar   83  HIS83      -0.2212
     53  N         46.3280  -20.6660   29.3060 N.3    85  SER85      -0.1217
     54  CA        44.8570  -20.4510   29.4240 C.3    85  SER85       0.1889
     55  C         44.3590  -20.3300   30.8950 C.2    85  SER85       0.2288
     56  O         43.5620  -19.4190   31.1310 O.2    85  SER85      -0.2866
     57  CB        44.0540  -21.5470   28.7280 C.3    85  SER85       0.2089
     58  OG        44.5630  -21.9220   27.4610 O.3    85  SER85      -0.2183
     59  N         44.0200  -16.8220   32.0470 N.3    88  GLN88      -0.1231
     60  CA        42.8560  -16.2110   31.4000 C.3    88  GLN88       0.1698
     61  C         41.5510  -16.5870   32.1540 C.2    88  GLN88       0.2592
     62  O         40.6810  -15.7330   32.3490 O.2    88  GLN88      -0.2718
     63  CB        42.7820  -16.6220   29.9150 C.3    88  GLN88       0.0381
     64  CG        44.1440  -16.6880   29.2100 C.3    88  GLN88       0.0905
     65  CD        44.1260  -16.1130   27.8120 C.2    88  GLN88       0.2608
     66  OE1       43.6200  -16.7030   26.8620 O.2    88  GLN88      -0.2717
     67  NE2       44.6950  -14.9460   27.6500 N.am   88  GLN88      -0.0878
     68  N         41.4380  -17.8540   32.6020 N.am   89  VAL89      -0.1980
     69  CA        40.2880  -18.3460   33.3720 C.3    89  VAL89       0.1595
     70  C         40.2190  -17.5740   34.7000 C.2    89  VAL89       0.2287
     71  O         39.1400  -17.1100   35.0880 O.2    89  VAL89      -0.2864
     72  CB        40.3510  -19.8890   33.6010 C.3    89  VAL89       0.0276
     73  CG1       39.3310  -20.3560   34.6500 C.3    89  VAL89       0.0022
     74  CG2       40.1890  -20.6620   32.2870 C.3    89  VAL89       0.0022
     75  N         38.7180  -14.1860   33.9770 N.3    92  MET92      -0.1245
     76  CA        37.2730  -14.3030   33.7060 C.3    92  MET92       0.1570
     77  C         36.4540  -14.4150   35.0210 C.2    92  MET92       0.2261
     78  O         35.3340  -13.8840   35.1220 O.2    92  MET92      -0.2867
     79  CB        36.9640  -15.5300   32.8090 C.3    92  MET92       0.0387
     80  CG        37.3190  -15.3570   31.3350 C.3    92  MET92       0.0595
     81  SD        36.4740  -16.5080   30.1940 S.3    92  MET92      -0.1393
     82  CE        37.4470  -17.9580   30.4280 C.3    92  MET92       0.0692
     83  N         54.8690  -19.9370   25.8500 N.3   122  GLN122     -0.1245
     84  CA        53.7560  -19.6100   24.9790 C.3   122  GLN122      0.1566
     85  C         53.0390  -18.3380   25.4280 C.2   122  GLN122      0.2260
     86  O         53.1390  -17.9320   26.5870 O.2   122  GLN122     -0.2867
     87  CB        52.8040  -20.8050   24.7770 C.3   122  GLN122      0.0367
     88  CG        51.8390  -21.1080   25.9010 C.3   122  GLN122      0.0905
     89  CD        50.5350  -21.6690   25.3740 C.2   122  GLN122      0.2608
     90  OE1       50.4330  -22.2070   24.2580 O.2   122  GLN122     -0.2717
     91  NE2       49.4950  -21.5380   26.1630 N.am  122  GLN122     -0.0878
     92  N         49.2360  -16.3630   25.1450 N.3   124  GLU124     -0.1245
     93  CA        47.8210  -16.5740   24.8990 C.3   124  GLU124      0.1567
     94  C         47.0490  -15.2930   25.0280 C.2   124  GLU124      0.2260
     95  O         47.2930  -14.5030   25.9280 O.2   124  GLU124     -0.2867
     96  CB        47.2550  -17.6480   25.8150 C.3   124  GLU124      0.0388
     97  CG        47.5550  -19.0500   25.2990 C.3   124  GLU124      0.1160
     98  CD        46.5110  -20.1200   25.5680 C.2   124  GLU124      0.3649
     99  OE1       45.4560  -19.8040   26.1640 O.co2 124  GLU124     -0.2457
    100  OE2       46.7360  -21.2760   25.1420 O.co2 124  GLU124     -0.2457
    101  N         43.1420  -13.1730   24.9770 N.3   126  LEU126     -0.1245
    102  CA        41.7290  -13.2560   25.2650 C.3   126  LEU126      0.1561
    103  C         41.0990  -11.8880   25.1970 C.2   126  LEU126      0.2260
    104  O         41.5150  -10.9750   25.9260 O.2   126  LEU126     -0.2867
    105  CB        41.4420  -13.9120   26.6350 C.3   126  LEU126      0.0270
    106  CG        39.9290  -14.0320   26.9970 C.3   126  LEU126      0.0019
    107  CD1       39.2260  -15.0560   26.0960 C.3   126  LEU126      0.0001
    108  CD2       39.7120  -14.3000   28.4930 C.3   126  LEU126      0.0001
    109  N         39.6440  -28.0430   15.1410 N.3   161  PHE161     -0.1227
    110  CA        38.8410  -28.3040   16.3240 C.3   161  PHE161      0.1736
    111  C         39.6350  -28.1540   17.6080 C.2   161  PHE161      0.2595
    112  O         40.6760  -28.7890   17.7440 O.2   161  PHE161     -0.2718
    113  CB        38.2230  -29.7010   16.2670 C.3   161  PHE161      0.0547
    114  CG        37.3300  -29.9990   17.4500 C.ar  161  PHE161     -0.0202
    115  CD1       35.9930  -29.6200   17.4450 C.ar  161  PHE161     -0.0042
    116  CD2       37.8400  -30.6060   18.5930 C.ar  161  PHE161     -0.0042
    117  CE1       35.1790  -29.8640   18.5440 C.ar  161  PHE161     -0.0003
    118  CE2       37.0340  -30.8080   19.7060 C.ar  161  PHE161     -0.0003
    119  CZ        35.7090  -30.4410   19.6700 C.ar  161  PHE161     -0.0000
    120  N         39.1060  -27.3750   18.5760 N.am  162  PHE162     -0.1963
    121  CA        39.6590  -27.2160   19.9280 C.3   162  PHE162      0.1756
    122  C         38.4820  -27.2970   20.9220 C.2   162  PHE162      0.2461
    123  O         37.4020  -26.7960   20.6020 O.2   162  PHE162     -0.2730
    124  CB        40.4580  -25.9080   20.0980 C.3   162  PHE162      0.0574
    125  CG        41.4760  -25.6090   19.0200 C.ar  162  PHE162     -0.0200
    126  CD1       42.3810  -26.5790   18.5990 C.ar  162  PHE162     -0.0042
    127  CD2       41.5670  -24.3430   18.4590 C.ar  162  PHE162     -0.0042
    128  CE1       43.2630  -26.3290   17.5480 C.ar  162  PHE162     -0.0003
    129  CE2       42.4870  -24.0790   17.4370 C.ar  162  PHE162     -0.0003
    130  CZ        43.3310  -25.0760   16.9930 C.ar  162  PHE162     -0.0000
    131  N         38.6150  -27.9560   22.0950 N.am  163  PRO163     -0.2716
    132  CA        37.4640  -28.0400   23.0150 C.3   163  PRO163      0.1536
    133  C         36.9420  -26.7160   23.6020 C.2   163  PRO163      0.2599
    134  O         35.7590  -26.6320   23.9510 O.2   163  PRO163     -0.2715
    135  CB        37.9410  -28.9770   24.1310 C.3   163  PRO163      0.0310
    136  CG        39.2560  -29.4820   23.7210 C.3   163  PRO163      0.0237
    137  CD        39.8050  -28.6220   22.6540 C.3   163  PRO163      0.0939
    138  N         37.8070  -25.6940   23.7000 N.am  164  PHE164     -0.1960
    139  CA        37.5350  -24.3960   24.3330 C.3   164  PHE164      0.1771
    140  C         36.9860  -23.3290   23.3740 C.2   164  PHE164      0.2620
    141  O         36.4730  -22.3080   23.8380 O.2   164  PHE164     -0.2715
    142  CB        38.8030  -23.8880   25.0830 C.3   164  PHE164      0.0574
    143  CG        40.1070  -24.4050   24.5010 C.ar  164  PHE164     -0.0200
    144  CD1       40.7300  -23.7420   23.4570 C.ar  164  PHE164     -0.0042
    145  CD2       40.6570  -25.6030   24.9420 C.ar  164  PHE164     -0.0042
    146  CE1       41.9030  -24.2450   22.8920 C.ar  164  PHE164     -0.0003
    147  CE2       41.8280  -26.1110   24.3720 C.ar  164  PHE164     -0.0003
    148  CZ        42.4440  -25.4320   23.3470 C.ar  164  PHE164     -0.0000
    149  N         37.0940  -23.5560   22.0540 N.am  165  THR165     -0.1951
    150  CA        36.6480  -22.6040   21.0140 C.3   165  THR165      0.1897
    151  C         35.7040  -23.2350   19.9670 C.2   165  THR165      0.2313
    152  O         35.7750  -24.4400   19.6740 O.2   165  THR165     -0.2863
    153  CB        37.8540  -21.9590   20.2920 C.3   165  THR165      0.1794
    154  OG1       38.6830  -22.9840   19.7520 O.3   165  THR165     -0.2208
    155  CG2       38.6820  -21.0540   21.1850 C.3   165  THR165      0.0378
    156  N         50.1520  -20.6190   14.4000 N.3   186  MET186     -0.1230
    157  CA        49.3350  -20.4420   15.6010 C.3   186  MET186      0.1702
    158  C         47.9050  -20.9220   15.4170 C.2   186  MET186      0.2593
    159  O         47.4810  -21.2290   14.3010 O.2   186  MET186     -0.2718
    160  CB        49.3720  -18.9560   16.0880 C.3   186  MET186      0.0401
    161  CG        48.6040  -17.9720   15.2250 C.3   186  MET186      0.0596
    162  SD        48.9810  -16.2560   15.6250 S.3   186  MET186     -0.1393
    163  CE        48.2180  -16.0700   17.2400 C.3   186  MET186      0.0692
    164  N         47.1750  -20.9490   16.5200 N.am  187  GLY187     -0.1942
    165  CA        45.7630  -21.3020   16.5640 C.3   187  GLY187      0.2014
    166  C         44.9620  -20.1710   17.1710 C.2   187  GLY187      0.2639
    167  O         45.5050  -19.2800   17.8340 O.2   187  GLY187     -0.2714
    168  N         43.6660  -20.1980   16.9450 N.am  188  CYS188     -0.1967
    169  CA        42.7410  -19.1960   17.4660 C.3   188  CYS188      0.1712
    170  C         41.3340  -19.7550   17.3690 C.2   188  CYS188      0.2296
    171  O         41.1560  -20.8560   16.8410 O.2   188  CYS188     -0.2864
    172  CB        42.8790  -17.8750   16.7100 C.3   188  CYS188      0.0983
    173  SG        42.5990  -18.0100   14.9310 S.3   188  CYS188     -0.0798
    174  N         35.6560  -18.0400   21.6130 N.3   191  VAL191     -0.1245
    175  CA        35.4690  -18.6920   22.9170 C.3   191  VAL191      0.1561
    176  C         34.1150  -19.4180   22.9800 C.2   191  VAL191      0.2260
    177  O         33.0720  -18.7930   22.7420 O.2   191  VAL191     -0.2867
    178  CB        35.6340  -17.6950   24.0920 C.3   191  VAL191      0.0252
    179  CG1       35.4870  -18.3960   25.4350 C.3   191  VAL191      0.0019
    180  CG2       36.9700  -16.9610   24.0160 C.3   191  VAL191      0.0019
    181  N         32.4240  -22.2880   27.9980 N.3   195  VAL195     -0.1245
    182  CA        33.6470  -21.7880   28.6410 C.3   195  VAL195      0.1561
    183  C         33.3410  -20.4680   29.4040 C.2   195  VAL195      0.2260
    184  O         33.6440  -20.3750   30.6060 O.2   195  VAL195     -0.2867
    185  CB        34.8480  -21.7080   27.6510 C.3   195  VAL195      0.0252
    186  CG1       35.9950  -20.8630   28.2100 C.3   195  VAL195      0.0019
    187  CG2       35.3370  -23.1140   27.2870 C.3   195  VAL195      0.0019
    188  N         39.9490  -16.0460   21.4470 N.3   210  ALA210     -0.1231
    189  CA        41.1990  -16.3790   22.1100 C.3   210  ALA210      0.1694
    190  C         42.1530  -16.9520   21.0840 C.2   210  ALA210      0.2592
    191  O         41.7350  -17.2840   19.9750 O.2   210  ALA210     -0.2718
    192  CB        40.9540  -17.3680   23.2300 C.3   210  ALA210      0.0304
    193  N         43.4390  -17.0160   21.4250 N.am  211  PHE211     -0.1962
    194  CA        44.4790  -17.5540   20.5460 C.3   211  PHE211      0.1771
    195  C         45.6800  -17.9950   21.3670 C.2   211  PHE211      0.2620
    196  O         45.8000  -17.6470   22.5450 O.2   211  PHE211     -0.2715
    197  CB        44.9090  -16.5120   19.4860 C.3   211  PHE211      0.0574
    198  CG        45.3230  -15.1750   20.0510 C.ar  211  PHE211     -0.0200
    199  CD1       46.6380  -14.9410   20.4400 C.ar  211  PHE211     -0.0042
    200  CD2       44.3950  -14.1520   20.2100 C.ar  211  PHE211     -0.0042
    201  CE1       47.0130  -13.7070   20.9850 C.ar  211  PHE211     -0.0003
    202  CE2       44.7730  -12.9190   20.7440 C.ar  211  PHE211     -0.0003
    203  CZ        46.0850  -12.6980   21.1090 C.ar  211  PHE211     -0.0000
    204  N         46.5640  -18.7290   20.7240 N.am  212  GLY212     -0.1940
    205  CA        47.8130  -19.1730   21.3150 C.3   212  GLY212      0.2014
    206  C         48.9150  -19.2910   20.2790 C.2   212  GLY212      0.2638
    207  O         48.6490  -19.5500   19.1000 O.2   212  GLY212     -0.2714
    208  N         50.1680  -19.0870   20.7210 N.am  213  MET213     -0.1976
    209  CA        51.3560  -19.2280   19.8730 C.3   213  MET213      0.1605
    210  C         52.5920  -19.6640   20.6960 C.2   213  MET213      0.2287
    211  O         52.7640  -19.2180   21.8420 O.2   213  MET213     -0.2864
    212  CB        51.6240  -17.9580   19.0430 C.3   213  MET213      0.0413
    213  CG        52.1800  -16.8150   19.8470 C.3   213  MET213      0.0598
    214  SD        51.4880  -15.2420   19.3520 S.3   213  MET213     -0.1393
    215  CE        50.2140  -15.0270   20.5750 C.3   213  MET213      0.0692
@<TRIPOS>BOND
     1   159   158    2
     2   156   157    1
     3   173   172    1
     4   109   110    1
     5   161   162    1
     6   161   160    1
     7   158   157    1
     8   158   164   am
     9   157   160    1
    10   162   163    1
    11   113   110    1
    12   113   114    1
    13   110   111    1
    14   164   165    1
    15   165   166    1
    16   172   169    1
    17   171   170    2
    18   168   166   am
    19   168   169    1
    20   130   129   ar
    21   130   128   ar
    22   166   167    2
    23   170   169    1
    24   129   127   ar
    25   115   114   ar
    26   115   117   ar
    27   114   116   ar
    28   128   126   ar
    29   111   112    2
    30   111   120   am
    31   127   125   ar
    32   117   119   ar
    33   120   121    1
    34   116   118   ar
    35   126   125   ar
    36   125   124    1
    37   212   213    1
    38   212   209    1
    39   207   206    2
    40   214   213    1
    41   214   215    1
    42   197   198    1
    43   197   194    1
    44   119   118   ar
    45   152   151    2
    46   154   153    1
    47   209   210    1
    48   209   208    1
    49   121   124    1
    50   121   122    1
    51   151   150    1
    52   191   190    2
    53   198   200   ar
    54   198   199   ar
    55   200   202   ar
    56   206   208   am
    57   206   205    1
    58   153   150    1
    59   153   155    1
    60   199   201   ar
    61   194   195    1
    62   194   193    1
    63   123   122    2
    64   210   211    2
    65   204   205    1
    66   204   195   am
    67   202   203   ar
    68   122   131   am
    69   201   203   ar
    70   150   149    1
    71   190   193   am
    72   190   189    1
    73   195   196    2
    74   188   189    1
    75   174   175    1
    76   149   140   am
    77   131   137    1
    78   131   132    1
    79   189   192    1
    80   137   136    1
    81   177   176    2
    82   146   148   ar
    83   146   144   ar
    84   175   176    1
    85   175   178    1
    86   132   133    1
    87   132   135    1
    88   148   147   ar
    89   140   141    2
    90   140   139    1
    91   144   143   ar
    92   133   138   am
    93   133   134    2
    94   138   139    1
    95   136   135    1
    96   180   178    1
    97   178   179    1
    98    90    89    2
    99   139   142    1
   100    36    37   ar
   101    36    34   ar
   102   147   145   ar
   103    37    35   ar
   104   143   145   ar
   105   143   142    1
   106    87    84    1
   107    87    88    1
   108    93    94    1
   109    93    92    1
   110    93    96    1
   111   101   102    1
   112    84    85    1
   113    84    83    1
   114    94    95    2
   115   100    98   ar
   116   103   102    1
   117   103   104    2
   118   102   105    1
   119    97    98    1
   120    97    96    1
   121    89    88    1
   122    89    91   am
   123    34    33   ar
   124    85    86    2
   125    98    99   ar
   126    35    33   ar
   127   107   106    1
   128    33    32    1
   129   105   106    1
   130    42    39    1
   131    38    39    1
   132    66    65    2
   133   106   108    1
   134    39    40    1
   135   187   185    1
   136    15    14    2
   137    58    57    1
   138    25    27    1
   139    25    24    1
   140    49    48   ar
   141    49    51   ar
   142    32    29    1
   143    29    30    1
   144    29    28    1
   145    67    65   am
   146   185   186    1
   147   185   182    1
   148    30    31    2
   149    47    48    1
   150    47    44    1
   151    65    64    1
   152   181   182    1
   153    48    50   ar
   154    51    52   ar
   155    14    13    1
   156    21    24    1
   157    21    20    1
   158    21    22    1
   159    44    43    1
   160    44    45    1
   161    40    41    2
   162   182   183    1
   163    26    24    1
   164    57    54    1
   165    19    17    1
   166    16    13    1
   167    16    17    1
   168    64    63    1
   169    53    54    1
   170    13    12    1
   171   183   184    2
   172    54    55    1
   173    50    52   ar
   174    45    46    2
   175    22    23    2
   176    17    18    1
   177    63    60    1
   178    81    82    1
   179    81    80    1
   180     9     7   ar
   181     9    11   ar
   182     7     6   ar
   183    55    56    2
   184     4     3    2
   185    80    79    1
   186    60    59    1
   187    60    61    1
   188    11    10   ar
   189     2     3    1
   190     2     5    1
   191     2     1    1
   192     6     5    1
   193     6     8   ar
   194    61    62    2
   195    61    68   am
   196    74    72    1
   197    68    69    1
   198    79    76    1
   199    10     8   ar
   200    69    72    1
   201    69    70    1
   202    72    73    1
   203    76    75    1
   204    76    77    1
   205    70    71    2
   206    77    78    2
