@<TRIPOS>MOLECULE
tmp/4p74D00.pdb
 190 180 0 0 0
SMALL
GASTEIGER

@<TRIPOS>ATOM
      1  N         36.9770  -24.8590   30.5960 N.3    57  LEU57      -0.1245
      2  CA        37.2570  -24.7270   29.1760 C.3    57  LEU57       0.1561
      3  C         36.5380  -25.7350   28.2970 C.2    57  LEU57       0.2260
      4  O         36.9290  -25.9520   27.1330 O.2    57  LEU57      -0.2867
      5  CB        38.7650  -24.7790   28.9540 C.3    57  LEU57       0.0270
      6  CG        39.5200  -23.6190   29.5560 C.3    57  LEU57       0.0019
      7  CD1       40.9760  -23.9390   29.6740 C.3    57  LEU57       0.0001
      8  CD2       39.3100  -22.3690   28.7500 C.3    57  LEU57       0.0001
      9  N         45.3940  -20.6810   29.1140 N.3    85  SER85      -0.1217
     10  CA        43.9290  -20.5310   29.0990 C.3    85  SER85       0.1889
     11  C         43.3840  -20.3450   30.5330 C.2    85  SER85       0.2288
     12  O         42.5740  -19.4380   30.7090 O.2    85  SER85      -0.2866
     13  CB        43.2550  -21.7340   28.4400 C.3    85  SER85       0.2089
     14  OG        43.8640  -22.1930   27.2430 O.3    85  SER85      -0.2183
     15  N         42.9780  -16.7380   31.5290 N.3    88  GLN88      -0.1231
     16  CA        41.8000  -16.1320   30.9110 C.3    88  GLN88       0.1698
     17  C         40.5210  -16.4970   31.6630 C.2    88  GLN88       0.2592
     18  O         39.5830  -15.6980   31.6980 O.2    88  GLN88      -0.2718
     19  CB        41.7060  -16.5520   29.4540 C.3    88  GLN88       0.0381
     20  CG        42.6650  -15.7420   28.6170 C.3    88  GLN88       0.0905
     21  CD        43.1490  -16.4430   27.4170 C.2    88  GLN88       0.2608
     22  OE1       43.5400  -17.6090   27.4530 O.2    88  GLN88      -0.2717
     23  NE2       43.2390  -15.6990   26.3600 N.am   88  GLN88      -0.0878
     24  N         40.5080  -17.6780   32.3000 N.am   89  VAL89      -0.1980
     25  CA        39.3930  -18.1410   33.1040 C.3    89  VAL89       0.1595
     26  C         39.3440  -17.3050   34.3840 C.2    89  VAL89       0.2287
     27  O         38.2970  -16.7340   34.7090 O.2    89  VAL89      -0.2864
     28  CB        39.4730  -19.6680   33.3880 C.3    89  VAL89       0.0276
     29  CG1       38.3840  -20.1130   34.3650 C.3    89  VAL89       0.0022
     30  CG2       39.3890  -20.4640   32.0940 C.3    89  VAL89       0.0022
     31  N         37.8980  -13.9100   33.7040 N.3    92  MET92      -0.1245
     32  CA        36.4490  -13.9800   33.4780 C.3    92  MET92       0.1570
     33  C         35.6500  -14.1100   34.7710 C.2    92  MET92       0.2261
     34  O         34.4810  -13.6950   34.8240 O.2    92  MET92      -0.2867
     35  CB        36.1090  -15.1820   32.6020 C.3    92  MET92       0.0387
     36  CG        36.4070  -14.9810   31.1490 C.3    92  MET92       0.0595
     37  SD        35.4200  -16.0550   30.0960 S.3    92  MET92      -0.1393
     38  CE        35.9740  -17.6430   30.6210 C.3    92  MET92       0.0692
     39  N         57.6440  -24.9710   27.6100 N.3   120  PHE120     -0.1241
     40  CA        57.6650  -23.9850   26.5240 C.3   120  PHE120      0.1605
     41  C         56.7950  -22.7900   26.8440 C.2   120  PHE120      0.2264
     42  O         56.1810  -22.7260   27.9060 O.2   120  PHE120     -0.2867
     43  CB        57.2940  -24.5960   25.1620 C.3   120  PHE120      0.0534
     44  CG        55.9230  -25.2300   25.1000 C.ar  120  PHE120     -0.0203
     45  CD1       55.6990  -26.5060   25.6250 C.ar  120  PHE120     -0.0042
     46  CD2       54.8770  -24.5980   24.4350 C.ar  120  PHE120     -0.0042
     47  CE1       54.4280  -27.1020   25.5560 C.ar  120  PHE120     -0.0003
     48  CE2       53.6140  -25.2090   24.3350 C.ar  120  PHE120     -0.0003
     49  CZ        53.3940  -26.4500   24.9160 C.ar  120  PHE120     -0.0000
     50  N         53.8850  -19.8000   25.4630 N.3   122  GLN122     -0.1245
     51  CA        52.8090  -19.4540   24.5680 C.3   122  GLN122      0.1566
     52  C         52.0800  -18.1970   25.0150 C.2   122  GLN122      0.2260
     53  O         52.1330  -17.8510   26.1950 O.2   122  GLN122     -0.2867
     54  CB        51.8710  -20.6470   24.3590 C.3   122  GLN122      0.0367
     55  CG        51.0740  -21.0920   25.5640 C.3   122  GLN122      0.0905
     56  CD        49.9920  -22.0560   25.1610 C.2   122  GLN122      0.2608
     57  OE1       50.2230  -23.0670   24.4840 O.2   122  GLN122     -0.2717
     58  NE2       48.7950  -21.7720   25.6010 N.am  122  GLN122     -0.0878
     59  N         48.2840  -16.4490   24.8320 N.3   124  GLU124     -0.1231
     60  CA        46.8680  -16.6610   24.5180 C.3   124  GLU124      0.1699
     61  C         46.0800  -15.3510   24.6280 C.2   124  GLU124      0.2593
     62  O         46.3980  -14.5030   25.4610 O.2   124  GLU124     -0.2718
     63  CB        46.2590  -17.7610   25.3770 C.3   124  GLU124      0.0402
     64  CG        46.7230  -19.1580   24.9590 C.3   124  GLU124      0.1161
     65  CD        45.8540  -20.3260   25.3910 C.2   124  GLU124      0.3649
     66  OE1       44.8460  -20.0810   26.0890 O.co2 124  GLU124     -0.2457
     67  OE2       46.1330  -21.4730   24.9700 O.co2 124  GLU124     -0.2457
     68  N         45.1010  -15.1650   23.7580 N.am  125  GLY125     -0.1942
     69  CA        44.3160  -13.9410   23.7630 C.3   125  GLY125      0.2014
     70  C         42.8450  -14.1630   23.9810 C.2   125  GLY125      0.2638
     71  O         42.3310  -15.2580   23.7210 O.2   125  GLY125     -0.2714
     72  N         42.1800  -13.1420   24.5370 N.am  126  LEU126     -0.1977
     73  CA        40.7420  -13.1770   24.8040 C.3   126  LEU126      0.1596
     74  C         40.1400  -11.7840   24.7330 C.2   126  LEU126      0.2287
     75  O         40.6660  -10.8560   25.3370 O.2   126  LEU126     -0.2864
     76  CB        40.4320  -13.8110   26.1740 C.3   126  LEU126      0.0297
     77  CG        38.9660  -13.9010   26.5770 C.3   126  LEU126      0.0022
     78  CD1       38.2360  -14.8670   25.6850 C.3   126  LEU126      0.0001
     79  CD2       38.8360  -14.2920   28.0410 C.3   126  LEU126      0.0001
     80  N         38.2500  -27.1620   18.6990 N.3   162  PHE162     -0.1241
     81  CA        38.7050  -26.9690   20.0790 C.3   162  PHE162      0.1605
     82  C         37.4650  -27.0660   20.9670 C.2   162  PHE162      0.2264
     83  O         36.3840  -26.5750   20.5710 O.2   162  PHE162     -0.2867
     84  CB        39.3640  -25.6050   20.3130 C.3   162  PHE162      0.0534
     85  CG        40.5390  -25.2750   19.4260 C.ar  162  PHE162     -0.0203
     86  CD1       41.7840  -25.8550   19.6460 C.ar  162  PHE162     -0.0042
     87  CD2       40.4130  -24.3560   18.3870 C.ar  162  PHE162     -0.0042
     88  CE1       42.8640  -25.5660   18.8050 C.ar  162  PHE162     -0.0003
     89  CE2       41.4980  -24.0550   17.5590 C.ar  162  PHE162     -0.0003
     90  CZ        42.7110  -24.6710   17.7670 C.ar  162  PHE162     -0.0000
     91  N         36.8560  -25.4210   23.7260 N.3   164  PHE164     -0.1227
     92  CA        36.6440  -24.0690   24.2410 C.3   164  PHE164      0.1736
     93  C         36.1900  -23.0370   23.1990 C.2   164  PHE164      0.2596
     94  O         35.7520  -21.9510   23.5880 O.2   164  PHE164     -0.2718
     95  CB        37.8870  -23.5510   24.9940 C.3   164  PHE164      0.0547
     96  CG        39.1970  -24.0600   24.4460 C.ar  164  PHE164     -0.0202
     97  CD1       39.8760  -23.3520   23.4660 C.ar  164  PHE164     -0.0042
     98  CD2       39.7210  -25.2790   24.8690 C.ar  164  PHE164     -0.0042
     99  CE1       41.0800  -23.8090   22.9600 C.ar  164  PHE164     -0.0003
    100  CE2       40.9150  -25.7610   24.3320 C.ar  164  PHE164     -0.0003
    101  CZ        41.5970  -25.0060   23.3920 C.ar  164  PHE164     -0.0000
    102  N         36.2840  -23.3530   21.8850 N.am  165  THR165     -0.1953
    103  CA        35.8600  -22.4320   20.8130 C.3   165  THR165      0.1897
    104  C         34.9550  -23.0930   19.7710 C.2   165  THR165      0.2313
    105  O         35.0760  -24.2970   19.5110 O.2   165  THR165     -0.2863
    106  CB        37.0580  -21.7410   20.1280 C.3   165  THR165      0.1794
    107  OG1       37.9770  -22.7200   19.6860 O.3   165  THR165     -0.2208
    108  CG2       37.7590  -20.7670   21.0040 C.3   165  THR165      0.0378
    109  N         50.7220  -21.3690   11.8970 N.3   186  VAL186     -0.1231
    110  CA        51.4460  -20.6320   12.9410 C.3   186  VAL186      0.1692
    111  C         50.6960  -20.4500   14.2600 C.2   186  VAL186      0.2592
    112  O         51.3320  -20.1520   15.2860 O.2   186  VAL186     -0.2718
    113  CB        51.9610  -19.2620   12.4420 C.3   186  VAL186      0.0266
    114  CG1       53.1110  -19.4730   11.4680 C.3   186  VAL186      0.0020
    115  CG2       50.8450  -18.4060   11.8240 C.3   186  VAL186      0.0020
    116  N         49.3600  -20.5540   14.2210 N.am  187  MET187     -0.1965
    117  CA        48.5180  -20.3500   15.3970 C.3   187  MET187      0.1736
    118  C         47.0800  -20.8390   15.1770 C.2   187  MET187      0.2617
    119  O         46.7050  -21.1750   14.0570 O.2   187  MET187     -0.2715
    120  CB        48.5350  -18.8680   15.8400 C.3   187  MET187      0.0427
    121  CG        47.7650  -17.9330   14.9330 C.3   187  MET187      0.0599
    122  SD        48.0160  -16.1890   15.4180 S.3   187  MET187     -0.1393
    123  CE        47.1620  -16.1250   17.0680 C.3   187  MET187      0.0692
    124  N         46.3070  -20.8730   16.2570 N.am  188  GLY188     -0.1940
    125  CA        44.8970  -21.2330   16.2530 C.3   188  GLY188      0.2014
    126  C         44.0920  -20.1490   16.9380 C.2   188  GLY188      0.2639
    127  O         44.6400  -19.2940   17.6460 O.2   188  GLY188     -0.2714
    128  N         42.7780  -20.1730   16.7100 N.am  189  CYS189     -0.1967
    129  CA        41.8120  -19.2110   17.2500 C.3   189  CYS189      0.1712
    130  C         40.4190  -19.7900   17.1390 C.2   189  CYS189      0.2296
    131  O         40.2540  -20.9370   16.7370 O.2   189  CYS189     -0.2864
    132  CB        41.9110  -17.8680   16.5230 C.3   189  CYS189      0.0983
    133  SG        41.6070  -17.9670   14.7370 S.3   189  CYS189     -0.0798
    134  N         34.6970  -17.7970   21.2870 N.3   192  VAL192     -0.1245
    135  CA        34.5200  -18.4710   22.5910 C.3   192  VAL192      0.1561
    136  C         33.2110  -19.3360   22.6490 C.2   192  VAL192      0.2260
    137  O         32.1510  -18.8860   22.2260 O.2   192  VAL192     -0.2867
    138  CB        34.6410  -17.5080   23.8090 C.3   192  VAL192      0.0252
    139  CG1       34.5680  -18.2660   25.1410 C.3   192  VAL192      0.0019
    140  CG2       35.9340  -16.7150   23.7310 C.3   192  VAL192      0.0019
    141  N         31.6080  -22.0590   27.8170 N.3   196  VAL196     -0.1245
    142  CA        32.8000  -21.5090   28.4740 C.3   196  VAL196      0.1561
    143  C         32.4410  -20.2040   29.2060 C.2   196  VAL196      0.2260
    144  O         32.8470  -19.9970   30.3650 O.2   196  VAL196     -0.2867
    145  CB        33.9940  -21.3560   27.4840 C.3   196  VAL196      0.0252
    146  CG1       35.1390  -20.5310   28.0860 C.3   196  VAL196      0.0019
    147  CG2       34.5060  -22.7170   27.0470 C.3   196  VAL196      0.0019
    148  N         38.9170  -15.9200   21.0270 N.3   211  ALA211     -0.1231
    149  CA        40.1810  -16.2500   21.6700 C.3   211  ALA211      0.1694
    150  C         41.1710  -16.7560   20.6270 C.2   211  ALA211      0.2592
    151  O         40.7610  -17.1360   19.5210 O.2   211  ALA211     -0.2718
    152  CB        39.9700  -17.2770   22.7580 C.3   211  ALA211      0.0304
    153  N         42.4740  -16.7180   20.9600 N.am  212  PHE212     -0.1962
    154  CA        43.5430  -17.1630   20.0780 C.3   212  PHE212      0.1771
    155  C         44.7120  -17.6900   20.8920 C.2   212  PHE212      0.2620
    156  O         44.8800  -17.3200   22.0500 O.2   212  PHE212     -0.2715
    157  CB        43.9880  -16.0250   19.1410 C.3   212  PHE212      0.0574
    158  CG        44.5080  -14.7600   19.7970 C.ar  212  PHE212     -0.0200
    159  CD1       45.7720  -14.7200   20.3640 C.ar  212  PHE212     -0.0042
    160  CD2       43.7500  -13.5970   19.7960 C.ar  212  PHE212     -0.0042
    161  CE1       46.2520  -13.5650   20.9710 C.ar  212  PHE212     -0.0003
    162  CE2       44.2350  -12.4270   20.3980 C.ar  212  PHE212     -0.0003
    163  CZ        45.4830  -12.4260   20.9830 C.ar  212  PHE212     -0.0000
    164  N         45.5070  -18.5420   20.2830 N.am  213  GLY213     -0.1940
    165  CA        46.6740  -19.1360   20.9180 C.3   213  GLY213      0.2014
    166  C         47.8250  -19.2840   19.9430 C.2   213  GLY213      0.2639
    167  O         47.6150  -19.5090   18.7470 O.2   213  GLY213     -0.2714
    168  N         49.0520  -19.1490   20.4440 N.am  214  MET214     -0.1963
    169  CA        50.2650  -19.2980   19.6300 C.3   214  MET214      0.1736
    170  C         51.4550  -19.7440   20.4930 C.2   214  MET214      0.2617
    171  O         51.5340  -19.3570   21.6590 O.2   214  MET214     -0.2715
    172  CB        50.6050  -17.9840   18.9390 C.3   214  MET214      0.0427
    173  CG        51.0450  -16.9130   19.8990 C.3   214  MET214      0.0599
    174  SD        50.8740  -15.3330   19.1210 S.3   214  MET214     -0.1393
    175  CE        49.3190  -14.8170   19.7590 C.3   214  MET214      0.0692
    176  N         52.3810  -20.4910   19.8930 N.am  215  GLY215     -0.1955
    177  CA        53.6150  -20.9060   20.5510 C.3   215  GLY215      0.1869
    178  C         54.7290  -19.9050   20.2880 C.2   215  GLY215      0.2309
    179  O         54.9900  -19.5480   19.1240 O.2   215  GLY215     -0.2863
    180  N         57.9610  -21.4530   18.3460 N.3   218  ARG218     -0.1245
    181  CA        57.6400  -21.6440   16.9240 C.3   218  ARG218      0.1563
    182  C         57.8190  -20.3170   16.1540 C.2   218  ARG218      0.2260
    183  O         58.4880  -20.2920   15.1140 O.2   218  ARG218     -0.2867
    184  CB        56.2020  -22.2060   16.7770 C.3   218  ARG218      0.0307
    185  CG        55.6420  -22.2370   15.3350 C.3   218  ARG218      0.0489
    186  CD        54.8910  -23.5080   14.9420 C.3   218  ARG218      0.2205
    187  NE        53.8920  -23.8660   15.9510 N.pl3 218  ARG218     -0.0865
    188  CZ        53.9940  -24.9030   16.7780 C.cat 218  ARG218      0.5346
    189  NH1       55.0000  -25.7660   16.6550 N.pl3 218  ARG218      0.1354
    190  NH2       53.0780  -25.0990   17.7200 N.pl3 218  ARG218      0.1354
@<TRIPOS>BOND
     1   114   113    1
     2   115   113    1
     3   109   110    1
     4   113   110    1
     5   110   111    1
     6   119   118    2
     7   116   111   am
     8   116   117    1
     9   111   112    2
    10   133   132    1
    11   121   122    1
    12   121   120    1
    13   186   185    1
    14   186   187    1
    15   183   182    2
    16   118   117    1
    17   118   124   am
    18   185   184    1
    19   117   120    1
    20   122   123    1
    21   187   188    2
    22   182   181    1
    23   125   124    1
    24   125   126    1
    25   132   129    1
    26   189   188    1
    27   128   126   am
    28   128   129    1
    29   131   130    2
    30   184   181    1
    31   188   190    1
    32   181   180    1
    33   126   127    2
    34   130   129    1
    35    89    90   ar
    36    89    87   ar
    37    90    88   ar
    38    87    85   ar
    39    80    81    1
    40   167   166    2
    41    88    86   ar
    42   172   169    1
    43   172   173    1
    44   174   175    1
    45   174   173    1
    46   179   178    2
    47   157   158    1
    48   157   154    1
    49    85    86   ar
    50    85    84    1
    51   105   104    2
    52   151   150    2
    53   169   168    1
    54   169   170    1
    55   107   106    1
    56   104   103    1
    57   160   158   ar
    58   160   162   ar
    59   158   159   ar
    60   176   170   am
    61   176   177    1
    62   166   168   am
    63   166   165    1
    64   154   155    1
    65   154   153    1
    66    81    84    1
    67    81    82    1
    68   106   103    1
    69   106   108    1
    70   164   155   am
    71   164   165    1
    72   178   177    1
    73   159   161   ar
    74   162   163   ar
    75   170   171    2
    76    83    82    2
    77   150   153   am
    78   150   149    1
    79   103   102    1
    80   155   156    2
    81   161   163   ar
    82   148   149    1
    83   134   135    1
    84   149   152    1
    85   102    93   am
    86   137   136    2
    87   135   136    1
    88   135   138    1
    89    99   101   ar
    90    99    97   ar
    91    93    94    2
    92    93    92    1
    93   101   100   ar
    94    97    96   ar
    95    71    70    2
    96    91    92    1
    97   140   138    1
    98    68    69    1
    99    68    61   am
   100    69    70    1
   101   138   139    1
   102    70    72   am
   103    92    95    1
   104   100    98   ar
   105    48    46   ar
   106    48    49   ar
   107    54    51    1
   108    54    55    1
   109    46    44   ar
   110    96    98   ar
   111    96    95    1
   112    57    56    2
   113    60    61    1
   114    60    59    1
   115    60    63    1
   116    72    73    1
   117    51    52    1
   118    51    50    1
   119    61    62    2
   120    74    73    1
   121    74    75    2
   122    73    76    1
   123    49    47   ar
   124    64    63    1
   125    64    65    1
   126    67    65   ar
   127    52    53    2
   128    44    43    1
   129    44    45   ar
   130    56    55    1
   131    56    58   am
   132    43    40    1
   133    65    66   ar
   134    47    45   ar
   135    78    77    1
   136    76    77    1
   137    23    21   am
   138    40    41    1
   139    40    39    1
   140    77    79    1
   141    41    42    2
   142   147   145    1
   143     4     3    2
   144    14    13    1
   145    21    22    2
   146    21    20    1
   147   145   146    1
   148   145   142    1
   149   141   142    1
   150     3     2    1
   151    13    10    1
   152   142   143    1
   153    20    19    1
   154     8     6    1
   155     5     2    1
   156     5     6    1
   157    10     9    1
   158    10    11    1
   159     2     1    1
   160   143   144    2
   161    19    16    1
   162     6     7    1
   163    37    38    1
   164    37    36    1
   165    11    12    2
   166    16    15    1
   167    16    17    1
   168    36    35    1
   169    17    18    2
   170    17    24   am
   171    30    28    1
   172    24    25    1
   173    35    32    1
   174    25    28    1
   175    25    26    1
   176    28    29    1
   177    32    31    1
   178    32    33    1
   179    26    27    2
   180    33    34    2
