@<TRIPOS>MOLECULE
tmp/4p75D00.pdb
 137 127 0 0 0
SMALL
GASTEIGER

@<TRIPOS>ATOM
      1  N         36.9640  -24.9590   30.7220 N.3    57  LEU57      -0.1245
      2  CA        37.2390  -24.8100   29.3020 C.3    57  LEU57       0.1561
      3  C         36.5180  -25.8160   28.4290 C.2    57  LEU57       0.2260
      4  O         36.9080  -26.0300   27.2650 O.2    57  LEU57      -0.2867
      5  CB        38.7490  -24.8550   29.0630 C.3    57  LEU57       0.0270
      6  CG        39.5170  -23.6910   29.6450 C.3    57  LEU57       0.0019
      7  CD1       40.9900  -23.9980   29.7460 C.3    57  LEU57       0.0001
      8  CD2       39.2730  -22.4380   28.8470 C.3    57  LEU57       0.0001
      9  N         45.3550  -20.7160   29.1870 N.3    85  SER85      -0.1217
     10  CA        43.8920  -20.5620   29.1720 C.3    85  SER85       0.1889
     11  C         43.3450  -20.3700   30.6020 C.2    85  SER85       0.2288
     12  O         42.5500  -19.4390   30.7690 O.2    85  SER85      -0.2866
     13  CB        43.2090  -21.7460   28.4940 C.3    85  SER85       0.2089
     14  OG        43.8490  -22.2020   27.3150 O.3    85  SER85      -0.2183
     15  N         42.9080  -16.7710   31.5950 N.3    88  GLN88      -0.1231
     16  CA        41.7350  -16.1750   30.9530 C.3    88  GLN88       0.1698
     17  C         40.4650  -16.5390   31.6930 C.2    88  GLN88       0.2592
     18  O         39.5350  -15.7350   31.7310 O.2    88  GLN88      -0.2718
     19  CB        41.6450  -16.5900   29.4920 C.3    88  GLN88       0.0381
     20  CG        42.5510  -15.7260   28.6640 C.3    88  GLN88       0.0905
     21  CD        43.1550  -16.4540   27.5370 C.2    88  GLN88       0.2608
     22  OE1       43.7050  -17.5440   27.6870 O.2    88  GLN88      -0.2717
     23  NE2       43.1030  -15.8390   26.4000 N.am   88  GLN88      -0.0878
     24  N         40.4430  -17.7280   32.3090 N.am   89  VAL89      -0.1980
     25  CA        39.3190  -18.1970   33.1120 C.3    89  VAL89       0.1595
     26  C         39.2580  -17.3510   34.4030 C.2    89  VAL89       0.2287
     27  O         38.2040  -16.7880   34.7180 O.2    89  VAL89      -0.2864
     28  CB        39.4140  -19.7150   33.4190 C.3    89  VAL89       0.0276
     29  CG1       38.3260  -20.1560   34.3930 C.3    89  VAL89       0.0022
     30  CG2       39.3770  -20.5380   32.1410 C.3    89  VAL89       0.0022
     31  N         37.7910  -13.9780   33.6890 N.3    92  MET92      -0.1245
     32  CA        36.3530  -14.0520   33.4270 C.3    92  MET92       0.1570
     33  C         35.5270  -14.2020   34.6990 C.2    92  MET92       0.2261
     34  O         34.3730  -13.7620   34.7360 O.2    92  MET92      -0.2867
     35  CB        36.0450  -15.2460   32.5360 C.3    92  MET92       0.0387
     36  CG        36.4050  -15.0290   31.0980 C.3    92  MET92       0.0595
     37  SD        35.5650  -16.1290   29.9280 S.3    92  MET92      -0.1393
     38  CE        36.0420  -17.7060   30.5110 C.3    92  MET92       0.0692
     39  N         53.8170  -19.8320   25.5900 N.3   122  GLN122     -0.1245
     40  CA        52.7410  -19.4940   24.6930 C.3   122  GLN122      0.1566
     41  C         52.0070  -18.2430   25.1500 C.2   122  GLN122      0.2260
     42  O         52.0480  -17.9040   26.3350 O.2   122  GLN122     -0.2867
     43  CB        51.8120  -20.6890   24.4910 C.3   122  GLN122      0.0367
     44  CG        51.0060  -21.0850   25.6930 C.3   122  GLN122      0.0905
     45  CD        49.9440  -22.0680   25.3000 C.2   122  GLN122      0.2608
     46  OE1       50.2020  -23.1230   24.7140 O.2   122  GLN122     -0.2717
     47  NE2       48.7260  -21.7470   25.6310 N.am  122  GLN122     -0.0878
     48  N         48.2620  -16.3900   24.9500 N.3   124  GLU124     -0.1245
     49  CA        46.8610  -16.6080   24.6360 C.3   124  GLU124      0.1567
     50  C         46.0940  -15.2910   24.7360 C.2   124  GLU124      0.2260
     51  O         46.4140  -14.4380   25.5480 O.2   124  GLU124     -0.2867
     52  CB        46.2510  -17.7130   25.4970 C.3   124  GLU124      0.0388
     53  CG        46.6920  -19.1200   25.0900 C.3   124  GLU124      0.1160
     54  CD        45.7980  -20.2760   25.5080 C.2   124  GLU124      0.3649
     55  OE1       44.7810  -20.0190   26.1840 O.co2 124  GLU124     -0.2457
     56  OE2       46.0710  -21.4240   25.0950 O.co2 124  GLU124     -0.2457
     57  N         42.1890  -13.0730   24.6350 N.3   126  LEU126     -0.1245
     58  CA        40.7560  -13.1100   24.8880 C.3   126  LEU126      0.1561
     59  C         40.1450  -11.7370   24.7980 C.2   126  LEU126      0.2260
     60  O         40.6510  -10.8070   25.4250 O.2   126  LEU126     -0.2867
     61  CB        40.4410  -13.7380   26.2620 C.3   126  LEU126      0.0270
     62  CG        38.9690  -13.8070   26.6630 C.3   126  LEU126      0.0019
     63  CD1       38.2270  -14.7820   25.7990 C.3   126  LEU126      0.0001
     64  CD2       38.8260  -14.1400   28.1270 C.3   126  LEU126      0.0001
     65  N         38.1970  -27.1910   18.8290 N.3   162  PHE162     -0.1241
     66  CA        38.6520  -27.0050   20.2100 C.3   162  PHE162      0.1605
     67  C         37.4270  -27.1280   21.0980 C.2   162  PHE162      0.2264
     68  O         36.3460  -26.6460   20.7030 O.2   162  PHE162     -0.2867
     69  CB        39.3020  -25.6440   20.4540 C.3   162  PHE162      0.0534
     70  CG        40.4890  -25.3250   19.5850 C.ar  162  PHE162     -0.0203
     71  CD1       41.7280  -25.9040   19.8280 C.ar  162  PHE162     -0.0042
     72  CD2       40.3750  -24.4340   18.5260 C.ar  162  PHE162     -0.0042
     73  CE1       42.8210  -25.6190   19.0030 C.ar  162  PHE162     -0.0003
     74  CE2       41.4780  -24.1290   17.7220 C.ar  162  PHE162     -0.0003
     75  CZ        42.6900  -24.7320   17.9620 C.ar  162  PHE162     -0.0000
     76  N         36.7960  -25.4960   23.8550 N.3   164  PHE164     -0.1227
     77  CA        36.5610  -24.1480   24.3820 C.3   164  PHE164      0.1736
     78  C         36.0950  -23.1160   23.3510 C.2   164  PHE164      0.2596
     79  O         35.6770  -22.0330   23.7490 O.2   164  PHE164     -0.2718
     80  CB        37.8010  -23.6230   25.1420 C.3   164  PHE164      0.0547
     81  CG        39.1160  -24.1140   24.5970 C.ar  164  PHE164     -0.0202
     82  CD1       39.7880  -23.3990   23.6270 C.ar  164  PHE164     -0.0042
     83  CD2       39.6570  -25.3230   25.0200 C.ar  164  PHE164     -0.0042
     84  CE1       40.9920  -23.8560   23.1130 C.ar  164  PHE164     -0.0003
     85  CE2       40.8620  -25.7760   24.5010 C.ar  164  PHE164     -0.0003
     86  CZ        41.5250  -25.0290   23.5590 C.ar  164  PHE164     -0.0000
     87  N         36.1760  -23.4210   22.0390 N.am  165  THR165     -0.1953
     88  CA        35.7550  -22.4780   20.9770 C.3   165  THR165      0.1897
     89  C         34.8620  -23.1260   19.9230 C.2   165  THR165      0.2313
     90  O         34.9900  -24.3280   19.6540 O.2   165  THR165     -0.2863
     91  CB        36.9610  -21.7890   20.2900 C.3   165  THR165      0.1794
     92  OG1       37.8730  -22.7710   19.8260 O.3   165  THR165     -0.2208
     93  CG2       37.6830  -20.7980   21.1830 C.3   165  THR165      0.0378
     94  N         46.2880  -20.8740   16.4440 N.3   187  GLY187     -0.1210
     95  CA        44.8950  -21.2970   16.4800 C.3   187  GLY187      0.1956
     96  C         44.0720  -20.2240   17.1600 C.2   187  GLY187      0.2612
     97  O         44.6090  -19.3740   17.8820 O.2   187  GLY187     -0.2717
     98  N         42.7640  -20.2300   16.9020 N.am  188  CYS188     -0.1970
     99  CA        41.8000  -19.2600   17.4340 C.3   188  CYS188      0.1712
    100  C         40.3960  -19.8410   17.3200 C.2   188  CYS188      0.2296
    101  O         40.2250  -20.9800   16.8980 O.2   188  CYS188     -0.2864
    102  CB        41.9070  -17.9340   16.6880 C.3   188  CYS188      0.0983
    103  SG        41.6670  -18.0910   14.8980 S.3   188  CYS188     -0.0798
    104  N         34.6710  -17.8620   21.4480 N.3   191  VAL191     -0.1245
    105  CA        34.4880  -18.5330   22.7570 C.3   191  VAL191      0.1561
    106  C         33.1740  -19.3610   22.8280 C.2   191  VAL191      0.2260
    107  O         32.1290  -18.8940   22.4040 O.2   191  VAL191     -0.2867
    108  CB        34.6250  -17.5660   23.9630 C.3   191  VAL191      0.0252
    109  CG1       34.5640  -18.3240   25.2770 C.3   191  VAL191      0.0019
    110  CG2       35.9100  -16.7470   23.8810 C.3   191  VAL191      0.0019
    111  N         31.5670  -22.1000   27.9700 N.3   195  VAL195     -0.1245
    112  CA        32.7650  -21.5580   28.6100 C.3   195  VAL195      0.1561
    113  C         32.4100  -20.2470   29.3280 C.2   195  VAL195      0.2260
    114  O         32.8360  -20.0430   30.4770 O.2   195  VAL195     -0.2867
    115  CB        33.9530  -21.4110   27.6130 C.3   195  VAL195      0.0252
    116  CG1       35.0970  -20.6030   28.2030 C.3   195  VAL195      0.0019
    117  CG2       34.4570  -22.7720   27.1810 C.3   195  VAL195      0.0019
    118  N         38.9070  -15.9350   21.1810 N.3   210  ALA210     -0.1231
    119  CA        40.1730  -16.2560   21.8120 C.3   210  ALA210      0.1694
    120  C         41.1480  -16.7860   20.7790 C.2   210  ALA210      0.2592
    121  O         40.7380  -17.1770   19.6730 O.2   210  ALA210     -0.2718
    122  CB        39.9730  -17.2590   22.9140 C.3   210  ALA210      0.0304
    123  N         42.4440  -16.7220   21.1090 N.am  211  PHE211     -0.1962
    124  CA        43.5150  -17.1770   20.2310 C.3   211  PHE211      0.1771
    125  C         44.6750  -17.7110   21.0570 C.2   211  PHE211      0.2620
    126  O         44.8180  -17.3460   22.2290 O.2   211  PHE211     -0.2715
    127  CB        43.9780  -16.0580   19.2880 C.3   211  PHE211      0.0574
    128  CG        44.4920  -14.7930   19.9340 C.ar  211  PHE211     -0.0200
    129  CD1       45.7760  -14.7320   20.4560 C.ar  211  PHE211     -0.0042
    130  CD2       43.7260  -13.6330   19.9380 C.ar  211  PHE211     -0.0042
    131  CE1       46.2640  -13.5580   21.0390 C.ar  211  PHE211     -0.0003
    132  CE2       44.2200  -12.4430   20.5110 C.ar  211  PHE211     -0.0003
    133  CZ        45.4840  -12.4200   21.0660 C.ar  211  PHE211     -0.0000
    134  N         45.4790  -18.5710   20.4500 N.am  212  GLY212     -0.1954
    135  CA        46.6600  -19.1250   21.0890 C.3   212  GLY212      0.1869
    136  C         47.8020  -19.2980   20.1110 C.2   212  GLY212      0.2309
    137  O         47.5790  -19.5810   18.9350 O.2   212  GLY212     -0.2863
@<TRIPOS>BOND
     1   103   102    1
     2    94    95    1
     3    95    96    1
     4   102    99    1
     5   101   100    2
     6    98    96   am
     7    98    99    1
     8    96    97    2
     9   100    99    1
    10    74    75   ar
    11    74    72   ar
    12    75    73   ar
    13    72    70   ar
    14    65    66    1
    15   137   136    2
    16    73    71   ar
    17   127   128    1
    18   127   124    1
    19    70    71   ar
    20    70    69    1
    21    90    89    2
    22   121   120    2
    23    92    91    1
    24    89    88    1
    25   128   130   ar
    26   128   129   ar
    27   130   132   ar
    28   136   135    1
    29    66    69    1
    30    66    67    1
    31   124   125    1
    32   124   123    1
    33    91    88    1
    34    91    93    1
    35   134   125   am
    36   134   135    1
    37   129   131   ar
    38   132   133   ar
    39    68    67    2
    40   120   123   am
    41   120   119    1
    42    88    87    1
    43   131   133   ar
    44   125   126    2
    45   118   119    1
    46   104   105    1
    47   119   122    1
    48    87    78   am
    49   107   106    2
    50   105   106    1
    51   105   108    1
    52    84    86   ar
    53    84    82   ar
    54    78    79    2
    55    78    77    1
    56    86    85   ar
    57    82    81   ar
    58    76    77    1
    59   110   108    1
    60   108   109    1
    61    77    80    1
    62    43    40    1
    63    43    44    1
    64    85    83   ar
    65    81    83   ar
    66    81    80    1
    67    57    58    1
    68    49    50    1
    69    49    48    1
    70    49    52    1
    71    40    41    1
    72    40    39    1
    73    46    45    2
    74    50    51    2
    75    59    58    1
    76    59    60    2
    77    58    61    1
    78    53    52    1
    79    53    54    1
    80    56    54   ar
    81    41    42    2
    82    45    47   am
    83    45    44    1
    84    54    55   ar
    85    63    62    1
    86    61    62    1
    87    23    21   am
    88    62    64    1
    89   117   115    1
    90     4     3    2
    91    14    13    1
    92    21    22    2
    93    21    20    1
    94   115   116    1
    95   115   112    1
    96   111   112    1
    97     3     2    1
    98    13    10    1
    99   112   113    1
   100    20    19    1
   101     8     6    1
   102     5     2    1
   103     5     6    1
   104    10     9    1
   105    10    11    1
   106     2     1    1
   107   113   114    2
   108    19    16    1
   109     6     7    1
   110    37    38    1
   111    37    36    1
   112    11    12    2
   113    16    15    1
   114    16    17    1
   115    36    35    1
   116    17    18    2
   117    17    24   am
   118    30    28    1
   119    24    25    1
   120    35    32    1
   121    25    28    1
   122    25    26    1
   123    28    29    1
   124    32    31    1
   125    32    33    1
   126    26    27    2
   127    33    34    2
