@<TRIPOS>MOLECULE
tmp/4p79A00.pdb
 122 117 0 0 0
SMALL
GASTEIGER

@<TRIPOS>ATOM
      1  N         -1.6690    6.7610   23.9710 N.3    15  ALA15      -0.1245
      2  CA        -2.5940    6.1310   24.9010 C.3    15  ALA15       0.1562
      3  C         -3.9990    6.7070   24.7520 C.2    15  ALA15       0.2260
      4  O         -4.9890    5.9850   24.8570 O.2    15  ALA15      -0.2867
      5  CB        -2.1020    6.2990   26.3270 C.3    15  ALA15       0.0290
      6  N         -5.5040    5.3940   21.4030 N.3    18  LEU18      -0.1231
      7  CA        -5.8930    3.9920   21.5320 C.3    18  LEU18       0.1693
      8  C         -7.2130    3.8630   22.2830 C.2    18  LEU18       0.2591
      9  O         -8.1170    3.1470   21.8500 O.2    18  LEU18      -0.2718
     10  CB        -4.7970    3.1920   22.2430 C.3    18  LEU18       0.0284
     11  CG        -5.1460    1.7800   22.7290 C.3    18  LEU18       0.0019
     12  CD1       -5.4750    0.8490   21.5670 C.3    18  LEU18       0.0001
     13  CD2       -4.0170    1.2090   23.5790 C.3    18  LEU18       0.0001
     14  N         -7.3150    4.5670   23.4050 N.am   19  LEU19      -0.1980
     15  CA        -8.5210    4.5620   24.2250 C.3    19  LEU19       0.1596
     16  C         -9.7420    5.0440   23.4460 C.2    19  LEU19       0.2287
     17  O        -10.8420    4.5160   23.6060 O.2    19  LEU19      -0.2864
     18  CB        -8.3170    5.4310   25.4660 C.3    19  LEU19       0.0297
     19  CG        -9.5280    5.6420   26.3750 C.3    19  LEU19       0.0022
     20  CD1      -10.0420    4.3140   26.9070 C.3    19  LEU19       0.0001
     21  CD2       -9.1820    6.5860   27.5170 C.3    19  LEU19       0.0001
     22  N        -10.9610    2.4890   20.8770 N.3    21  GLY21      -0.1225
     23  CA       -11.8130    1.5140   21.5290 C.3    21  GLY21       0.1811
     24  C        -13.1980    2.0800   21.7730 C.2    21  GLY21       0.2280
     25  O        -14.1940    1.3610   21.7080 O.2    21  GLY21      -0.2866
     26  N        -15.0670    2.1470   18.2710 N.3    24  LEU24      -0.1231
     27  CA       -15.5430    0.8400   17.8310 C.3    24  LEU24       0.1693
     28  C        -16.8260    0.4200   18.5460 C.2    24  LEU24       0.2592
     29  O        -17.6710   -0.2590   17.9660 O.2    24  LEU24      -0.2718
     30  CB       -14.4570   -0.2170   18.0450 C.3    24  LEU24       0.0284
     31  CG       -14.7290   -1.5840   17.4200 C.3    24  LEU24       0.0019
     32  CD1      -14.9620   -1.4380   15.9250 C.3    24  LEU24       0.0001
     33  CD2      -13.5860   -2.5450   17.6970 C.3    24  LEU24       0.0001
     34  N        -16.9730    0.8300   19.8010 N.am   25  SER25      -0.1952
     35  CA       -18.1500    0.4590   20.5810 C.3    25  SER25       0.1924
     36  C        -19.2200    1.5530   20.5770 C.2    25  SER25       0.2314
     37  O        -20.2650    1.4050   21.2100 O.2    25  SER25      -0.2863
     38  CB       -17.7510    0.1190   22.0210 C.3    25  SER25       0.2116
     39  OG       -17.0550    1.1920   22.6310 O.3    25  SER25      -0.2180
     40  N        -21.5130   -3.0930   14.4410 N.3    41  TRP41      -0.1227
     41  CA       -22.0010   -4.2790   15.1370 C.3    41  TRP41       0.1737
     42  C        -23.5210   -4.3430   15.2350 C.2    41  TRP41       0.2595
     43  O        -24.0980   -5.4290   15.2540 O.2    41  TRP41      -0.2718
     44  CB       -21.3960   -4.3450   16.5420 C.3    41  TRP41       0.0564
     45  CG       -19.9060   -4.2190   16.5530 C.ar   41  TRP41       0.0003
     46  CD1      -19.1790   -3.1400   16.9610 C.ar   41  TRP41       0.0946
     47  CD2      -18.9580   -5.2030   16.1220 C.ar   41  TRP41       0.0152
     48  NE1      -17.8360   -3.3920   16.8170 N.ar   41  TRP41      -0.2442
     49  CE2      -17.6730   -4.6520   16.3040 C.ar   41  TRP41       0.0810
     50  CE3      -19.0710   -6.4980   15.6060 C.ar   41  TRP41       0.0012
     51  CZ2      -16.5090   -5.3520   15.9890 C.ar   41  TRP41       0.0191
     52  CZ3      -17.9140   -7.1900   15.2930 C.ar   41  TRP41       0.0001
     53  CH2      -16.6500   -6.6160   15.4860 C.ar   41  TRP41       0.0015
     54  N        -24.1700   -3.1860   15.3070 N.am   42  TYR42      -0.1976
     55  CA       -25.6190   -3.1550   15.4710 C.3    42  TYR42       0.1639
     56  C        -26.3110   -2.2110   14.5030 C.2    42  TYR42       0.2290
     57  O        -25.7750   -1.1670   14.1410 O.2    42  TYR42      -0.2864
     58  CB       -25.9900   -2.7590   16.9000 C.3    42  TYR42       0.0560
     59  CG       -25.5270   -3.7380   17.9490 C.ar   42  TYR42      -0.0198
     60  CD1      -26.2100   -4.9270   18.1660 C.ar   42  TYR42      -0.0009
     61  CD2      -24.4100   -3.4700   18.7290 C.ar   42  TYR42      -0.0009
     62  CE1      -25.7900   -5.8230   19.1280 C.ar   42  TYR42       0.0417
     63  CE2      -23.9830   -4.3600   19.6920 C.ar   42  TYR42       0.0417
     64  CZ       -24.6760   -5.5330   19.8890 C.ar   42  TYR42       0.1957
     65  OH       -24.2490   -6.4180   20.8490 O.3    42  TYR42      -0.2866
     66  N        -28.5400   -7.2740   15.7110 N.3    56  ASP56      -0.1225
     67  CA       -27.1570   -7.5430   15.3450 C.3    56  ASP56       0.1805
     68  C        -26.9560   -7.3280   13.8530 C.2    56  ASP56       0.2597
     69  O        -27.7590   -7.7820   13.0400 O.2    56  ASP56      -0.2718
     70  CB       -26.7600   -8.9650   15.7370 C.3    56  ASP56       0.1424
     71  CG       -26.8890   -9.2150   17.2250 C.2    56  ASP56       0.3668
     72  OD1      -27.9580   -9.6950   17.6590 O.co2  56  ASP56      -0.2456
     73  OD2      -25.9240   -8.9260   17.9630 O.co2  56  ASP56      -0.2456
     74  N        -25.8930   -6.6140   13.5020 N.am   57  PHE57      -0.1976
     75  CA       -25.5490   -6.4040   12.1050 C.3    57  PHE57       0.1639
     76  C        -25.2100   -7.7480   11.4720 C.2    57  PHE57       0.2290
     77  O        -24.2200   -8.3760   11.8440 O.2    57  PHE57      -0.2864
     78  CB       -24.3790   -5.4280   11.9770 C.3    57  PHE57       0.0560
     79  CG       -24.2440   -4.8170   10.6140 C.ar   57  PHE57      -0.0200
     80  CD1      -23.5490   -5.4730    9.6110 C.ar   57  PHE57      -0.0042
     81  CD2      -24.8110   -3.5850   10.3350 C.ar   57  PHE57      -0.0042
     82  CE1      -23.4230   -4.9110    8.3540 C.ar   57  PHE57      -0.0003
     83  CE2      -24.6920   -3.0190    9.0800 C.ar   57  PHE57      -0.0003
     84  CZ       -23.9960   -3.6820    8.0880 C.ar   57  PHE57      -0.0000
     85  N        -14.3840   -3.5640   10.2380 N.3    70  ARG70      -0.1245
     86  CA       -14.2050   -4.3000   11.4840 C.3    70  ARG70       0.1563
     87  C        -12.7580   -4.7540   11.6400 C.2    70  ARG70       0.2260
     88  O        -12.1480   -4.5750   12.6930 O.2    70  ARG70      -0.2867
     89  CB       -15.1310   -5.5180   11.5360 C.3    70  ARG70       0.0307
     90  CG       -16.5940   -5.2090   11.7870 C.3    70  ARG70       0.0489
     91  CD       -17.4190   -6.4830   11.6690 C.3    70  ARG70       0.2205
     92  NE       -18.8280   -6.2730   11.9840 N.pl3  70  ARG70      -0.0865
     93  CZ       -19.7490   -7.2300   11.9380 C.cat  70  ARG70       0.5346
     94  NH1      -19.4080   -8.4630   11.5870 N.pl3  70  ARG70       0.1354
     95  NH2      -21.0110   -6.9560   12.2420 N.pl3  70  ARG70       0.1354
     96  N         -6.5860   -1.4500   17.1940 N.3    76  ILE76      -0.1245
     97  CA        -6.6230   -1.5300   18.6500 C.3    76  ILE76       0.1561
     98  C         -5.5730   -2.5130   19.1720 C.2    76  ILE76       0.2260
     99  O         -4.9150   -2.2550   20.1810 O.2    76  ILE76      -0.2867
    100  CB        -8.0310   -1.9300   19.1390 C.3    76  ILE76       0.0252
    101  CG1       -9.0000   -0.7670   18.9180 C.3    76  ILE76       0.0019
    102  CG2       -8.0120   -2.3170   20.6070 C.3    76  ILE76       0.0019
    103  CD1      -10.4580   -1.1510   19.0160 C.3    76  ILE76       0.0001
    104  N         -2.3730   -1.5350   21.4630 N.3    80  PHE80      -0.1241
    105  CA        -2.1110   -2.1950   22.7370 C.3    80  PHE80       0.1605
    106  C         -0.6670   -2.6700   22.8180 C.2    80  PHE80       0.2264
    107  O         -0.0130   -2.5310   23.8550 O.2    80  PHE80      -0.2867
    108  CB        -3.0640   -3.3730   22.9460 C.3    80  PHE80       0.0534
    109  CG        -4.2460   -3.0460   23.8140 C.ar   80  PHE80      -0.0203
    110  CD1       -4.0920   -2.8930   25.1810 C.ar   80  PHE80      -0.0042
    111  CD2       -5.5090   -2.8970   23.2660 C.ar   80  PHE80      -0.0042
    112  CE1       -5.1730   -2.5930   25.9860 C.ar   80  PHE80      -0.0003
    113  CE2       -6.5960   -2.5980   24.0670 C.ar   80  PHE80      -0.0003
    114  CZ        -6.4270   -2.4450   25.4290 C.ar   80  PHE80      -0.0000
    115  N          1.4040    0.5460   23.1720 N.3    83  LEU83      -0.1245
    116  CA         1.3070    1.1070   24.5140 C.3    83  LEU83       0.1561
    117  C          2.1710    0.3190   25.4920 C.2    83  LEU83       0.2260
    118  O          2.8980    0.8960   26.2990 O.2    83  LEU83      -0.2867
    119  CB        -0.1480    1.1230   24.9870 C.3    83  LEU83       0.0270
    120  CG        -0.4020    1.6430   26.4040 C.3    83  LEU83       0.0019
    121  CD1       -0.1560    3.1410   26.4800 C.3    83  LEU83       0.0001
    122  CD2       -1.8120    1.3010   26.8610 C.3    83  LEU83       0.0001
@<TRIPOS>BOND
     1    84    82   ar
     2    84    83   ar
     3    82    80   ar
     4    83    81   ar
     5    80    79   ar
     6    85    86    1
     7    81    79   ar
     8    79    78    1
     9    76    77    2
    10    76    75    1
    11    86    89    1
    12    86    87    1
    13    89    90    1
    14    94    93    1
    15    87    88    2
    16    91    90    1
    17    91    92    1
    18    93    92    2
    19    93    95    1
    20    78    75    1
    21    75    74    1
    22    69    68    2
    23    74    68   am
    24    68    67    1
    25    57    56    2
    26    40    41    1
    27    56    55    1
    28    41    42    1
    29    41    44    1
    30    42    43    2
    31    42    54   am
    32    52    53   ar
    33    52    50   ar
    34    54    55    1
    35    67    66    1
    36    67    70    1
    37    55    58    1
    38    53    51   ar
    39    50    47   ar
    40    70    71    1
    41    32    31    1
    42    51    49   ar
    43    47    49   ar
    44    47    45   ar
    45    49    48   ar
    46    44    45    1
    47    45    46   ar
    48    48    46   ar
    49    58    59    1
    50    96    97    1
    51    71    72   ar
    52    71    73   ar
    53    31    33    1
    54    31    30    1
    55    27    30    1
    56    27    26    1
    57    27    28    1
    58    59    60   ar
    59    59    61   ar
    60    29    28    2
    61    60    62   ar
    62    28    34   am
    63    97   100    1
    64    97    98    1
    65    61    63   ar
    66   101   103    1
    67   101   100    1
    68    62    64   ar
    69   100   102    1
    70    98    99    2
    71    63    64   ar
    72    34    35    1
    73    64    65    1
    74    36    35    1
    75    36    37    2
    76    35    38    1
    77    22    23    1
    78     6     7    1
    79   104   105    1
    80    23    24    1
    81     7    10    1
    82     7     8    1
    83    12    11    1
    84    25    24    2
    85     9     8    2
    86    38    39    1
    87    10    11    1
    88     8    14   am
    89    11    13    1
    90   105   106    1
    91   105   108    1
    92   106   107    2
    93   108   109    1
    94   115   116    1
    95   111   109   ar
    96   111   113   ar
    97    14    15    1
    98    16    17    2
    99    16    15    1
   100   109   110   ar
   101     1     2    1
   102   113   114   ar
   103    15    18    1
   104   116   119    1
   105   116   117    1
   106     3     4    2
   107     3     2    1
   108     2     5    1
   109   119   120    1
   110   110   112   ar
   111   114   112   ar
   112    18    19    1
   113   117   118    2
   114    19    20    1
   115    19    21    1
   116   120   121    1
   117   120   122    1
