@<TRIPOS>MOLECULE
tmp/4p7aA00.pdb
 175 166 0 0 0
SMALL
GASTEIGER

@<TRIPOS>ATOM
      1  N         23.5020  -23.9110    3.5860 N.3    32  GLU32      -0.1231
      2  CA        22.6900  -24.2930    4.7710 C.3    32  GLU32       0.1699
      3  C         22.3510  -23.0910    5.6520 C.2    32  GLU32       0.2592
      4  O         21.2210  -22.9730    6.1960 O.2    32  GLU32      -0.2718
      5  CB        23.4560  -25.3370    5.6140 C.3    32  GLU32       0.0402
      6  CG        23.5750  -26.7260    4.9320 C.3    32  GLU32       0.1161
      7  CD        22.2580  -27.4670    4.7930 C.2    32  GLU32       0.3649
      8  OE1       21.2660  -27.0600    5.4140 O.co2  32  GLU32      -0.2457
      9  OE2       22.1840  -28.4830    4.0670 O.co2  32  GLU32      -0.2457
     10  N         23.3190  -22.1910    5.8170 N.am   33  MET33      -0.1979
     11  CA        23.1180  -21.0460    6.7060 C.3    33  MET33       0.1605
     12  C         22.1430  -20.0200    6.1040 C.2    33  MET33       0.2287
     13  O         21.3050  -19.4800    6.8020 O.2    33  MET33      -0.2864
     14  CB        24.4610  -20.4010    7.0660 C.3    33  MET33       0.0413
     15  CG        25.2590  -21.2990    8.0240 C.3    33  MET33       0.0598
     16  SD        26.8030  -20.6210    8.6800 S.3    33  MET33      -0.1393
     17  CE        27.6560  -20.7200    7.1640 C.3    33  MET33       0.0692
     18  N         18.6800  -21.1790    6.5010 N.3    36  ASN36      -0.1225
     19  CA        18.2410  -20.8520    7.8510 C.3    36  ASN36       0.1785
     20  C         17.8420  -19.3620    7.9700 C.2    36  ASN36       0.2597
     21  O         16.8880  -19.0630    8.6140 O.2    36  ASN36      -0.2718
     22  CB        19.3290  -21.1710    8.8530 C.3    36  ASN36       0.1169
     23  CG        19.5290  -22.6510    9.0480 C.2    36  ASN36       0.2627
     24  OD1       18.6590  -23.4300    8.7530 O.2    36  ASN36      -0.2716
     25  ND2       20.6920  -23.0370    9.5470 N.am   36  ASN36      -0.0877
     26  N         18.5940  -18.4570    7.3590 N.am   37  CYS37      -0.1970
     27  CA        18.2340  -17.0410    7.3500 C.3    37  CYS37       0.1712
     28  C         16.8440  -16.8660    6.7340 C.2    37  CYS37       0.2296
     29  O         15.9950  -16.1430    7.2710 O.2    37  CYS37      -0.2864
     30  CB        19.2200  -16.2630    6.5240 C.3    37  CYS37       0.0983
     31  SG        20.8900  -16.1620    7.1750 S.3    37  CYS37      -0.0798
     32  N         14.4220  -19.2120    6.4300 N.3    39  ASP39      -0.1225
     33  CA        13.4240  -19.7960    7.2990 C.3    39  ASP39       0.1805
     34  C         13.0630  -18.8540    8.4840 C.2    39  ASP39       0.2597
     35  O         11.9460  -18.8450    8.9600 O.2    39  ASP39      -0.2718
     36  CB        13.8810  -21.1270    7.8490 C.3    39  ASP39       0.1424
     37  CG        14.0310  -22.2300    6.7760 C.2    39  ASP39       0.3668
     38  OD1       13.3920  -22.2020    5.7430 O.co2  39  ASP39      -0.2456
     39  OD2       14.7950  -23.1500    7.0240 O.co2  39  ASP39      -0.2456
     40  N         14.0260  -18.0870    8.9460 N.am   40  ALA40      -0.1979
     41  CA        13.8410  -17.1720   10.0600 C.3    40  ALA40       0.1597
     42  C         13.3520  -15.7740    9.5540 C.2    40  ALA40       0.2287
     43  O         13.4730  -14.7960   10.2350 O.2    40  ALA40      -0.2864
     44  CB        15.1600  -17.0670   10.8410 C.3    40  ALA40       0.0319
     45  N         22.0680  -11.7980    9.4990 N.3    61  ASP61      -0.1239
     46  CA        20.6920  -11.5680    9.0210 C.3    61  ASP61       0.1674
     47  C         19.9070  -10.6450    9.9690 C.2    61  ASP61       0.2266
     48  O         20.3990  -10.3210   11.0520 O.2    61  ASP61      -0.2867
     49  CB        19.9280  -12.8870    8.7630 C.3    61  ASP61       0.1410
     50  CG        19.6680  -13.7080   10.0360 C.2    61  ASP61       0.3668
     51  OD1       19.1090  -13.1420   11.0060 O.co2  61  ASP61      -0.2456
     52  OD2       20.0180  -14.9340   10.0600 O.co2  61  ASP61      -0.2456
     53  N         14.3100  -13.5160   12.7260 N.3    64  THR64      -0.1203
     54  CA        13.6570  -13.6140   14.0420 C.3    64  THR64       0.1994
     55  C         14.5820  -13.9900   15.1720 C.2    64  THR64       0.2618
     56  O         14.2300  -13.8430   16.3140 O.2    64  THR64      -0.2717
     57  CB        12.5130  -14.6600   14.0250 C.3    64  THR64       0.1784
     58  OG1       13.0190  -15.9070   13.5710 O.3    64  THR64      -0.2211
     59  CG2       11.4240  -14.2270   13.0950 C.3    64  THR64       0.0376
     60  N         15.7710  -14.4780   14.8680 N.am   65  GLY65      -0.1942
     61  CA        16.7490  -14.7860   15.9200 C.3    65  GLY65       0.2014
     62  C         16.5250  -16.0930   16.6500 C.2    65  GLY65       0.2638
     63  O         15.5540  -16.7980   16.4060 O.2    65  GLY65      -0.2714
     64  N         17.4500  -16.4110   17.5540 N.am   66  ILE66      -0.1977
     65  CA        17.3830  -17.6120   18.4020 C.3    66  ILE66       0.1596
     66  C         17.2180  -17.1620   19.8570 C.2    66  ILE66       0.2287
     67  O         18.0150  -16.3730   20.3610 O.2    66  ILE66      -0.2864
     68  CB        18.6730  -18.4210   18.2640 C.3    66  ILE66       0.0276
     69  CG1       18.9750  -18.6810   16.7780 C.3    66  ILE66       0.0022
     70  CG2       18.5800  -19.7100   19.0730 C.3    66  ILE66       0.0022
     71  CD1       20.3370  -19.3020   16.4600 C.3    66  ILE66       0.0001
     72  N         21.1880  -25.4330   20.4710 N.3    74  VAL74      -0.1245
     73  CA        20.9750  -25.1190   19.0590 C.3    74  VAL74       0.1561
     74  C         21.8900  -25.9080   18.1040 C.2    74  VAL74       0.2260
     75  O         21.4270  -26.3530   17.0480 O.2    74  VAL74      -0.2867
     76  CB        21.0700  -23.5650   18.8120 C.3    74  VAL74       0.0252
     77  CG1       22.4390  -23.0220   19.1820 C.3    74  VAL74       0.0019
     78  CG2       20.6880  -23.2030   17.3760 C.3    74  VAL74       0.0019
     79  N         18.1650  -31.1150   17.0760 N.3    79  THR79      -0.1203
     80  CA        17.4320  -30.0110   17.6400 C.3    79  THR79       0.1994
     81  C         17.0950  -28.9770   16.5680 C.2    79  THR79       0.2619
     82  O         17.9760  -28.4810   15.8130 O.2    79  THR79      -0.2717
     83  CB        18.1690  -29.3650   18.8230 C.3    79  THR79       0.1784
     84  OG1       19.2180  -28.5280   18.3560 O.3    79  THR79      -0.2211
     85  CG2       18.7190  -30.4510   19.7460 C.3    79  THR79       0.0376
     86  N         15.8090  -28.6320   16.5610 N.am   80  THR80      -0.1938
     87  CA        15.2010  -27.8250   15.5470 C.3    80  THR80       0.2028
     88  C         13.9330  -27.1140   16.1400 C.2    80  THR80       0.2643
     89  O         13.2270  -27.6500   17.0430 O.2    80  THR80      -0.2714
     90  CB        14.7360  -28.7350   14.3680 C.3    80  THR80       0.1808
     91  OG1       14.1680  -27.9500   13.3030 O.3    80  THR80      -0.2208
     92  CG2       13.6800  -29.6690   14.8430 C.3    80  THR80       0.0379
     93  N         13.6350  -25.9450   15.5990 N.am   81  SER81      -0.1935
     94  CA        12.3650  -25.2920   15.8690 C.3    81  SER81       0.2055
     95  C         11.3160  -25.5090   14.7590 C.2    81  SER81       0.2642
     96  O         10.2980  -24.8550   14.7660 O.2    81  SER81      -0.2714
     97  CB        12.5880  -23.8050   16.0440 C.3    81  SER81       0.2130
     98  OG        13.1400  -23.2700   14.8670 O.3    81  SER81      -0.2179
     99  N         11.5830  -26.4320   13.8410 N.am   82  LYS82      -0.1977
    100  CA        10.7610  -26.6750   12.6390 C.3    82  LYS82       0.1596
    101  C         10.0200  -28.0270   12.7280 C.2    82  LYS82       0.2287
    102  O         10.4240  -28.9280   13.4810 O.2    82  LYS82      -0.2864
    103  CB        11.6850  -26.5590   11.4110 C.3    82  LYS82       0.0298
    104  CG        12.2870  -25.1470   11.3080 C.3    82  LYS82       0.0038
    105  CD        13.4290  -24.9620   10.3100 C.3    82  LYS82       0.0206
    106  CE        14.1820  -23.6410   10.5790 C.3    82  LYS82       0.1093
    107  NZ        15.5510  -23.5440    9.8910 N.3    82  LYS82      -0.1314
    108  N         17.1410  -35.3960    7.9300 N.3    85  PHE85      -0.1227
    109  CA        16.3000  -34.9550    9.0380 C.3    85  PHE85       0.1736
    110  C         16.5840  -33.4990    9.4230 C.2    85  PHE85       0.2595
    111  O         17.6850  -32.9400    9.1730 O.2    85  PHE85      -0.2718
    112  CB        16.4820  -35.8560   10.2580 C.3    85  PHE85       0.0547
    113  CG        16.0290  -37.2690   10.0320 C.ar   85  PHE85      -0.0202
    114  CD1       14.6930  -37.6190   10.1950 C.ar   85  PHE85      -0.0042
    115  CD2       16.9330  -38.2410    9.6370 C.ar   85  PHE85      -0.0042
    116  CE1       14.2700  -38.9000    9.9640 C.ar   85  PHE85      -0.0003
    117  CE2       16.5210  -39.5440    9.4190 C.ar   85  PHE85      -0.0003
    118  CZ        15.1870  -39.8750    9.5850 C.ar   85  PHE85      -0.0000
    119  N         15.5740  -32.8920   10.0450 N.am   86  ARG86      -0.1966
    120  CA        15.7010  -31.5400   10.5530 C.3    86  ARG86       0.1729
    121  C         16.7570  -31.6010   11.6100 C.2    86  ARG86       0.2617
    122  O         16.8720  -32.6150   12.3470 O.2    86  ARG86      -0.2715
    123  CB        14.3810  -31.0410   11.2060 C.3    86  ARG86       0.0348
    124  CG        13.1770  -30.9710   10.2810 C.3    86  ARG86       0.0492
    125  CD        13.1300  -29.6710    9.5050 C.3    86  ARG86       0.2205
    126  NE        11.7570  -29.3100    9.1710 N.pl3  86  ARG86      -0.0865
    127  CZ        11.4360  -28.4420    8.2320 C.cat  86  ARG86       0.5346
    128  NH1       10.1690  -28.1590    7.9870 N.pl3  86  ARG86       0.1354
    129  NH2       12.3850  -27.8780    7.5350 N.pl3  86  ARG86       0.1354
    130  N         17.4890  -30.5220   11.7170 N.am   87  GLY87      -0.1940
    131  CA        18.3540  -30.3270   12.8480 C.3    87  GLY87       0.2014
    132  C         19.7790  -30.8500   12.7720 C.2    87  GLY87       0.2639
    133  O         20.4160  -31.0360   13.8090 O.2    87  GLY87      -0.2714
    134  N         20.2920  -31.0350   11.5600 N.am   88  GLU88      -0.1963
    135  CA        21.6240  -31.6150   11.3670 C.3    88  GLU88       0.1733
    136  C         22.6460  -30.6230   10.8710 C.2    88  GLU88       0.2616
    137  O         23.8430  -30.8470   11.0310 O.2    88  GLU88      -0.2715
    138  CB        21.5500  -32.6960   10.3030 C.3    88  GLU88       0.0429
    139  CG        20.5000  -33.7450   10.5320 C.3    88  GLU88       0.1163
    140  CD        20.9780  -35.1280   10.1880 C.2    88  GLU88       0.3649
    141  OE1       20.2630  -35.8230    9.4440 O.co2  88  GLU88      -0.2457
    142  OE2       22.0770  -35.4900   10.6530 O.co2  88  GLU88      -0.2457
    143  N         22.2130  -29.5280   10.2590 N.am   89  ALA89      -0.1963
    144  CA        23.1540  -28.6370    9.6030 C.3    89  ALA89       0.1728
    145  C         24.1210  -27.9400   10.5870 C.2    89  ALA89       0.2616
    146  O         25.3290  -28.0880   10.4680 O.2    89  ALA89      -0.2715
    147  CB        22.4320  -27.6450    8.7310 C.3    89  ALA89       0.0334
    148  N         23.6240  -27.2170   11.5800 N.am   90  LEU90      -0.1963
    149  CA        24.5510  -26.5350   12.4920 C.3    90  LEU90       0.1728
    150  C         25.3340  -27.5380   13.3340 C.2    90  LEU90       0.2616
    151  O         26.5120  -27.3140   13.6400 O.2    90  LEU90      -0.2715
    152  CB        23.8280  -25.5510   13.3880 C.3    90  LEU90       0.0311
    153  CG        23.4320  -24.2790   12.6760 C.3    90  LEU90       0.0022
    154  CD1       22.6730  -23.4270   13.6500 C.3    90  LEU90       0.0001
    155  CD2       24.6490  -23.5500   12.1370 C.3    90  LEU90       0.0001
    156  N         24.7090  -28.6540   13.7000 N.am   91  ALA91      -0.1977
    157  CA        25.4430  -29.7040   14.4460 C.3    91  ALA91       0.1597
    158  C         26.6160  -30.1580   13.6370 C.2    91  ALA91       0.2287
    159  O         27.7080  -30.2550   14.1670 O.2    91  ALA91      -0.2864
    160  CB        24.5560  -30.8840   14.7290 C.3    91  ALA91       0.0319
    161  N         20.5480  -12.5190   13.5540 N.3   134  THR134     -0.1218
    162  CA        21.5340  -13.5350   13.8960 C.3   134  THR134      0.1862
    163  C         22.7310  -13.3830   13.0210 C.2   134  THR134      0.2287
    164  O         22.6020  -13.2110   11.7620 O.2   134  THR134     -0.2866
    165  CB        20.9140  -14.9520   13.6940 C.3   134  THR134      0.1770
    166  OG1       19.7690  -15.1060   14.5680 O.3   134  THR134     -0.2211
    167  CG2       21.9350  -16.0330   14.0060 C.3   134  THR134      0.0375
    168  N         26.1000  -15.6930   12.4280 N.3   136  ILE136     -0.1245
    169  CA        26.8450  -16.9050   12.6390 C.3   136  ILE136      0.1561
    170  C         28.2350  -16.7250   12.0360 C.2   136  ILE136      0.2260
    171  O         28.3840  -16.2740   10.8980 O.2   136  ILE136     -0.2867
    172  CB        26.2600  -18.1350   11.9280 C.3   136  ILE136      0.0252
    173  CG1       24.7470  -18.1900   11.9560 C.3   136  ILE136      0.0019
    174  CG2       26.7940  -19.3980   12.5780 C.3   136  ILE136      0.0019
    175  CD1       24.1470  -18.8880   13.1440 C.3   136  ILE136      0.0001
@<TRIPOS>BOND
     1     1     2    1
     2     9     7   ar
     3     2     5    1
     4     2     3    1
     5     7     6    1
     6     7     8   ar
     7     6     5    1
     8     3    10   am
     9     3     4    2
    10    38    37   ar
    11    10    11    1
    12    12    11    1
    13    12    13    2
    14    32    33    1
    15    18    19    1
    16    30    31    1
    17    30    27    1
    18    11    14    1
    19    28    29    2
    20    28    27    1
    21    37    39   ar
    22    37    36    1
    23    14    15    1
    24    17    16    1
    25    33    36    1
    26    33    34    1
    27    27    26    1
    28    26    20   am
    29   129   127    1
    30    19    20    1
    31    19    22    1
    32   108   109    1
    33    20    21    2
    34   128   127    1
    35    15    16    1
    36   127   126    2
    37    34    40   am
    38    34    35    2
    39   147   144    1
    40    24    23    2
    41    49    46    1
    42    49    50    1
    43    22    23    1
    44    40    41    1
    45    46    45    1
    46    46    47    1
    47   109   110    1
    48   109   112    1
    49    23    25   am
    50   126   125    1
    51   111   110    2
    52   117   118   ar
    53   117   115   ar
    54   110   119   am
    55   141   140   ar
    56   125   124    1
    57    42    41    1
    58    42    43    2
    59   118   116   ar
    60   144   143    1
    61   144   145    1
    62   115   113   ar
    63   107   106    1
    64   116   114   ar
    65    47    48    2
    66   113   114   ar
    67   113   112    1
    68    50    52   ar
    69    50    51   ar
    70   119   120    1
    71    41    44    1
    72   140   139    1
    73   140   142   ar
    74   143   136   am
    75   124   123    1
    76   138   139    1
    77   138   135    1
    78   105   106    1
    79   105   104    1
    80   146   145    2
    81   120   123    1
    82   120   121    1
    83   145   148   am
    84   136   137    2
    85   136   135    1
    86   171   170    2
    87   104   103    1
    88   135   134    1
    89   103   100    1
    90   134   132   am
    91   148   149    1
    92   121   130   am
    93   121   122    2
    94   130   131    1
    95   164   163    2
    96   172   173    1
    97   172   174    1
    98   172   169    1
    99   173   175    1
   100   170   169    1
   101   155   153    1
   102   168   169    1
   103   149   150    1
   104   149   152    1
   105   100   101    1
   106   100    99    1
   107   153   152    1
   108   153   154    1
   109    53    54    1
   110   101   102    2
   111   132   131    1
   112   132   133    2
   113   163   162    1
   114    59    57    1
   115    91    90    1
   116   150   151    2
   117   150   156   am
   118   161   162    1
   119    58    57    1
   120   158   159    2
   121   158   157    1
   122   165   162    1
   123   165   167    1
   124   165   166    1
   125   156   157    1
   126    99    95   am
   127    57    54    1
   128    54    55    1
   129    90    92    1
   130    90    87    1
   131   157   160    1
   132    95    96    2
   133    95    94    1
   134    98    97    1
   135    60    55   am
   136    60    61    1
   137    55    56    2
   138    87    88    1
   139    87    86    1
   140    93    94    1
   141    93    88   am
   142    82    81    2
   143    94    97    1
   144    61    62    1
   145    88    89    2
   146    63    62    2
   147    71    69    1
   148    86    81   am
   149    81    80    1
   150    62    64   am
   151    69    68    1
   152    75    74    2
   153    79    80    1
   154    78    76    1
   155    64    65    1
   156    80    83    1
   157    74    73    1
   158    68    65    1
   159    68    70    1
   160    84    83    1
   161    65    66    1
   162    76    73    1
   163    76    77    1
   164    83    85    1
   165    73    72    1
   166    66    67    2
