@<TRIPOS>MOLECULE
tmp/4p7bB00.pdb
 100 98 0 0 0
SMALL
GASTEIGER

@<TRIPOS>ATOM
      1  N          1.4180   39.1210  -23.6310 N.3     9  ALA9       -0.1231
      2  CA         2.3950   38.5760  -24.5860 C.3     9  ALA9        0.1694
      3  C          1.9500   37.2310  -25.1890 C.2     9  ALA9        0.2592
      4  O          1.0120   36.5860  -24.6680 O.2     9  ALA9       -0.2718
      5  CB         3.7420   38.3950  -23.9040 C.3     9  ALA9        0.0304
      6  N          2.6380   36.8290  -26.2680 N.am   10  ASN10      -0.1961
      7  CA         2.7090   35.4390  -26.7590 C.3    10  ASN10       0.1804
      8  C          4.0850   34.8520  -26.3940 C.2    10  ASN10       0.2463
      9  O          5.0600   35.6050  -26.3170 O.2    10  ASN10      -0.2730
     10  CB         2.4980   35.3780  -28.2810 C.3    10  ASN10       0.1195
     11  CG         1.0560   35.5740  -28.6780 C.2    10  ASN10       0.2630
     12  OD1        0.1920   34.7710  -28.3390 O.2    10  ASN10      -0.2716
     13  ND2        0.7830   36.6520  -29.4040 N.am   10  ASN10      -0.0877
     14  N          4.1800   33.5230  -26.1520 N.am   11  PRO11      -0.2716
     15  CA         5.4630   32.9130  -25.7850 C.3    11  PRO11       0.1536
     16  C          6.3070   32.5230  -26.9850 C.2    11  PRO11       0.2599
     17  O          5.7770   32.3020  -28.0650 O.2    11  PRO11      -0.2715
     18  CB         5.0410   31.6590  -25.0110 C.3    11  PRO11       0.0310
     19  CG         3.7820   31.2450  -25.6770 C.3    11  PRO11       0.0237
     20  CD         3.0800   32.5390  -26.0890 C.3    11  PRO11       0.0939
     21  N          7.6160   32.4390  -26.7850 N.am   12  GLY12      -0.1955
     22  CA         8.5020   31.8900  -27.7920 C.3    12  GLY12       0.1869
     23  C          9.2550   32.9630  -28.5560 C.2    12  GLY12       0.2309
     24  O          8.7900   34.0970  -28.6770 O.2    12  GLY12      -0.2863
     25  N          3.6200   42.0610  -27.7870 N.3    21  ASN21      -0.1240
     26  CA         4.3330   41.7870  -26.5300 C.3    21  ASN21       0.1653
     27  C          4.7600   43.0740  -25.7500 C.2    21  ASN21       0.2266
     28  O          5.5040   42.9700  -24.7720 O.2    21  ASN21      -0.2867
     29  CB         5.5870   40.9160  -26.7970 C.3    21  ASN21       0.1155
     30  CG         5.2890   39.4040  -26.8940 C.2    21  ASN21       0.2627
     31  OD1        4.2420   38.9860  -27.3640 O.2    21  ASN21      -0.2716
     32  ND2        6.2370   38.5880  -26.4370 N.am   21  ASN21      -0.0877
     33  N          4.5340   42.9650  -21.8310 N.3    24  ALA24      -0.1231
     34  CA         5.6260   42.1950  -21.2430 C.3    24  ALA24       0.1694
     35  C          6.9610   42.9760  -21.2490 C.2    24  ALA24       0.2592
     36  O          7.7510   42.8280  -20.3240 O.2    24  ALA24      -0.2718
     37  CB         5.7860   40.8720  -21.9660 C.3    24  ALA24       0.0304
     38  N          7.2400   43.7750  -22.2850 N.am   25  TRP25      -0.1976
     39  CA         8.4640   44.6020  -22.2810 C.3    25  TRP25       0.1640
     40  C          8.5180   45.5190  -21.0390 C.2    25  TRP25       0.2290
     41  O          9.5830   45.6740  -20.4090 O.2    25  TRP25      -0.2864
     42  CB         8.5760   45.4490  -23.5680 C.3    25  TRP25       0.0576
     43  CG         8.6120   44.6760  -24.8780 C.ar   25  TRP25       0.0006
     44  CD1        8.8790   43.3460  -25.0500 C.ar   25  TRP25       0.0946
     45  CD2        8.3650   45.2130  -26.1900 C.ar   25  TRP25       0.0152
     46  NE1        8.8040   43.0190  -26.3980 N.ar   25  TRP25      -0.2442
     47  CE2        8.4830   44.1460  -27.1090 C.ar   25  TRP25       0.0810
     48  CE3        8.0390   46.4930  -26.6720 C.ar   25  TRP25       0.0012
     49  CZ2        8.2940   44.3190  -28.4920 C.ar   25  TRP25       0.0191
     50  CZ3        7.8470   46.6610  -28.0410 C.ar   25  TRP25       0.0001
     51  CH2        7.9860   45.5850  -28.9320 C.ar   25  TRP25       0.0015
     52  N          9.0050   43.2550  -17.7430 N.3    28  ASP28      -0.1239
     53  CA        10.4090   42.8190  -17.6910 C.3    28  ASP28       0.1674
     54  C         11.3250   43.9490  -17.1930 C.2    28  ASP28       0.2266
     55  O         12.2450   43.6930  -16.4110 O.2    28  ASP28      -0.2867
     56  CB        10.9140   42.3420  -19.0650 C.3    28  ASP28       0.1410
     57  CG        10.4600   40.9270  -19.4350 C.2    28  ASP28       0.3668
     58  OD1       10.1220   40.1150  -18.5470 O.co2  28  ASP28      -0.2456
     59  OD2       10.4650   40.6230  -20.6450 O.co2  28  ASP28      -0.2456
     60  N         12.0320   37.2600  -12.7150 N.3    38  LEU38      -0.1245
     61  CA        10.8680   36.5070  -13.2150 C.3    38  LEU38       0.1561
     62  C         11.2960   35.0710  -13.4970 C.2    38  LEU38       0.2260
     63  O         12.2630   34.8430  -14.2260 O.2    38  LEU38      -0.2867
     64  CB        10.2840   37.1130  -14.4920 C.3    38  LEU38       0.0270
     65  CG         9.6070   38.4900  -14.5070 C.3    38  LEU38       0.0019
     66  CD1        9.2200   38.8700  -15.9260 C.3    38  LEU38       0.0001
     67  CD2        8.3770   38.5150  -13.6620 C.3    38  LEU38       0.0001
     68  N          5.3270   33.2730  -16.2110 N.3    47  TYR47      -0.1241
     69  CA         6.5050   33.6790  -15.4370 C.3    47  TYR47       0.1605
     70  C          6.0590   34.6700  -14.3510 C.2    47  TYR47       0.2264
     71  O          5.2780   35.5870  -14.6470 O.2    47  TYR47      -0.2867
     72  CB         7.5640   34.3260  -16.3600 C.3    47  TYR47       0.0534
     73  CG         8.4050   33.3550  -17.1910 C.ar   47  TYR47      -0.0201
     74  CD1        7.8300   32.5610  -18.1680 C.ar   47  TYR47      -0.0009
     75  CD2        9.7760   33.2630  -16.9940 C.ar   47  TYR47      -0.0009
     76  CE1        8.6010   31.6690  -18.9140 C.ar   47  TYR47       0.0417
     77  CE2       10.5560   32.3790  -17.7320 C.ar   47  TYR47       0.0417
     78  CZ         9.9610   31.5920  -18.6930 C.ar   47  TYR47       0.1957
     79  OH        10.7370   30.7230  -19.4280 O.3    47  TYR47      -0.2866
     80  N          3.7780   37.4470  -16.3400 N.3    62  VAL62      -0.1231
     81  CA         3.7470   37.4320  -17.8330 C.3    62  VAL62       0.1678
     82  C          3.2300   36.0450  -18.2620 C.2    62  VAL62       0.2434
     83  O          3.9220   35.0300  -18.0940 O.2    62  VAL62      -0.2733
     84  CB         5.1270   37.7250  -18.4760 C.3    62  VAL62       0.0265
     85  CG1        5.0580   37.6150  -20.0160 C.3    62  VAL62       0.0020
     86  CG2        5.6440   39.1230  -18.0740 C.3    62  VAL62       0.0020
     87  N          1.9990   35.9780  -18.7970 N.am   63  PRO63      -0.2718
     88  CA         1.4650   34.6520  -19.1690 C.3    63  PRO63       0.1535
     89  C          2.2050   33.9300  -20.3140 C.2    63  PRO63       0.2599
     90  O          2.7200   34.5870  -21.2260 O.2    63  PRO63      -0.2715
     91  CB         0.0150   34.9690  -19.5920 C.3    63  PRO63       0.0310
     92  CG        -0.3030   36.3030  -18.9430 C.3    63  PRO63       0.0237
     93  CD         1.0100   37.0470  -19.0260 C.3    63  PRO63       0.0939
     94  N          2.2360   32.5890  -20.2630 N.am   64  THR64      -0.1951
     95  CA         2.7150   31.7620  -21.3940 C.3    64  THR64       0.1897
     96  C          1.5740   30.9250  -22.0150 C.2    64  THR64       0.2313
     97  O          1.8040   29.8810  -22.6510 O.2    64  THR64      -0.2863
     98  CB         3.8610   30.8440  -20.9540 C.3    64  THR64       0.1794
     99  OG1        3.4390   30.0450  -19.8480 O.3    64  THR64      -0.2208
    100  CG2        5.0910   31.6860  -20.5580 C.3    64  THR64       0.0378
@<TRIPOS>BOND
     1    13    11   am
     2    51    49   ar
     3    51    50   ar
     4    11    12    2
     5    11    10    1
     6    24    23    2
     7    23    22    1
     8    49    47   ar
     9    10     7    1
    10    17    16    2
    11    50    48   ar
    12    22    21    1
    13    25    26    1
    14    31    30    2
    15    47    46   ar
    16    47    45   ar
    17    16    21   am
    18    16    15    1
    19    30    29    1
    20    30    32   am
    21    29    26    1
    22     7     8    1
    23     7     6    1
    24    48    45   ar
    25    26    27    1
    26    46    44   ar
    27     8     9    2
    28     8    14   am
    29     6     3   am
    30    45    43   ar
    31    14    20    1
    32    14    15    1
    33    20    19    1
    34    15    18    1
    35    27    28    2
    36    19    18    1
    37     3     4    2
    38     3     2    1
    39    44    43   ar
    40    43    42    1
    41     2     5    1
    42     2     1    1
    43    42    39    1
    44    97    96    2
    45    38    39    1
    46    38    35   am
    47    39    40    1
    48    96    95    1
    49    37    34    1
    50    33    34    1
    51    95    98    1
    52    95    94    1
    53    35    34    1
    54    35    36    2
    55    90    89    2
    56    40    41    2
    57    98   100    1
    58    98    99    1
    59    59    57   ar
    60    89    94   am
    61    89    88    1
    62    85    84    1
    63    91    88    1
    64    91    92    1
    65    57    56    1
    66    57    58   ar
    67    79    78    1
    68    88    87    1
    69    56    53    1
    70    93    92    1
    71    93    87    1
    72    76    78   ar
    73    76    74   ar
    74    87    82   am
    75    78    77   ar
    76    84    86    1
    77    84    81    1
    78    82    83    2
    79    82    81    1
    80    74    73   ar
    81    81    80    1
    82    52    53    1
    83    77    75   ar
    84    53    54    1
    85    54    55    2
    86    73    75   ar
    87    73    72    1
    88    72    69    1
    89    68    69    1
    90    66    65    1
    91    69    70    1
    92    71    70    2
    93    65    64    1
    94    65    67    1
    95    64    61    1
    96    63    62    2
    97    62    61    1
    98    61    60    1
