@<TRIPOS>MOLECULE
tmp/4p7eA00.pdb
 185 177 0 0 0
SMALL
GASTEIGER

@<TRIPOS>ATOM
      1  N          6.4040   51.8260   -3.4840 N.3    11  GLN11      -0.1245
      2  CA         4.9550   51.9870   -3.3260 C.3    11  GLN11       0.1566
      3  C          4.4620   52.0930   -1.8820 C.2    11  GLN11       0.2260
      4  O          5.1760   51.7550   -0.9430 O.2    11  GLN11      -0.2867
      5  CB         4.1920   50.8870   -4.0690 C.3    11  GLN11       0.0367
      6  CG         4.3920   49.4990   -3.5280 C.3    11  GLN11       0.0905
      7  CD         3.5410   48.4950   -4.2520 C.2    11  GLN11       0.2608
      8  OE1        4.0550   47.6630   -4.9940 O.2    11  GLN11      -0.2717
      9  NE2        2.2290   48.5780   -4.0660 N.am   11  GLN11      -0.0878
     10  N          2.2950   50.8420    1.1840 N.3    13  LEU13      -0.1231
     11  CA         1.8300   49.5420    1.6650 C.3    13  LEU13       0.1693
     12  C          0.6470   49.6970    2.6090 C.2    13  LEU13       0.2593
     13  O         -0.1490   48.7700    2.7700 O.2    13  LEU13      -0.2718
     14  CB         2.9580   48.7510    2.3440 C.3    13  LEU13       0.0284
     15  CG         4.1660   48.3780    1.4890 C.3    13  LEU13       0.0019
     16  CD1        5.1310   47.5410    2.2860 C.3    13  LEU13       0.0001
     17  CD2        3.7570   47.6670    0.2050 C.3    13  LEU13       0.0001
     18  N          0.5350   50.8710    3.2250 N.am   14  GLY14      -0.1942
     19  CA        -0.5600   51.1470    4.1310 C.3    14  GLY14       0.2014
     20  C         -0.4160   52.4570    4.8660 C.2    14  GLY14       0.2639
     21  O          0.6510   52.7770    5.3940 O.2    14  GLY14      -0.2714
     22  N         -1.5130   53.2040    4.9120 N.am   15  LYS15      -0.1963
     23  CA        -1.5510   54.5060    5.5700 C.3    15  LYS15       0.1728
     24  C         -2.6200   54.5070    6.6650 C.2    15  LYS15       0.2616
     25  O         -3.7040   53.9420    6.4860 O.2    15  LYS15      -0.2715
     26  CB        -1.8380   55.6050    4.5440 C.3    15  LYS15       0.0311
     27  CG        -1.0270   56.8850    4.7410 C.3    15  LYS15       0.0038
     28  CD        -1.4450   57.9780    3.7600 C.3    15  LYS15       0.0206
     29  CE        -0.9070   57.7350    2.3440 C.3    15  LYS15       0.1093
     30  NZ        -1.1210   58.9200    1.4350 N.3    15  LYS15      -0.1314
     31  N         -2.2990   55.1260    7.7990 N.am   16  GLY16      -0.1955
     32  CA        -3.2460   55.2790    8.9030 C.3    16  GLY16       0.1869
     33  C         -3.3110   56.7180    9.3860 C.2    16  GLY16       0.2309
     34  O         -2.8630   57.6380    8.6920 O.2    16  GLY16      -0.2863
     35  N          0.4830   56.6190   11.2020 N.3    19  GLY19      -0.1210
     36  CA         1.5820   55.9010   10.5670 C.3    19  GLY19       0.1956
     37  C          1.4110   55.5830    9.0920 C.2    19  GLY19       0.2613
     38  O          0.3090   55.6500    8.5350 O.2    19  GLY19      -0.2717
     39  N          2.5230   55.2210    8.4650 N.am   20  SER20      -0.1938
     40  CA         2.5270   54.8070    7.0690 C.3    20  SER20       0.2055
     41  C          3.6760   53.8440    6.8190 C.2    20  SER20       0.2642
     42  O          4.7700   54.0410    7.3510 O.2    20  SER20      -0.2714
     43  CB         2.6550   56.0300    6.1550 C.3    20  SER20       0.2130
     44  OG         2.6070   55.6470    4.7910 O.3    20  SER20      -0.2179
     45  N          3.4140   52.8060    6.0190 N.am   21  VAL21      -0.1977
     46  CA         4.4320   51.8260    5.6070 C.3    21  VAL21       0.1596
     47  C          4.6290   51.8560    4.0810 C.2    21  VAL21       0.2287
     48  O          3.6670   51.8470    3.3240 O.2    21  VAL21      -0.2864
     49  CB         4.1120   50.3750    6.1210 C.3    21  VAL21       0.0276
     50  CG1        5.2380   49.4260    5.8130 C.3    21  VAL21       0.0022
     51  CG2        3.8590   50.3780    7.6320 C.3    21  VAL21       0.0022
     52  N         10.7060   47.1130    3.9040 N.3    38  ALA38      -0.1245
     53  CA         9.5110   47.8650    4.2850 C.3    38  ALA38       0.1562
     54  C          9.9190   48.9800    5.2260 C.2    38  ALA38       0.2260
     55  O         10.7390   48.7880    6.1210 O.2    38  ALA38      -0.2867
     56  CB         8.4540   46.9650    4.9140 C.3    38  ALA38       0.0290
     57  N          8.5620   52.0380    7.6950 N.3    40  LYS40      -0.1245
     58  CA         7.4850   52.6960    8.4330 C.3    40  LYS40       0.1561
     59  C          7.9030   54.0820    8.9240 C.2    40  LYS40       0.2260
     60  O          8.9880   54.2650    9.4530 O.2    40  LYS40      -0.2867
     61  CB         6.9890   51.8410    9.6050 C.3    40  LYS40       0.0271
     62  CG         5.8010   52.4620   10.3600 C.3    40  LYS40       0.0035
     63  CD         5.2630   51.5470   11.4530 C.3    40  LYS40       0.0206
     64  CE         4.1700   52.2580   12.2610 C.3    40  LYS40       0.1093
     65  NZ         3.5480   51.3740   13.3070 N.3    40  LYS40      -0.1314
     66  N          7.8170   39.9700   12.5740 N.3    69  VAL69      -0.1245
     67  CA         8.5120   40.6750   11.4850 C.3    69  VAL69       0.1561
     68  C          9.9090   41.1350   11.9610 C.2    69  VAL69       0.2260
     69  O         10.0530   41.6560   13.0690 O.2    69  VAL69      -0.2867
     70  CB         7.6530   41.8710   10.9410 C.3    69  VAL69       0.0252
     71  CG1        7.6210   43.0490   11.9470 C.3    69  VAL69       0.0019
     72  CG2        8.1380   42.3450    9.5670 C.3    69  VAL69       0.0019
     73  N         12.1850   47.5620    8.0990 N.3    83  MET83      -0.1230
     74  CA        11.8950   46.1620    8.3860 C.3    83  MET83       0.1702
     75  C         12.1000   45.2940    7.1580 C.2    83  MET83       0.2592
     76  O         12.2670   45.8010    6.0380 O.2    83  MET83      -0.2718
     77  CB        10.4640   46.0030    8.8710 C.3    83  MET83       0.0401
     78  CG        10.2140   46.6750   10.1880 C.3    83  MET83       0.0596
     79  SD         8.4590   46.8560   10.4860 S.3    83  MET83      -0.1393
     80  CE         8.0350   48.2330    9.4120 C.3    83  MET83       0.0692
     81  N         12.0810   43.9820    7.3670 N.am   84  GLU84      -0.1966
     82  CA        12.0140   43.0560    6.2530 C.3    84  GLU84       0.1733
     83  C         10.6960   43.2590    5.4830 C.2    84  GLU84       0.2616
     84  O          9.6400   43.5230    6.0830 O.2    84  GLU84      -0.2715
     85  CB        12.1410   41.6010    6.7340 C.3    84  GLU84       0.0429
     86  CG        11.0450   41.1580    7.7220 C.3    84  GLU84       0.1163
     87  CD        11.0130   39.6470    7.9500 C.2    84  GLU84       0.3649
     88  OE1       10.4580   39.2100    8.9740 O.co2  84  GLU84      -0.2457
     89  OE2       11.5410   38.8920    7.1050 O.co2  84  GLU84      -0.2457
     90  N         10.7810   43.1430    4.1610 N.am   85  TYR85      -0.1960
     91  CA         9.6000   43.1730    3.3000 C.3    85  TYR85       0.1771
     92  C          9.0490   41.7700    3.1020 C.2    85  TYR85       0.2619
     93  O          9.7750   40.8600    2.6920 O.2    85  TYR85      -0.2715
     94  CB         9.9450   43.8070    1.9540 C.3    85  TYR85       0.0574
     95  CG         8.8590   43.7100    0.9140 C.ar   85  TYR85      -0.0198
     96  CD1        7.6740   44.4380    1.0410 C.ar   85  TYR85      -0.0009
     97  CD2        9.0300   42.9100   -0.2210 C.ar   85  TYR85      -0.0009
     98  CE1        6.6870   44.3660    0.0770 C.ar   85  TYR85       0.0417
     99  CE2        8.0570   42.8370   -1.2010 C.ar   85  TYR85       0.0417
    100  CZ         6.8880   43.5730   -1.0420 C.ar   85  TYR85       0.1957
    101  OH         5.9090   43.4910   -1.9990 O.3    85  TYR85      -0.2866
    102  N          7.7620   41.6080    3.3990 N.am   86  LEU86      -0.1964
    103  CA         7.0600   40.3340    3.2320 C.3    86  LEU86       0.1713
    104  C          6.1710   40.3970    2.0030 C.2    86  LEU86       0.2458
    105  O          5.2070   41.1480    1.9810 O.2    86  LEU86      -0.2730
    106  CB         6.2630   39.9770    4.5050 C.3    86  LEU86       0.0310
    107  CG         7.2100   39.7910    5.7120 C.3    86  LEU86       0.0022
    108  CD1        6.5000   39.2370    6.9380 C.3    86  LEU86       0.0001
    109  CD2        8.3640   38.8870    5.3400 C.3    86  LEU86       0.0001
    110  N          6.4910   39.5910    0.9750 N.am   87  PRO87      -0.2716
    111  CA         5.9270   39.8090   -0.3660 C.3    87  PRO87       0.1536
    112  C          4.4280   39.4930   -0.5050 C.2    87  PRO87       0.2599
    113  O          3.7580   40.0500   -1.3670 O.2    87  PRO87      -0.2715
    114  CB         6.7860   38.9110   -1.2710 C.3    87  PRO87       0.0310
    115  CG         7.3420   37.8810   -0.4050 C.3    87  PRO87       0.0237
    116  CD         7.3610   38.4000    1.0220 C.3    87  PRO87       0.0939
    117  N          3.9010   38.6350    0.3570 N.am   88  TYR88      -0.1960
    118  CA         2.4810   38.2980    0.3110 C.3    88  TYR88       0.1771
    119  C          1.5600   39.2660    1.0690 C.2    88  TYR88       0.2620
    120  O          0.3370   39.2370    0.8870 O.2    88  TYR88      -0.2715
    121  CB         2.2680   36.8480    0.7380 C.3    88  TYR88       0.0574
    122  CG         2.9060   35.8520   -0.2020 C.ar   88  TYR88      -0.0198
    123  CD1        4.2130   35.3930    0.0100 C.ar   88  TYR88      -0.0009
    124  CD2        2.2100   35.3710   -1.3220 C.ar   88  TYR88      -0.0009
    125  CE1        4.8050   34.4890   -0.8500 C.ar   88  TYR88       0.0417
    126  CE2        2.7940   34.4440   -2.1920 C.ar   88  TYR88       0.0417
    127  CZ         4.0880   34.0150   -1.9560 C.ar   88  TYR88       0.1957
    128  OH         4.6810   33.1020   -2.8260 O.3    88  TYR88      -0.2866
    129  N          2.1340   40.1220    1.9130 N.am   89  GLY89      -0.1940
    130  CA         1.3580   41.1720    2.5780 C.3    89  GLY89       0.2014
    131  C          0.5510   40.7130    3.7630 C.2    89  GLY89       0.2639
    132  O          0.8980   39.7340    4.3970 O.2    89  GLY89      -0.2714
    133  N         -0.5190   41.4400    4.0750 N.am   90  SER90      -0.1949
    134  CA        -1.3390   41.1140    5.2340 C.3    90  SER90       0.1924
    135  C         -2.1390   39.8290    5.0550 C.2    90  SER90       0.2314
    136  O         -2.6610   39.5610    3.9850 O.2    90  SER90      -0.2863
    137  CB        -2.2690   42.2680    5.6080 C.3    90  SER90       0.2116
    138  OG        -3.4280   42.2640    4.7970 O.3    90  SER90      -0.2180
    139  N         -5.6500   40.4930    3.5040 N.3    93  ASP93      -0.1239
    140  CA        -5.8070   40.5950    2.0700 C.3    93  ASP93       0.1674
    141  C         -5.4830   39.2810    1.4240 C.2    93  ASP93       0.2266
    142  O         -6.0750   38.9350    0.4160 O.2    93  ASP93      -0.2867
    143  CB        -4.8990   41.6800    1.4890 C.3    93  ASP93       0.1410
    144  CG        -5.1960   43.0670    2.0420 C.2    93  ASP93       0.3668
    145  OD1       -4.2240   43.8480    2.1860 O.co2  93  ASP93      -0.2456
    146  OD2       -6.3800   43.3910    2.3300 O.co2  93  ASP93      -0.2456
    147  N         -5.2940   42.3450    9.7840 N.3   134  ARG134     -0.1231
    148  CA        -4.6140   43.4190    9.0390 C.3   134  ARG134      0.1694
    149  C         -3.1730   43.6720    9.5340 C.2   134  ARG134      0.2592
    150  O         -2.3500   44.1830    8.7850 O.2   134  ARG134     -0.2718
    151  CB        -5.4490   44.7210    9.0300 C.3   134  ARG134      0.0321
    152  CG        -5.5870   45.3610   10.3900 C.3   134  ARG134      0.0489
    153  CD        -6.5690   46.5210   10.4410 C.3   134  ARG134      0.2205
    154  NE        -6.2450   47.3920   11.5750 N.pl3 134  ARG134     -0.0865
    155  CZ        -6.7590   47.3060   12.8090 C.cat 134  ARG134      0.5346
    156  NH1       -7.6780   46.3910   13.1200 N.pl3 134  ARG134      0.1354
    157  NH2       -6.3570   48.1700   13.7460 N.pl3 134  ARG134      0.1354
    158  N         -2.8740   43.2910   10.7800 N.am  135  ASN135     -0.1974
    159  CA        -1.5280   43.4270   11.3520 C.3   135  ASN135      0.1688
    160  C         -0.6970   42.1420   11.3540 C.2   135  ASN135      0.2292
    161  O          0.4040   42.0950   11.9160 O.2   135  ASN135     -0.2864
    162  CB        -1.6130   43.9930   12.7660 C.3   135  ASN135      0.1181
    163  CG        -2.2010   45.3840   12.7970 C.2   135  ASN135      0.2629
    164  OD1       -2.0000   46.1850   11.8740 O.2   135  ASN135     -0.2716
    165  ND2       -2.9220   45.6900   13.8610 N.am  135  ASN135     -0.0877
    166  N          1.1920   39.3690    8.8840 N.3   137  LEU137     -0.1245
    167  CA         1.8140   39.3550    7.5770 C.3   137  LEU137      0.1561
    168  C          2.1420   37.9430    7.1570 C.2   137  LEU137      0.2260
    169  O          2.4410   37.0840    7.9850 O.2   137  LEU137     -0.2867
    170  CB         3.0860   40.1890    7.5900 C.3   137  LEU137      0.0270
    171  CG         3.0170   41.6860    7.9080 C.3   137  LEU137      0.0019
    172  CD1        4.4260   42.2030    8.0320 C.3   137  LEU137      0.0001
    173  CD2        2.2330   42.4870    6.8360 C.3   137  LEU137      0.0001
    174  N          3.1280   41.7540   12.5210 N.3   147  GLY147     -0.1210
    175  CA         3.8100   42.6790   11.6240 C.3   147  GLY147      0.1956
    176  C          3.7210   44.1520   11.9320 C.2   147  GLY147      0.2611
    177  O          4.3160   44.9570   11.2040 O.2   147  GLY147     -0.2717
    178  N          2.9950   44.5050   12.9960 N.am  148  ASP148     -0.1973
    179  CA         2.9240   45.8860   13.4800 C.3   148  ASP148      0.1709
    180  C          2.8720   45.9320   15.0060 C.2   148  ASP148      0.2293
    181  O          2.2100   45.0890   15.6220 O.2   148  ASP148     -0.2864
    182  CB         1.7070   46.6330   12.9200 C.3   148  ASP148      0.1436
    183  CG         1.7680   48.1520   13.2110 C.2   148  ASP148      0.3671
    184  OD1        2.6030   48.8340   12.5680 O.co2 148  ASP148     -0.2456
    185  OD2        1.0090   48.6530   14.0880 O.co2 148  ASP148     -0.2456
@<TRIPOS>BOND
     1     8     7    2
     2     7     9   am
     3     7     6    1
     4     5     6    1
     5     5     2    1
     6     1     2    1
     7     2     3    1
     8   128   127    1
     9   126   127   ar
    10   126   124   ar
    11   101   100    1
    12   127   125   ar
    13     3     4    2
    14   113   112    2
    15   124   122   ar
    16   114   115    1
    17   114   111    1
    18    99   100   ar
    19    99    97   ar
    20   100    98   ar
    21   125   123   ar
    22   112   111    1
    23   112   117   am
    24   115   116    1
    25   111   110    1
    26    97    95   ar
    27   122   123   ar
    28   122   121    1
    29    98    96   ar
    30    17    15    1
    31   118   117    1
    32   118   121    1
    33   118   119    1
    34   142   141    2
    35   120   119    2
    36    95    96   ar
    37    95    94    1
    38   110   116    1
    39   110   104   am
    40   119   129   am
    41    10    11    1
    42   141   140    1
    43    30    29    1
    44   143   144    1
    45   143   140    1
    46    15    16    1
    47    15    14    1
    48    11    14    1
    49    11    12    1
    50   129   130    1
    51    94    91    1
    52   105   104    2
    53   104   103    1
    54   144   145   ar
    55   144   146   ar
    56   140   139    1
    57    29    28    1
    58   130   131    1
    59    12    13    2
    60    12    18   am
    61    93    92    2
    62    92    91    1
    63    92   102   am
    64    18    19    1
    65   103   102    1
    66   103   106    1
    67    91    90    1
    68    48    47    2
    69    28    27    1
    70   131   133   am
    71   131   132    2
    72    52    53    1
    73   136   135    2
    74   133   134    1
    75    47    46    1
    76    19    20    1
    77    90    83   am
    78    53    56    1
    79    53    54    1
    80   106   107    1
    81    26    27    1
    82    26    23    1
    83    44    43    1
    84   138   137    1
    85    20    22   am
    86    20    21    2
    87    22    23    1
    88   135   134    1
    89    54    55    2
    90   134   137    1
    91   109   107    1
    92    83    84    2
    93    83    82    1
    94    23    24    1
    95    46    45    1
    96    46    49    1
    97   107   108    1
    98    50    49    1
    99    45    41   am
   100    76    75    2
   101    49    51    1
   102    43    40    1
   103    82    85    1
   104    82    81    1
   105    25    24    2
   106    24    31   am
   107    85    86    1
   108    41    40    1
   109    41    42    2
   110   173   171    1
   111    40    39    1
   112    89    87   ar
   113   168   167    1
   114   168   169    2
   115    75    81   am
   116    75    74    1
   117   167   170    1
   118   167   166    1
   119   170   171    1
   120    57    58    1
   121    86    87    1
   122    31    32    1
   123   171   172    1
   124    87    88   ar
   125    73    74    1
   126    74    77    1
   127    58    59    1
   128    58    61    1
   129    39    37   am
   130    38    37    2
   131    34    33    2
   132   150   149    2
   133    77    78    1
   134    32    33    1
   135    59    60    2
   136   151   148    1
   137   151   152    1
   138   148   149    1
   139   148   147    1
   140    37    36    1
   141    80    79    1
   142   149   158   am
   143    72    70    1
   144    61    62    1
   145    78    79    1
   146    62    63    1
   147   152   153    1
   148   153   154    1
   149    36    35    1
   150   158   159    1
   151    70    67    1
   152    70    71    1
   153   177   176    2
   154   159   160    1
   155   159   162    1
   156   160   161    2
   157    63    64    1
   158    67    68    1
   159    67    66    1
   160   154   155    2
   161   175   176    1
   162   175   174    1
   163   164   163    2
   164   176   178   am
   165    68    69    2
   166    64    65    1
   167   184   183   ar
   168   162   163    1
   169   163   165   am
   170   155   156    1
   171   155   157    1
   172   182   183    1
   173   182   179    1
   174   178   179    1
   175   183   185   ar
   176   179   180    1
   177   180   181    2
