@<TRIPOS>MOLECULE
tmp/4p7iB00.pdb
 146 142 0 0 0
SMALL
GASTEIGER

@<TRIPOS>ATOM
      1  N        -41.6330   33.0820  -43.3890 N.3   238  TRP238     -0.1227
      2  CA       -40.6900   33.2280  -44.4990 C.3   238  TRP238      0.1737
      3  C        -40.0000   31.9200  -44.8840 C.2   238  TRP238      0.2595
      4  O        -39.8310   31.6230  -46.0680 O.2   238  TRP238     -0.2718
      5  CB       -39.6320   34.2930  -44.1810 C.3   238  TRP238      0.0564
      6  CG       -40.1640   35.6960  -44.1130 C.ar  238  TRP238      0.0003
      7  CD1      -40.0930   36.5520  -43.0500 C.ar  238  TRP238      0.0946
      8  CD2      -40.8460   36.4050  -45.1540 C.ar  238  TRP238      0.0152
      9  NE1      -40.6880   37.7490  -43.3670 N.ar  238  TRP238     -0.2442
     10  CE2      -41.1580   37.6850  -44.6550 C.ar  238  TRP238      0.0810
     11  CE3      -41.2220   36.0830  -46.4620 C.ar  238  TRP238      0.0012
     12  CZ2      -41.8350   38.6390  -45.4140 C.ar  238  TRP238      0.0191
     13  CZ3      -41.8900   37.0300  -47.2140 C.ar  238  TRP238      0.0001
     14  CH2      -42.1880   38.2930  -46.6900 C.ar  238  TRP238      0.0015
     15  N        -39.6020   31.1440  -43.8800 N.am  239  ASN239     -0.1974
     16  CA       -38.8900   29.8900  -44.1170 C.3   239  ASN239      0.1688
     17  C        -39.8130   28.7150  -44.4470 C.2   239  ASN239      0.2292
     18  O        -39.3480   27.5990  -44.6830 O.2   239  ASN239     -0.2864
     19  CB       -37.9730   29.5490  -42.9360 C.3   239  ASN239      0.1181
     20  CG       -38.7180   29.4820  -41.6130 C.2   239  ASN239      0.2629
     21  OD1      -39.8460   29.9610  -41.4950 O.2   239  ASN239     -0.2716
     22  ND2      -38.0810   28.8940  -40.6070 N.am  239  ASN239     -0.0877
     23  N        -42.0230   29.2210  -46.9500 N.3   241  ILE241     -0.1231
     24  CA       -42.4430   29.6050  -48.2920 C.3   241  ILE241      0.1692
     25  C        -41.3740   29.2460  -49.3200 C.2   241  ILE241      0.2592
     26  O        -40.2430   29.7300  -49.2380 O.2   241  ILE241     -0.2718
     27  CB       -42.7210   31.1200  -48.3820 C.3   241  ILE241      0.0266
     28  CG1      -43.8260   31.5280  -47.4080 C.3   241  ILE241      0.0019
     29  CG2      -43.1000   31.5140  -49.8010 C.3   241  ILE241      0.0020
     30  CD1      -44.1470   33.0060  -47.4500 C.3   241  ILE241      0.0001
     31  N        -41.7290   28.3970  -50.2820 N.am  242  ARG242     -0.1966
     32  CA       -40.8220   28.0670  -51.3780 C.3   242  ARG242      0.1729
     33  C        -40.5430   29.3120  -52.2130 C.2   242  ARG242      0.2616
     34  O        -39.3930   29.7340  -52.3500 O.2   242  ARG242     -0.2715
     35  CB       -41.4080   26.9590  -52.2570 C.3   242  ARG242      0.0348
     36  CG       -40.6300   26.7050  -53.5440 C.3   242  ARG242      0.0492
     37  CD       -41.1570   25.4860  -54.2930 C.3   242  ARG242      0.2205
     38  NE       -40.7860   24.2360  -53.6330 N.pl3 242  ARG242     -0.0865
     39  CZ       -41.5610   23.5860  -52.7710 C.cat 242  ARG242      0.5346
     40  NH1      -42.7580   24.0640  -52.4630 N.pl3 242  ARG242      0.1354
     41  NH2      -41.1400   22.4570  -52.2170 N.pl3 242  ARG242      0.1354
     42  N        -41.6030   29.9010  -52.7580 N.am  243  ASN243     -0.1958
     43  CA       -41.4740   31.1180  -53.5530 C.3   243  ASN243      0.1819
     44  C        -42.7620   31.9350  -53.6190 C.2   243  ASN243      0.2621
     45  O        -43.8420   31.4490  -53.2770 O.2   243  ASN243     -0.2715
     46  CB       -40.9910   30.7880  -54.9700 C.3   243  ASN243      0.1195
     47  CG       -42.0110   29.9930  -55.7680 C.2   243  ASN243      0.2630
     48  OD1      -42.0130   28.7620  -55.7440 O.2   243  ASN243     -0.2716
     49  ND2      -42.8810   30.6970  -56.4850 N.am  243  ASN243     -0.0877
     50  N        -42.6330   33.1840  -54.0550 N.am  244  ILE244     -0.1963
     51  CA       -43.7850   34.0380  -54.3190 C.3   244  ILE244      0.1727
     52  C        -43.6960   34.5720  -55.7460 C.2   244  ILE244      0.2617
     53  O        -42.6320   35.0060  -56.1820 O.2   244  ILE244     -0.2715
     54  CB       -43.8990   35.1960  -53.2950 C.3   244  ILE244      0.0290
     55  CG1      -44.8020   36.3110  -53.8320 C.3   244  ILE244      0.0022
     56  CG2      -42.5250   35.7490  -52.9440 C.3   244  ILE244      0.0023
     57  CD1      -45.0240   37.4460  -52.8520 C.3   244  ILE244      0.0001
     58  N        -44.8040   34.5220  -56.4790 N.am  245  SER245     -0.1936
     59  CA       -44.7920   34.9210  -57.8820 C.3   245  SER245      0.2055
     60  C        -45.7330   36.0930  -58.1580 C.2   245  SER245      0.2643
     61  O        -46.6560   36.3590  -57.3830 O.2   245  SER245     -0.2714
     62  CB       -45.1520   33.7280  -58.7710 C.3   245  SER245      0.2130
     63  OG       -44.3950   32.5830  -58.4130 O.3   245  SER245     -0.2179
     64  N        -45.4870   36.7960  -59.2600 N.am  246  TYR246     -0.1959
     65  CA       -46.3430   37.9040  -59.6710 C.3   246  TYR246      0.1771
     66  C        -46.3150   38.1420  -61.1760 C.2   246  TYR246      0.2620
     67  O        -45.2530   38.1250  -61.8000 O.2   246  TYR246     -0.2715
     68  CB       -45.9560   39.2000  -58.9530 C.3   246  TYR246      0.0574
     69  CG       -46.7040   40.4090  -59.4740 C.ar  246  TYR246     -0.0198
     70  CD1      -46.1150   41.2830  -60.3810 C.ar  246  TYR246     -0.0009
     71  CD2      -48.0070   40.6650  -59.0700 C.ar  246  TYR246     -0.0009
     72  CE1      -46.8020   42.3830  -60.8630 C.ar  246  TYR246      0.0417
     73  CE2      -48.6980   41.7610  -59.5440 C.ar  246  TYR246      0.0417
     74  CZ       -48.0940   42.6160  -60.4400 C.ar  246  TYR246      0.1957
     75  OH       -48.7860   43.7080  -60.9120 O.3   246  TYR246     -0.2866
     76  N        -47.4960   38.3730  -61.7410 N.am  247  SER247     -0.1936
     77  CA       -47.6410   38.7900  -63.1310 C.3   247  SER247      0.2055
     78  C        -49.0550   39.3160  -63.3400 C.2   247  SER247      0.2643
     79  O        -50.0280   38.5940  -63.1130 O.2   247  SER247     -0.2714
     80  CB       -47.3680   37.6300  -64.0930 C.3   247  SER247      0.2130
     81  OG       -48.4850   36.7650  -64.1910 O.3   247  SER247     -0.2179
     82  N        -49.1580   40.5760  -63.7570 N.am  248  ASP248     -0.1971
     83  CA       -50.4430   41.2100  -64.0390 C.3   248  ASP248      0.1709
     84  C        -51.4140   41.1190  -62.8590 C.2   248  ASP248      0.2293
     85  O        -52.3940   40.3720  -62.9110 O.2   248  ASP248     -0.2864
     86  CB       -51.0720   40.6120  -65.3020 C.3   248  ASP248      0.1436
     87  CG       -52.1300   41.5120  -65.9130 C.2   248  ASP248      0.3671
     88  OD1      -52.2430   42.6810  -65.4860 O.co2 248  ASP248     -0.2456
     89  OD2      -52.8390   41.0530  -66.8340 O.co2 248  ASP248     -0.2456
     90  N        -43.4150   25.8600  -48.9720 N.3   256  LEU256     -0.1245
     91  CA       -42.4330   24.7920  -49.1100 C.3   256  LEU256      0.1561
     92  C        -43.0970   23.4600  -48.7820 C.2   256  LEU256      0.2260
     93  O        -42.7810   22.4310  -49.3820 O.2   256  LEU256     -0.2867
     94  CB       -41.2260   25.0380  -48.2010 C.3   256  LEU256      0.0270
     95  CG       -39.9400   24.2870  -48.5570 C.3   256  LEU256      0.0019
     96  CD1      -39.5440   24.5730  -49.9950 C.3   256  LEU256      0.0001
     97  CD2      -38.8100   24.6680  -47.6140 C.3   256  LEU256      0.0001
     98  N        -44.7770   46.5440  -56.3570 N.3   274  LYS274     -0.1245
     99  CA       -43.3240   46.6660  -56.3620 C.3   274  LYS274      0.1561
    100  C        -42.8300   47.1150  -54.9920 C.2   274  LYS274      0.2260
    101  O        -41.6800   46.8750  -54.6260 O.2   274  LYS274     -0.2867
    102  CB       -42.8620   47.6220  -57.4630 C.3   274  LYS274      0.0271
    103  CG       -43.0630   47.0530  -58.8580 C.3   274  LYS274      0.0035
    104  CD       -42.7580   48.0680  -59.9430 C.3   274  LYS274      0.0206
    105  CE       -43.0020   47.4690  -61.3210 C.3   274  LYS274      0.1093
    106  NZ       -42.8220   48.4700  -62.4080 N.3   274  LYS274     -0.1314
    107  N        -43.2650   43.6370  -53.0760 N.3   277  LEU277     -0.1245
    108  CA       -42.1900   42.7270  -53.4680 C.3   277  LEU277      0.1561
    109  C        -40.8400   43.0920  -52.8490 C.2   277  LEU277      0.2260
    110  O        -40.0890   42.2100  -52.4280 O.2   277  LEU277     -0.2867
    111  CB       -42.0870   42.6460  -54.9940 C.3   277  LEU277      0.0270
    112  CG       -43.0740   41.6760  -55.6450 C.3   277  LEU277      0.0019
    113  CD1      -43.2450   41.9660  -57.1260 C.3   277  LEU277      0.0001
    114  CD2      -42.6080   40.2450  -55.4320 C.3   277  LEU277      0.0001
    115  N        -40.9990   42.0770  -49.3290 N.3   280  CYS280     -0.1221
    116  CA       -40.8450   40.6280  -49.2370 C.3   280  CYS280      0.1808
    117  C        -39.3780   40.2040  -49.2970 C.2   280  CYS280      0.2601
    118  O        -38.9190   39.4280  -48.4600 O.2   280  CYS280     -0.2717
    119  CB       -41.6430   39.9240  -50.3380 C.3   280  CYS280      0.0970
    120  SG       -43.4360   39.9840  -50.1230 S.3   280  CYS280     -0.0800
    121  N        -38.6540   40.7170  -50.2910 N.am  281  ILE281     -0.1979
    122  CA       -37.2340   40.4130  -50.4640 C.3   281  ILE281      0.1595
    123  C        -36.4240   40.7940  -49.2290 C.2   281  ILE281      0.2287
    124  O        -35.6950   39.9690  -48.6740 O.2   281  ILE281     -0.2864
    125  CB       -36.6360   41.1540  -51.6800 C.3   281  ILE281      0.0276
    126  CG1      -37.3190   40.7120  -52.9740 C.3   281  ILE281      0.0022
    127  CG2      -35.1380   40.9120  -51.7700 C.3   281  ILE281      0.0022
    128  CD1      -36.8570   41.4740  -54.2000 C.3   281  ILE281      0.0001
    129  N        -37.4030   38.8360  -46.1260 N.3   284  HIS284     -0.1241
    130  CA       -36.9640   37.4490  -46.2620 C.3   284  HIS284      0.1621
    131  C        -35.4710   37.3110  -45.9950 C.2   284  HIS284      0.2264
    132  O        -35.0380   36.3700  -45.3300 O.2   284  HIS284     -0.2867
    133  CB       -37.2960   36.8900  -47.6480 C.3   284  HIS284      0.0745
    134  CG       -36.7550   35.5150  -47.8880 C.ar  284  HIS284      0.0817
    135  ND1      -35.7830   35.2500  -48.8290 N.ar  284  HIS284     -0.2268
    136  CD2      -37.0450   34.3280  -47.3030 C.ar  284  HIS284      0.1154
    137  CE1      -35.5010   33.9590  -48.8160 C.ar  284  HIS284      0.1986
    138  NE2      -36.2530   33.3770  -47.8990 N.ar  284  HIS284     -0.2212
    139  N        -33.6020   35.2530  -42.6670 N.3   288  MET288     -0.1245
    140  CA       -32.6780   34.1340  -42.8240 C.3   288  MET288      0.1570
    141  C        -31.2980   34.4390  -42.2410 C.2   288  MET288      0.2261
    142  O        -30.6430   33.5580  -41.6830 O.2   288  MET288     -0.2867
    143  CB       -32.5560   33.7420  -44.2990 C.3   288  MET288      0.0387
    144  CG       -33.8820   33.4020  -44.9660 C.3   288  MET288      0.0595
    145  SD       -34.7010   31.9630  -44.2520 S.3   288  MET288     -0.1393
    146  CE       -33.5760   30.6560  -44.7380 C.3   288  MET288      0.0692
@<TRIPOS>BOND
     1    89    87   ar
     2    87    88   ar
     3    87    86    1
     4    86    83    1
     5    81    80    1
     6    80    77    1
     7    83    82    1
     8    83    84    1
     9    82    78   am
    10    78    77    1
    11    78    79    2
    12    77    76    1
    13    85    84    2
    14   106   105    1
    15    67    66    2
    16    76    66   am
    17   105   104    1
    18    66    65    1
    19    75    74    1
    20    72    74   ar
    21    72    70   ar
    22    74    73   ar
    23    70    69   ar
    24   104   103    1
    25    65    64    1
    26    65    68    1
    27    73    71   ar
    28    69    71   ar
    29    69    68    1
    30    64    60   am
    31   103   102    1
    32    62    63    1
    33    62    59    1
    34    60    59    1
    35    60    61    2
    36    59    58    1
    37   102    99    1
    38   113   112    1
    39    49    47   am
    40    58    52   am
    41    99    98    1
    42    99   100    1
    43    53    52    2
    44    47    48    2
    45    47    46    1
    46    52    51    1
    47   112   114    1
    48   112   111    1
    49   111   108    1
    50   100   101    2
    51    46    43    1
    52    51    50    1
    53    51    54    1
    54    37    38    1
    55    37    36    1
    56   128   126    1
    57    50    44   am
    58    55    54    1
    59    55    57    1
    60    38    39    2
    61    44    43    1
    62    44    45    2
    63    43    42    1
    64    36    35    1
    65   108   107    1
    66   108   109    1
    67    54    56    1
    68   126   125    1
    69   109   110    2
    70    39    40    1
    71    39    41    1
    72    42    33   am
    73    34    33    2
    74    35    32    1
    75    33    32    1
    76   127   125    1
    77   125   122    1
    78    32    31    1
    79   122   121    1
    80   122   123    1
    81   119   120    1
    82   119   116    1
    83   121   117   am
    84    31    25   am
    85    96    95    1
    86    29    27    1
    87    93    92    2
    88   115   116    1
    89    25    26    2
    90    25    24    1
    91   117   116    1
    92   117   118    2
    93   123   124    2
    94    91    90    1
    95    91    92    1
    96    91    94    1
    97   135   137   ar
    98   135   134   ar
    99   137   138   ar
   100    95    94    1
   101    95    97    1
   102    27    24    1
   103    27    28    1
   104    24    23    1
   105   138   136   ar
   106   134   133    1
   107   134   136   ar
   108   133   130    1
   109    30    28    1
   110    13    14   ar
   111    13    11   ar
   112    14    12   ar
   113    11     8   ar
   114   130   129    1
   115   130   131    1
   116     4     3    2
   117   131   132    2
   118    12    10   ar
   119     8    10   ar
   120     8     6   ar
   121   144   143    1
   122   144   145    1
   123     3     2    1
   124     3    15   am
   125   146   145    1
   126    18    17    2
   127    10     9   ar
   128     2     5    1
   129     2     1    1
   130    17    16    1
   131   143   140    1
   132     5     6    1
   133    16    15    1
   134    16    19    1
   135     6     7   ar
   136     9     7   ar
   137    19    20    1
   138   140   139    1
   139   140   141    1
   140   141   142    2
   141    20    21    2
   142    20    22   am
