@<TRIPOS>MOLECULE
tmp/4p7kA00.pdb
 207 203 0 0 0
SMALL
GASTEIGER

@<TRIPOS>ATOM
      1  N        -13.3920   -0.2870   16.4840 N.3    39  MET39      -0.1230
      2  CA       -13.1220   -1.6510   16.9140 C.3    39  MET39       0.1702
      3  C        -12.4430   -2.4910   15.8450 C.2    39  MET39       0.2592
      4  O        -12.0930   -3.6450   16.1050 O.2    39  MET39      -0.2718
      5  CB       -14.4090   -2.3670   17.3230 C.3    39  MET39       0.0401
      6  CG       -15.2740   -1.5970   18.2930 C.3    39  MET39       0.0596
      7  SD       -14.4390   -1.1630   19.8140 S.3    39  MET39      -0.1393
      8  CE       -14.1800   -2.7650   20.5600 C.3    39  MET39       0.0692
      9  N        -12.2690   -1.9140   14.6590 N.am   40  ASN40      -0.1974
     10  CA       -11.6900   -2.6190   13.5270 C.3    40  ASN40       0.1688
     11  C        -10.3120   -2.1020   13.1350 C.2    40  ASN40       0.2292
     12  O         -9.7960   -2.4550   12.0810 O.2    40  ASN40      -0.2864
     13  CB       -12.6520   -2.5500   12.3490 C.3    40  ASN40       0.1181
     14  CG       -14.0060   -3.1380   12.6840 C.2    40  ASN40       0.2629
     15  OD1      -15.0280   -2.4460   12.6670 O.2    40  ASN40      -0.2716
     16  ND2      -14.0170   -4.4150   13.0180 N.am   40  ASN40      -0.0877
     17  N         -3.6920   -3.1460   19.3800 N.3    45  LYS45      -0.1245
     18  CA        -3.7210   -4.4900   19.9710 C.3    45  LYS45       0.1561
     19  C         -2.6770   -5.4020   19.2780 C.2    45  LYS45       0.2260
     20  O         -2.1090   -6.3030   19.8920 O.2    45  LYS45      -0.2867
     21  CB        -5.1420   -5.1050   19.9490 C.3    45  LYS45       0.0271
     22  CG        -5.6450   -5.5650   18.6040 C.3    45  LYS45       0.0035
     23  CD        -7.0500   -6.1310   18.7080 C.3    45  LYS45       0.0206
     24  CE        -7.4020   -6.9580   17.4910 C.3    45  LYS45       0.1093
     25  NZ        -8.7840   -7.5110   17.5780 N.3    45  LYS45      -0.1314
     26  N         -7.7560  -19.3780   17.4840 N.3    63  GLU63      -0.1231
     27  CA        -8.4240  -18.0950   17.5330 C.3    63  GLU63       0.1699
     28  C         -9.9260  -18.2830   17.6330 C.2    63  GLU63       0.2592
     29  O        -10.5020  -19.0870   16.9030 O.2    63  GLU63      -0.2718
     30  CB        -8.1190  -17.2920   16.2720 C.3    63  GLU63       0.0402
     31  CG        -8.9860  -16.0570   16.1000 C.3    63  GLU63       0.1161
     32  CD        -8.4870  -15.1730   14.9920 C.2    63  GLU63       0.3649
     33  OE1       -8.8300  -15.4050   13.8090 O.co2  63  GLU63      -0.2457
     34  OE2       -7.7290  -14.2450   15.3020 O.co2  63  GLU63      -0.2457
     35  N        -10.5420  -17.5280   18.5330 N.am   64  LEU64      -0.1966
     36  CA       -11.9960  -17.4700   18.6340 C.3    64  LEU64       0.1728
     37  C        -12.4380  -16.1240   18.0910 C.2    64  LEU64       0.2617
     38  O        -12.2150  -15.0960   18.7150 O.2    64  LEU64      -0.2715
     39  CB       -12.4500  -17.6470   20.0910 C.3    64  LEU64       0.0311
     40  CG       -11.8920  -18.9040   20.7760 C.3    64  LEU64       0.0022
     41  CD1      -12.4020  -18.9990   22.2070 C.3    64  LEU64       0.0001
     42  CD2      -12.2240  -20.1750   19.9910 C.3    64  LEU64       0.0001
     43  N        -13.0520  -16.1570   16.9070 N.am   65  GLY65      -0.1940
     44  CA       -13.5450  -14.9680   16.2180 C.3    65  GLY65       0.2014
     45  C        -12.5970  -14.4410   15.1560 C.2    65  GLY65       0.2639
     46  O        -11.6030  -13.8070   15.4840 O.2    65  GLY65      -0.2714
     47  N        -12.9100  -14.6930   13.8920 N.am   66  ALA66      -0.1963
     48  CA       -12.0240  -14.3400   12.7880 C.3    66  ALA66       0.1728
     49  C        -12.3700  -12.9990   12.1450 C.2    66  ALA66       0.2616
     50  O        -11.4830  -12.2630   11.7390 O.2    66  ALA66      -0.2715
     51  CB       -12.0510  -15.4280   11.7150 C.3    66  ALA66       0.0334
     52  N        -13.6680  -12.7360   12.0120 N.am   67  TYR67      -0.1960
     53  CA       -14.2310  -11.6010   11.2920 C.3    67  TYR67       0.1771
     54  C        -13.7480  -11.5810    9.8300 C.2    67  TYR67       0.2619
     55  O        -14.2030  -12.4090    9.0430 O.2    67  TYR67      -0.2715
     56  CB       -14.0100  -10.2890   12.0630 C.3    67  TYR67       0.0574
     57  CG       -14.7790   -9.1140   11.4920 C.ar   67  TYR67      -0.0198
     58  CD1      -16.1230   -9.2340   11.1860 C.ar   67  TYR67      -0.0009
     59  CD2      -14.1640   -7.8980   11.2460 C.ar   67  TYR67      -0.0009
     60  CE1      -16.8370   -8.1800   10.6530 C.ar   67  TYR67       0.0417
     61  CE2      -14.8650   -6.8400   10.7120 C.ar   67  TYR67       0.0417
     62  CZ       -16.2010   -6.9820   10.4150 C.ar   67  TYR67       0.1957
     63  OH       -16.8980   -5.9190    9.8830 O.3    67  TYR67      -0.2866
     64  N        -12.8540  -10.6630    9.4660 N.am   68  CYS68      -0.1968
     65  CA       -12.3550  -10.5830    8.0930 C.3    68  CYS68       0.1712
     66  C        -10.9360  -11.1000    7.9440 C.2    68  CYS68       0.2296
     67  O        -10.3550  -11.0260    6.8620 O.2    68  CYS68      -0.2864
     68  CB       -12.4140   -9.1420    7.5730 C.3    68  CYS68       0.0983
     69  SG       -14.0710   -8.5130    7.3850 S.3    68  CYS68      -0.0798
     70  N         -8.1350  -10.2100    9.9530 N.3    70  TYR70      -0.1227
     71  CA        -7.0260   -9.3520   10.3570 C.3    70  TYR70       0.1736
     72  C         -6.1250  -10.0330   11.3800 C.2    70  TYR70       0.2596
     73  O         -4.9060  -10.0940   11.2040 O.2    70  TYR70      -0.2718
     74  CB        -7.5130   -8.0300   10.9330 C.3    70  TYR70       0.0548
     75  CG        -6.4160   -7.0960   11.3750 C.ar   70  TYR70      -0.0200
     76  CD1       -5.8790   -7.1850   12.6420 C.ar   70  TYR70      -0.0009
     77  CD2       -5.9450   -6.0910   10.5390 C.ar   70  TYR70      -0.0009
     78  CE1       -4.9020   -6.3190   13.0720 C.ar   70  TYR70       0.0417
     79  CE2       -4.9520   -5.2070   10.9670 C.ar   70  TYR70       0.0417
     80  CZ        -4.4560   -5.3250   12.2410 C.ar   70  TYR70       0.1957
     81  OH        -3.4890   -4.4770   12.7100 O.3    70  TYR70      -0.2866
     82  N         -6.7110  -10.5310   12.4630 N.am   71  SER71      -0.1952
     83  CA        -5.8950  -11.0980   13.5230 C.3    71  SER71       0.1924
     84  C         -5.2880  -12.4330   13.0850 C.2    71  SER71       0.2314
     85  O         -4.1720  -12.7630   13.4960 O.2    71  SER71      -0.2863
     86  CB        -6.6950  -11.2310   14.8170 C.3    71  SER71       0.2116
     87  OG        -7.9300  -11.8860   14.5820 O.3    71  SER71      -0.2180
     88  N        -11.9360  -20.1300   14.6610 N.3    88  MET88      -0.1230
     89  CA       -13.3550  -20.4310   14.7190 C.3    88  MET88       0.1702
     90  C        -14.1620  -19.1820   14.4320 C.2    88  MET88       0.2592
     91  O        -14.0030  -18.1480   15.0810 O.2    88  MET88      -0.2718
     92  CB       -13.7200  -20.9990   16.0890 C.3    88  MET88       0.0401
     93  CG       -13.0490  -22.3160   16.3750 C.3    88  MET88       0.0596
     94  SD       -13.4350  -22.9810   17.9980 S.3    88  MET88      -0.1393
     95  CE       -12.6400  -24.5920   17.8800 C.3    88  MET88       0.0692
     96  N        -15.0610  -19.3120   13.4650 N.am   89  GLU89      -0.1966
     97  CA       -15.8870  -18.2020   13.0350 C.3    89  GLU89       0.1733
     98  C        -17.2660  -18.7240   12.7410 C.2    89  GLU89       0.2616
     99  O        -17.4530  -19.5580   11.8650 O.2    89  GLU89      -0.2715
    100  CB       -15.2850  -17.5480   11.7980 C.3    89  GLU89       0.0429
    101  CG       -16.1510  -16.4550   11.1930 C.3    89  GLU89       0.1163
    102  CD       -16.5510  -15.4060   12.2040 C.2    89  GLU89       0.3649
    103  OE1      -15.6450  -14.7830   12.8190 O.co2  89  GLU89      -0.2457
    104  OE2      -17.7780  -15.2410   12.4010 O.co2  89  GLU89      -0.2457
    105  N        -18.2580  -18.2320   13.4620 N.am   90  MET90      -0.1963
    106  CA       -19.5790  -18.8080   13.3060 C.3    90  MET90       0.1736
    107  C        -20.3790  -18.2200   12.1480 C.2    90  MET90       0.2616
    108  O        -21.3350  -18.8390   11.7010 O.2    90  MET90      -0.2715
    109  CB       -20.3680  -18.7300   14.5990 C.3    90  MET90       0.0427
    110  CG       -20.7320  -17.3640   15.0370 C.3    90  MET90       0.0599
    111  SD       -21.5140  -17.4650   16.6540 S.3    90  MET90      -0.1393
    112  CE       -22.5860  -16.0390   16.5260 C.3    90  MET90       0.0692
    113  N        -19.9900  -17.0560   11.6390 N.am   91  ASN91      -0.1972
    114  CA       -20.7140  -16.4610   10.5220 C.3    91  ASN91       0.1688
    115  C        -20.0630  -16.8940    9.2160 C.2    91  ASN91       0.2292
    116  O        -18.9310  -16.5240    8.9410 O.2    91  ASN91      -0.2864
    117  CB       -20.6890  -14.9510   10.6840 C.3    91  ASN91       0.1181
    118  CG       -21.4680  -14.2150    9.6230 C.2    91  ASN91       0.2629
    119  OD1      -21.5650  -14.6500    8.4860 O.2    91  ASN91      -0.2716
    120  ND2      -22.0030  -13.0670    9.9900 N.am   91  ASN91      -0.0877
    121  N        -18.5340  -14.1940    7.0220 N.3    94  TYR94      -0.1241
    122  CA       -17.2660  -13.6890    7.5430 C.3    94  TYR94       0.1605
    123  C        -16.1480  -14.7150    7.3000 C.2    94  TYR94       0.2264
    124  O        -15.0350  -14.3520    6.9350 O.2    94  TYR94      -0.2867
    125  CB       -17.3720  -13.3750    9.0330 C.3    94  TYR94       0.0534
    126  CG       -18.3190  -12.2680    9.4220 C.ar   94  TYR94      -0.0201
    127  CD1      -18.9580  -11.4680    8.4850 C.ar   94  TYR94      -0.0009
    128  CD2      -18.5550  -12.0170   10.7620 C.ar   94  TYR94      -0.0009
    129  CE1      -19.8240  -10.4600    8.8900 C.ar   94  TYR94       0.0417
    130  CE2      -19.4050  -11.0200   11.1730 C.ar   94  TYR94       0.0417
    131  CZ       -20.0390  -10.2440   10.2400 C.ar   94  TYR94       0.1957
    132  OH       -20.8840   -9.2520   10.6800 O.3    94  TYR94      -0.2866
    133  N        -18.3450  -22.4270   12.5530 N.3   116  GLY116     -0.1210
    134  CA       -19.3100  -22.8150   13.5550 C.3   116  GLY116      0.1956
    135  C        -19.0580  -22.0160   14.8080 C.2   116  GLY116      0.2612
    136  O        -18.1290  -21.2050   14.8890 O.2   116  GLY116     -0.2717
    137  N        -19.9170  -22.2460   15.7820 N.am  117  ALA117     -0.1965
    138  CA       -19.7960  -21.6110   17.0840 C.3   117  ALA117      0.1728
    139  C        -18.7320  -22.3080   17.9120 C.2   117  ALA117      0.2617
    140  O        -18.6530  -23.5420   17.9380 O.2   117  ALA117     -0.2715
    141  CB       -21.1330  -21.6630   17.8100 C.3   117  ALA117      0.0334
    142  N        -17.9380  -21.5190   18.6200 N.am  118  SER118     -0.1936
    143  CA       -16.8850  -22.0490   19.4640 C.3   118  SER118      0.2055
    144  C        -17.4130  -23.1020   20.4290 C.2   118  SER118      0.2642
    145  O        -16.7790  -24.1290   20.6470 O.2   118  SER118     -0.2714
    146  CB       -16.2450  -20.9160   20.2460 C.3   118  SER118      0.2130
    147  OG       -17.2400  -20.1700   20.9230 O.3   118  SER118     -0.2179
    148  N        -18.5960  -22.8770   20.9950 N.am  119  GLN119     -0.1976
    149  CA       -19.1320  -23.8380   21.9640 C.3   119  GLN119      0.1601
    150  C        -19.4080  -25.2080   21.3430 C.2   119  GLN119      0.2287
    151  O        -19.3520  -26.2270   22.0350 O.2   119  GLN119     -0.2864
    152  CB       -20.3850  -23.3020   22.6590 C.3   119  GLN119      0.0394
    153  CG       -21.5150  -22.7960   21.7540 C.3   119  GLN119      0.0908
    154  CD       -21.4270  -21.2980   21.4670 C.2   119  GLN119      0.2608
    155  OE1      -20.3660  -20.7940   21.1160 O.2   119  GLN119     -0.2717
    156  NE2      -22.5500  -20.5840   21.6120 N.am  119  GLN119     -0.0878
    157  N        -11.3750  -13.4870   21.0210 N.3   140  ASP140     -0.1225
    158  CA       -11.8280  -12.2270   20.4600 C.3   140  ASP140      0.1805
    159  C        -13.2200  -12.3580   19.8580 C.2   140  ASP140      0.2598
    160  O        -13.5240  -11.7080   18.8740 O.2   140  ASP140     -0.2718
    161  CB       -10.8250  -11.7120   19.4200 C.3   140  ASP140      0.1424
    162  CG       -11.0200  -10.2480   19.0820 C.2   140  ASP140      0.3668
    163  OD1      -11.6390   -9.5280   19.8920 O.co2 140  ASP140     -0.2456
    164  OD2      -10.5630   -9.8260   17.9930 O.co2 140  ASP140     -0.2456
    165  N        -14.0670  -13.1790   20.4730 N.am  141  HIS141     -0.1961
    166  CA       -15.4060  -13.4460   19.9740 C.3   141  HIS141      0.1787
    167  C        -16.4620  -12.8050   20.9010 C.2   141  HIS141      0.2620
    168  O        -16.2800  -11.6830   21.3630 O.2   141  HIS141     -0.2715
    169  CB       -15.6210  -14.9500   19.7410 C.3   141  HIS141      0.0785
    170  CG       -15.4870  -15.7840   20.9740 C.ar  141  HIS141      0.0821
    171  ND1      -14.6470  -15.4570   22.0150 N.ar  141  HIS141     -0.2267
    172  CD2      -16.0790  -16.9530   21.3080 C.ar  141  HIS141      0.1154
    173  CE1      -14.7350  -16.4000   22.9400 C.ar  141  HIS141      0.1986
    174  NE2      -15.6000  -17.3130   22.5380 N.ar  141  HIS141     -0.2212
    175  N        -17.5840  -13.4600   21.1330 N.am  142  TRP142     -0.1974
    176  CA       -18.6490  -12.8750   21.9240 C.3   142  TRP142      0.1640
    177  C        -18.2060  -12.7620   23.3740 C.2   142  TRP142      0.2290
    178  O        -17.7860  -13.7510   23.9600 O.2   142  TRP142     -0.2864
    179  CB       -19.8950  -13.7590   21.8340 C.3   142  TRP142      0.0576
    180  CG       -21.0520  -13.1170   22.4830 C.ar  142  TRP142      0.0006
    181  CD1      -21.5790  -13.4100   23.7050 C.ar  142  TRP142      0.0946
    182  CD2      -21.7840  -11.9950   21.9850 C.ar  142  TRP142      0.0152
    183  NE1      -22.6110  -12.5460   23.9950 N.ar  142  TRP142     -0.2442
    184  CE2      -22.7660  -11.6760   22.9440 C.ar  142  TRP142      0.0810
    185  CE3      -21.7120  -11.2360   20.8080 C.ar  142  TRP142      0.0012
    186  CZ2      -23.6580  -10.6220   22.7760 C.ar  142  TRP142      0.0191
    187  CZ3      -22.6060  -10.2030   20.6330 C.ar  142  TRP142      0.0001
    188  CH2      -23.5730   -9.9060   21.6090 C.ar  142  TRP142      0.0015
    189  N        -18.9070  -15.2390   26.1370 N.3   145  ARG145     -0.1245
    190  CA       -18.3750  -16.5810   25.9890 C.3   145  ARG145      0.1563
    191  C        -16.9190  -16.7190   26.3820 C.2   145  ARG145      0.2260
    192  O        -16.4070  -17.8430   26.3690 O.2   145  ARG145     -0.2867
    193  CB       -18.6190  -17.1180   24.5900 C.3   145  ARG145      0.0307
    194  CG       -20.0940  -17.4930   24.4330 C.3   145  ARG145      0.0489
    195  CD       -20.3650  -18.8060   23.8260 C.3   145  ARG145      0.2205
    196  NE       -19.7530  -19.9440   24.4990 N.pl3 145  ARG145     -0.0865
    197  CZ       -20.3360  -20.7120   25.4190 C.cat 145  ARG145      0.5346
    198  NH1      -21.5530  -20.4500   25.8800 N.pl3 145  ARG145      0.1354
    199  NH2      -19.6740  -21.7450   25.8870 N.pl3 145  ARG145      0.1354
    200  N        -10.2510   -6.9660   24.2080 N.3   169  ASN169     -0.1240
    201  CA       -11.4520   -6.2240   24.5930 C.3   169  ASN169      0.1653
    202  C        -11.9050   -6.5420   26.0030 C.2   169  ASN169      0.2266
    203  O        -13.1040   -6.5750   26.2910 O.2   169  ASN169     -0.2867
    204  CB       -12.6060   -6.4910   23.6290 C.3   169  ASN169      0.1155
    205  CG       -12.2600   -6.1640   22.2010 C.2   169  ASN169      0.2627
    206  OD1      -12.3920   -7.0090   21.3200 O.2   169  ASN169     -0.2716
    207  ND2      -11.8330   -4.9330   21.9490 N.am  169  ASN169     -0.0877
@<TRIPOS>BOND
     1    67    66    2
     2   124   123    2
     3   121   122    1
     4   123   122    1
     5    69    68    1
     6   122   125    1
     7    68    65    1
     8    66    65    1
     9    65    64    1
    10   127   129   ar
    11   127   126   ar
    12   119   118    2
    13   129   131   ar
    14   116   115    2
    15   125   126    1
    16    55    54    2
    17   115   114    1
    18   126   128   ar
    19    64    54   am
    20   118   120   am
    21   118   117    1
    22    54    53    1
    23    63    62    1
    24    70    71    1
    25   131   132    1
    26   131   130   ar
    27    71    74    1
    28    71    72    1
    29    62    60   ar
    30    62    61   ar
    31   114   117    1
    32   114   113    1
    33    77    79   ar
    34    77    75   ar
    35    60    58   ar
    36    61    59   ar
    37   128   130   ar
    38    74    75    1
    39    79    80   ar
    40    58    57   ar
    41   101   100    1
    42   101   102    1
    43    73    72    2
    44    59    57   ar
    45    53    52    1
    46    53    56    1
    47    75    76   ar
    48    72    82   am
    49    57    56    1
    50   113   107   am
    51   108   107    2
    52    51    48    1
    53    50    49    2
    54   100    97    1
    55    99    98    2
    56    52    49   am
    57    12    11    2
    58    49    48    1
    59   107   106    1
    60   102   104   ar
    61   102   103   ar
    62    80    81    1
    63    80    78   ar
    64    13    14    1
    65    13    10    1
    66    82    83    1
    67   133   134    1
    68    76    78   ar
    69    15    14    2
    70    14    16   am
    71    98    97    1
    72    98   105   am
    73    48    47    1
    74    97    96    1
    75    84    85    2
    76    84    83    1
    77    11    10    1
    78   106   105    1
    79   106   109    1
    80    96    90   am
    81    83    86    1
    82    10     9    1
    83   134   135    1
    84    33    32   ar
    85    47    45   am
    86    90    89    1
    87    90    91    2
    88    87    86    1
    89   109   110    1
    90     9     3   am
    91    88    89    1
    92    89    92    1
    93   135   136    2
    94   135   137   am
    95    32    34   ar
    96    32    31    1
    97   110   111    1
    98    45    46    2
    99    45    44    1
   100   137   138    1
   101     3     4    2
   102     3     2    1
   103    92    93    1
   104    31    30    1
   105    44    43    1
   106    30    27    1
   107    93    94    1
   108     1     2    1
   109   112   111    1
   110    29    28    2
   111    43    37   am
   112     2     5    1
   113   138   141    1
   114   138   139    1
   115     5     6    1
   116    26    27    1
   117    24    25    1
   118    24    23    1
   119    27    28    1
   120    28    35   am
   121    95    94    1
   122   139   140    2
   123   139   142   am
   124   164   162   ar
   125    37    36    1
   126    37    38    2
   127     6     7    1
   128    35    36    1
   129    22    23    1
   130    22    21    1
   131   142   143    1
   132    36    39    1
   133   160   159    2
   134   162   161    1
   135   162   163   ar
   136    19    20    2
   137    19    18    1
   138    17    18    1
   139   161   158    1
   140   143   146    1
   141   143   144    1
   142   169   166    1
   143   169   170    1
   144     7     8    1
   145   159   158    1
   146   159   165   am
   147    21    18    1
   148   166   165    1
   149   166   167    1
   150    42    40    1
   151    39    40    1
   152   146   147    1
   153   144   145    2
   154   144   148   am
   155   158   157    1
   156   187   185   ar
   157   187   188   ar
   158    40    41    1
   159   185   182   ar
   160   167   175   am
   161   167   168    2
   162   170   172   ar
   163   170   171   ar
   164   148   149    1
   165   155   154    2
   166   175   176    1
   167   172   174   ar
   168   206   205    2
   169   150   149    1
   170   150   151    2
   171   154   156   am
   172   154   153    1
   173   188   186   ar
   174   153   152    1
   175   179   176    1
   176   179   180    1
   177   176   177    1
   178   207   205   am
   179   149   152    1
   180   182   180   ar
   181   182   184   ar
   182   171   173   ar
   183   205   204    1
   184   180   181   ar
   185   174   173   ar
   186   186   184   ar
   187   184   183   ar
   188   177   178    2
   189   204   201    1
   190   181   183   ar
   191   195   194    1
   192   195   196    1
   193   200   201    1
   194   194   193    1
   195   196   197    2
   196   193   190    1
   197   201   202    1
   198   197   198    1
   199   197   199    1
   200   190   189    1
   201   190   191    1
   202   202   203    2
   203   192   191    2
