@<TRIPOS>MOLECULE
tmp/4p7mA00.pdb
 75 71 0 0 0
SMALL
GASTEIGER

@<TRIPOS>ATOM
      1  N          0.0650  -27.9240  -16.6060 N.3     1  PRO1       -0.2102
      2  CA        -0.5660  -26.6770  -16.1610 C.3     1  PRO1        0.1504
      3  C         -1.8800  -26.4160  -16.8880 C.2     1  PRO1        0.2576
      4  O         -2.2260  -27.1460  -17.8180 O.2     1  PRO1       -0.2718
      5  CB         0.4650  -25.6140  -16.5410 C.3     1  PRO1        0.0282
      6  CG         1.7700  -26.3330  -16.5010 C.3     1  PRO1        0.0208
      7  CD         1.4810  -27.7320  -16.9660 C.3     1  PRO1        0.0893
      8  N         -2.6020  -25.3840  -16.4640 N.am    2  CYS2       -0.1971
      9  CA        -3.8330  -25.0470  -17.0590 C.3     2  CYS2        0.1712
     10  C         -3.9760  -23.5830  -16.7120 C.2     2  CYS2        0.2296
     11  O         -3.8190  -23.2210  -15.5650 O.2     2  CYS2       -0.2864
     12  CB        -4.9010  -25.9470  -16.4370 C.3     2  CYS2        0.0983
     13  SG        -6.5930  -25.5400  -16.8220 S.3     2  CYS2       -0.0798
     14  N          3.0180  -28.0120  -23.2390 N.3    37  TYR37      -0.1227
     15  CA         2.4020  -28.7490  -22.1430 C.3    37  TYR37       0.1736
     16  C          1.6000  -27.8040  -21.2540 C.2    37  TYR37       0.2595
     17  O          2.0110  -27.4810  -20.1400 O.2    37  TYR37      -0.2718
     18  CB         3.4660  -29.4740  -21.3170 C.3    37  TYR37       0.0548
     19  CG         2.8990  -30.3980  -20.2630 C.ar   37  TYR37      -0.0200
     20  CD1        2.2750  -31.5860  -20.6170 C.ar   37  TYR37      -0.0009
     21  CD2        2.9890  -30.0820  -18.9140 C.ar   37  TYR37      -0.0009
     22  CE1        1.7550  -32.4340  -19.6570 C.ar   37  TYR37       0.0417
     23  CE2        2.4720  -30.9230  -17.9470 C.ar   37  TYR37       0.0417
     24  CZ         1.8570  -32.0980  -18.3240 C.ar   37  TYR37       0.1957
     25  OH         1.3410  -32.9390  -17.3650 O.3    37  TYR37      -0.2866
     26  N          0.4540  -27.3630  -21.7610 N.am   38  ILE38      -0.1966
     27  CA        -0.3660  -26.4480  -21.0760 C.3    38  ILE38       0.1727
     28  C         -1.6640  -26.4570  -21.8130 C.2    38  ILE38       0.2616
     29  O         -1.7040  -26.4100  -23.0060 O.2    38  ILE38      -0.2715
     30  CB         0.1830  -25.0350  -21.1860 C.3    38  ILE38       0.0290
     31  CG1       -0.3540  -24.0470  -20.1140 C.3    38  ILE38       0.0022
     32  CG2        0.0710  -24.4800  -22.6100 C.3    38  ILE38       0.0023
     33  CD1        0.2710  -22.6220  -20.0460 C.3    38  ILE38       0.0001
     34  N         -2.7430  -26.4490  -21.0700 N.am   39  MET39      -0.1977
     35  CA        -4.0200  -26.0550  -21.5710 C.3    39  MET39       0.1605
     36  C         -4.1790  -24.5990  -21.2800 C.2    39  MET39       0.2287
     37  O         -3.7520  -24.1190  -20.2710 O.2    39  MET39      -0.2864
     38  CB        -5.0920  -26.7430  -20.7820 C.3    39  MET39       0.0413
     39  CG        -5.3280  -28.1610  -21.1710 C.3    39  MET39       0.0598
     40  SD        -6.9290  -28.6700  -20.6040 S.3    39  MET39      -0.1393
     41  CE        -7.0230  -27.8900  -19.0210 C.3    39  MET39       0.0692
     42  N         -3.4200  -23.2550  -12.7100 N.3    63  THR63      -0.1203
     43  CA        -3.4270  -24.5120  -11.9490 C.3    63  THR63       0.1994
     44  C         -2.1150  -25.2790  -12.1440 C.2    63  THR63       0.2618
     45  O         -1.6110  -25.3250  -13.2510 O.2    63  THR63      -0.2717
     46  CB        -4.5820  -25.4090  -12.4320 C.3    63  THR63       0.1784
     47  OG1       -5.7780  -24.6370  -12.5080 O.3    63  THR63      -0.2211
     48  CG2       -4.7900  -26.6170  -11.4980 C.3    63  THR63       0.0376
     49  N         -1.5660  -25.8660  -11.0740 N.am   64  SER64      -0.1951
     50  CA        -0.3570  -26.7100  -11.1640 C.3    64  SER64       0.1924
     51  C          0.9260  -25.8900  -11.3880 C.2    64  SER64       0.2314
     52  O          1.4300  -25.7610  -12.5080 O.2    64  SER64      -0.2863
     53  CB        -0.5330  -27.7880  -12.2530 C.3    64  SER64       0.2116
     54  OG         0.3380  -28.8940  -12.0910 O.3    64  SER64      -0.2180
     55  N         -4.1520  -24.8350   -6.4220 N.3    95  ASP95      -0.1239
     56  CA        -3.9440  -26.2800   -6.3370 C.3    95  ASP95       0.1674
     57  C         -5.1100  -26.9080   -5.5670 C.2    95  ASP95       0.2266
     58  O         -4.9230  -27.7450   -4.6860 O.2    95  ASP95      -0.2867
     59  CB        -2.5800  -26.6170   -5.6940 C.3    95  ASP95       0.1410
     60  CG        -1.4330  -26.7160   -6.7260 C.2    95  ASP95       0.3668
     61  OD1       -1.6750  -27.0850   -7.9070 O.co2  95  ASP95      -0.2456
     62  OD2       -0.2770  -26.4370   -6.3380 O.co2  95  ASP95      -0.2456
     63  N         -5.4960  -38.5780   -6.8680 N.3    96  ASN96      -0.1240
     64  CA        -5.3630  -38.0710   -8.2610 C.3    96  ASN96       0.1653
     65  C         -4.5470  -38.9930   -9.2380 C.2    96  ASN96       0.2266
     66  O         -3.4730  -39.4450   -8.8920 O.2    96  ASN96      -0.2867
     67  CB        -4.7650  -36.6410   -8.2460 C.3    96  ASN96       0.1155
     68  CG        -5.1100  -35.8430   -9.5080 C.2    96  ASN96       0.2627
     69  OD1       -6.0960  -35.0970   -9.5490 O.2    96  ASN96      -0.2716
     70  ND2       -4.3170  -36.0370  -10.5550 N.am   96  ASN96      -0.0877
     71  N         -3.6350  -39.5510  -13.8110 N.3    98  ALA98      -0.1245
     72  CA        -3.6830  -38.8720  -15.1320 C.3    98  ALA98       0.1562
     73  C         -3.2310  -39.7930  -16.2730 C.2    98  ALA98       0.2260
     74  O         -2.4260  -40.6910  -16.0580 O.2    98  ALA98      -0.2867
     75  CB        -2.8300  -37.6120  -15.1160 C.3    98  ALA98       0.0290
@<TRIPOS>BOND
     1    14    15    1
     2    29    28    2
     3    32    30    1
     4    15    18    1
     5    15    16    1
     6    28    27    1
     7    28    34   am
     8    26    16   am
     9    26    27    1
    10    35    36    1
    11    35    34    1
    12    35    38    1
    13    18    19    1
    14    36    37    2
    15    16    17    2
    16    30    27    1
    17    30    31    1
    18    39    38    1
    19    39    40    1
    20    20    19   ar
    21    20    22   ar
    22    40    41    1
    23    19    21   ar
    24    31    33    1
    25    22    24   ar
    26    21    23   ar
    27    24    23   ar
    28    24    25    1
    29     4     3    2
    30     9    10    1
    31     9     8    1
    32     9    12    1
    33     7     1    1
    34     7     6    1
    35     3     8   am
    36     3     2    1
    37    13    12    1
    38    10    11    2
    39     1     2    1
    40     5     6    1
    41     5     2    1
    42    73    74    2
    43    73    72    1
    44    72    75    1
    45    72    71    1
    46    45    44    2
    47    42    43    1
    48    47    46    1
    49    52    51    2
    50    46    43    1
    51    46    48    1
    52    53    54    1
    53    53    50    1
    54    44    43    1
    55    44    49   am
    56    51    50    1
    57    50    49    1
    58    70    68   am
    59    69    68    2
    60    68    67    1
    61    65    66    2
    62    65    64    1
    63    64    67    1
    64    64    63    1
    65    61    60   ar
    66    60    62   ar
    67    60    59    1
    68    55    56    1
    69    56    59    1
    70    56    57    1
    71    57    58    2
