@<TRIPOS>MOLECULE
tmp/4p7nA00.pdb
 115 114 0 0 0
SMALL
GASTEIGER

@<TRIPOS>ATOM
      1  N         -1.3390   -9.4030  -10.7210 N.3    13  HIS13      -0.1241
      2  CA        -0.8940   -8.2460   -9.9530 C.3    13  HIS13       0.1621
      3  C         -1.8130   -8.1790   -8.7240 C.2    13  HIS13       0.2264
      4  O         -3.0040   -7.9160   -8.8630 O.2    13  HIS13      -0.2867
      5  CB        -0.9750   -6.9960  -10.8400 C.3    13  HIS13       0.0745
      6  CG        -0.2970   -5.7780  -10.2930 C.ar   13  HIS13       0.0817
      7  ND1        0.0240   -4.7000  -11.0930 N.ar   13  HIS13      -0.2268
      8  CD2        0.0860   -5.4420   -9.0390 C.ar   13  HIS13       0.1154
      9  CE1        0.5910   -3.7610  -10.3580 C.ar   13  HIS13       0.1986
     10  NE2        0.6340   -4.1840   -9.1070 N.ar   13  HIS13      -0.2212
     11  N          6.1210   -5.2460   -5.1830 N.3    95  TRP95      -0.1241
     12  CA         5.5480   -4.0240   -5.7370 C.3    95  TRP95       0.1605
     13  C          5.6550   -2.8990   -4.7150 C.2    95  TRP95       0.2264
     14  O          5.0650   -2.9830   -3.6390 O.2    95  TRP95      -0.2867
     15  CB         4.0920   -4.2670   -6.1370 C.3    95  TRP95       0.0550
     16  CG         3.3430   -3.0770   -6.6680 C.ar   95  TRP95       0.0003
     17  CD1        3.8480   -2.0060   -7.3520 C.ar   95  TRP95       0.0946
     18  CD2        1.9320   -2.8620   -6.5660 C.ar   95  TRP95       0.0152
     19  NE1        2.8210   -1.1330   -7.6870 N.ar   95  TRP95      -0.2442
     20  CE2        1.6410   -1.6390   -7.2090 C.ar   95  TRP95       0.0810
     21  CE3        0.8850   -3.5900   -5.9940 C.ar   95  TRP95       0.0012
     22  CZ2        0.3430   -1.1310   -7.2970 C.ar   95  TRP95       0.0191
     23  CZ3       -0.4010   -3.0790   -6.0800 C.ar   95  TRP95       0.0001
     24  CH2       -0.6580   -1.8600   -6.7180 C.ar   95  TRP95       0.0015
     25  N         -0.9130   11.3580   -7.2150 N.3   127  TYR127     -0.1241
     26  CA        -0.2050   10.7200   -6.1050 C.3   127  TYR127      0.1605
     27  C          0.5170   11.7480   -5.2450 C.2   127  TYR127      0.2264
     28  O          1.0990   12.7180   -5.7670 O.2   127  TYR127     -0.2867
     29  CB         0.8140    9.7040   -6.6080 C.3   127  TYR127      0.0534
     30  CG         0.2270    8.4220   -7.1060 C.ar  127  TYR127     -0.0201
     31  CD1       -0.3700    7.5220   -6.2310 C.ar  127  TYR127     -0.0009
     32  CD2        0.2950    8.0870   -8.4540 C.ar  127  TYR127     -0.0009
     33  CE1       -0.9000    6.3390   -6.6840 C.ar  127  TYR127      0.0417
     34  CE2       -0.2210    6.9090   -8.9130 C.ar  127  TYR127      0.0417
     35  CZ        -0.8220    6.0400   -8.0250 C.ar  127  TYR127      0.1957
     36  OH        -1.3340    4.8640   -8.4790 O.3   127  TYR127     -0.2866
     37  N          6.3840    1.2390   -8.8520 N.3   160  HIS160     -0.1226
     38  CA         5.0410    1.7800   -8.9540 C.3   160  HIS160      0.1752
     39  C          4.9050    2.8230  -10.0520 C.2   160  HIS160      0.2596
     40  O          5.8850    3.4470  -10.4510 O.2   160  HIS160     -0.2718
     41  CB         4.6770    2.4030   -7.6060 C.3   160  HIS160      0.0759
     42  CG         3.2120    2.5180   -7.3420 C.ar  160  HIS160      0.0818
     43  ND1        2.4450    3.5460   -7.8450 N.ar  160  HIS160     -0.2268
     44  CD2        2.3790    1.7560   -6.5960 C.ar  160  HIS160      0.1154
     45  CE1        1.1950    3.3980   -7.4380 C.ar  160  HIS160      0.1986
     46  NE2        1.1310    2.3240   -6.6750 N.ar  160  HIS160     -0.2212
     47  N          3.6760    3.0340  -10.5110 N.am  161  ASP161     -0.1974
     48  CA         3.4210    4.0720  -11.5020 C.3   161  ASP161      0.1709
     49  C          3.4340    5.4950  -10.9270 C.2   161  ASP161      0.2293
     50  O          3.1550    6.4480  -11.6520 O.2   161  ASP161     -0.2864
     51  CB         2.0820    3.8180  -12.1930 C.3   161  ASP161      0.1436
     52  CG         0.8980    3.8600  -11.2320 C.2   161  ASP161      0.3671
     53  OD1        0.7090    2.9060  -10.4570 O.co2 161  ASP161     -0.2456
     54  OD2        0.1360    4.8320  -11.2870 O.co2 161  ASP161     -0.2456
     55  N          2.6980    4.3960  -18.0920 N.3   235  PHE235     -0.1241
     56  CA         1.3850    4.7710  -18.6160 C.3   235  PHE235      0.1605
     57  C          1.3280    4.5330  -20.1190 C.2   235  PHE235      0.2264
     58  O          2.3570    4.5210  -20.7910 O.2   235  PHE235     -0.2867
     59  CB         1.0640    6.2260  -18.2720 C.3   235  PHE235      0.0534
     60  CG         0.6500    6.4090  -16.8390 C.ar  235  PHE235     -0.0203
     61  CD1       -0.6830    6.3000  -16.4730 C.ar  235  PHE235     -0.0042
     62  CD2        1.5980    6.6420  -15.8520 C.ar  235  PHE235     -0.0042
     63  CE1       -1.0660    6.4450  -15.1480 C.ar  235  PHE235     -0.0003
     64  CE2        1.2240    6.7920  -14.5210 C.ar  235  PHE235     -0.0003
     65  CZ        -0.1150    6.6920  -14.1700 C.ar  235  PHE235     -0.0000
     66  N          0.4460   -0.1720  -18.7190 N.3   265  MET265     -0.1245
     67  CA        -0.9210   -0.2280  -18.2170 C.3   265  MET265      0.1570
     68  C         -1.8710   -0.1010  -19.3980 C.2   265  MET265      0.2261
     69  O         -2.3480    0.9780  -19.7370 O.2   265  MET265     -0.2867
     70  CB        -1.1280    0.8330  -17.1450 C.3   265  MET265      0.0387
     71  CG        -0.1940    0.5180  -15.9650 C.3   265  MET265      0.0595
     72  SD        -0.1570    1.7010  -14.6210 S.3   265  MET265     -0.1393
     73  CE         0.2670    3.1810  -15.5050 C.3   265  MET265      0.0692
     74  N         -4.7930   -0.1360  -20.3640 N.3   267  MET267     -0.1245
     75  CA        -6.0820    0.0040  -19.7170 C.3   267  MET267      0.1570
     76  C         -6.9310    1.0810  -20.3890 C.2   267  MET267      0.2261
     77  O         -6.8670    2.2580  -20.0220 O.2   267  MET267     -0.2867
     78  CB        -5.8670    0.3060  -18.2350 C.3   267  MET267      0.0387
     79  CG        -5.0240   -0.7670  -17.5470 C.3   267  MET267      0.0595
     80  SD        -4.6410   -0.4140  -15.8190 S.3   267  MET267     -0.1393
     81  CE        -3.6970   -1.8990  -15.4010 C.3   267  MET267      0.0692
     82  N         -9.3970    3.1800  -18.2290 N.3   270  LEU270     -0.1245
     83  CA        -8.6170    4.1210  -17.4410 C.3   270  LEU270      0.1561
     84  C         -8.3070    5.3720  -18.2690 C.2   270  LEU270      0.2260
     85  O         -8.3360    6.4920  -17.7630 O.2   270  LEU270     -0.2867
     86  CB        -7.3250    3.4590  -16.9500 C.3   270  LEU270      0.0270
     87  CG        -6.3740    4.3220  -16.1250 C.3   270  LEU270      0.0019
     88  CD1       -7.0270    4.7260  -14.8090 C.3   270  LEU270      0.0001
     89  CD2       -5.0650    3.5870  -15.8910 C.3   270  LEU270      0.0001
     90  N        -12.1530    1.8410  -12.7110 N.3   308  TRP308     -0.1241
     91  CA       -12.1020    2.6820  -11.5230 C.3   308  TRP308      0.1605
     92  C        -12.9060    3.9610  -11.6880 C.2   308  TRP308      0.2264
     93  O        -12.8950    4.5840  -12.7450 O.2   308  TRP308     -0.2867
     94  CB       -10.6520    3.0020  -11.1700 C.3   308  TRP308      0.0550
     95  CG        -9.8780    1.7630  -10.8380 C.ar  308  TRP308      0.0003
     96  CD1       -9.8820    1.0900   -9.6470 C.ar  308  TRP308      0.0946
     97  CD2       -9.0040    1.0370  -11.7090 C.ar  308  TRP308      0.0152
     98  NE1       -9.0570   -0.0090   -9.7260 N.ar  308  TRP308     -0.2442
     99  CE2       -8.5090   -0.0660  -10.9800 C.ar  308  TRP308      0.0810
    100  CE3       -8.5900    1.2110  -13.0330 C.ar  308  TRP308      0.0012
    101  CZ2       -7.6180   -0.9840  -11.5290 C.ar  308  TRP308      0.0191
    102  CZ3       -7.7110    0.2980  -13.5790 C.ar  308  TRP308      0.0001
    103  CH2       -7.2330   -0.7900  -12.8290 C.ar  308  TRP308      0.0015
    104  N         -4.5790   -6.3440  -13.4840 N.3   340  TYR340     -0.1241
    105  CA        -4.7160   -5.7730  -12.1600 C.3   340  TYR340      0.1605
    106  C         -6.1360   -5.2210  -12.0520 C.2   340  TYR340      0.2264
    107  O         -6.6090   -4.6040  -12.9870 O.2   340  TYR340     -0.2867
    108  CB        -3.6920   -4.6640  -11.9400 C.3   340  TYR340      0.0534
    109  CG        -3.8300   -3.9710  -10.6060 C.ar  340  TYR340     -0.0201
    110  CD1       -3.3520   -4.5710   -9.4410 C.ar  340  TYR340     -0.0009
    111  CD2       -4.4320   -2.7160  -10.5000 C.ar  340  TYR340     -0.0009
    112  CE1       -3.4860   -3.9510   -8.2080 C.ar  340  TYR340      0.0417
    113  CE2       -4.5610   -2.0780   -9.2530 C.ar  340  TYR340      0.0417
    114  CZ        -4.0860   -2.7080   -8.1230 C.ar  340  TYR340      0.1957
    115  OH        -4.1950   -2.1130   -6.8930 O.3   340  TYR340     -0.2866
@<TRIPOS>BOND
     1    58    57    2
     2    76    77    2
     3    76    75    1
     4    74    75    1
     5    57    56    1
     6    69    68    2
     7    75    78    1
     8    68    67    1
     9    66    67    1
    10    56    59    1
    11    56    55    1
    12    59    60    1
    13    84    85    2
    14    84    83    1
    15    78    79    1
    16    82    83    1
    17    67    70    1
    18    79    80    1
    19    83    86    1
    20    70    71    1
    21    86    87    1
    22    60    61   ar
    23    60    62   ar
    24    61    63   ar
    25    87    89    1
    26    87    88    1
    27    71    72    1
    28    62    64   ar
    29    80    81    1
    30    73    72    1
    31    63    65   ar
    32    64    65   ar
    33   102   100   ar
    34   102   103   ar
    35   104   105    1
    36   100    97   ar
    37   107   106    2
    38   103   101   ar
    39    93    92    2
    40    90    91    1
    41    51    48    1
    42    51    52    1
    43   105   106    1
    44   105   108    1
    45   108   109    1
    46    97    99   ar
    47    97    95   ar
    48    92    91    1
    49    50    49    2
    50   101    99   ar
    51    91    94    1
    52    48    49    1
    53    48    47    1
    54    54    52   ar
    55    52    53   ar
    56    94    95    1
    57     7     9   ar
    58     7     6   ar
    59    99    98   ar
    60     5     6    1
    61     5     2    1
    62    95    96   ar
    63     1     2    1
    64   109   111   ar
    65   109   110   ar
    66    47    39   am
    67   111   113   ar
    68    40    39    2
    69     9    10   ar
    70     6     8   ar
    71    39    38    1
    72     2     3    1
    73    98    96   ar
    74   110   112   ar
    75   113   114   ar
    76    10     8   ar
    77    38    37    1
    78    38    41    1
    79    34    32   ar
    80    34    35   ar
    81     4     3    2
    82    36    35    1
    83    32    30   ar
    84   112   114   ar
    85   114   115    1
    86    35    33   ar
    87    43    45   ar
    88    43    42   ar
    89    19    17   ar
    90    19    20   ar
    91    41    42    1
    92    45    46   ar
    93    17    16   ar
    94    42    44   ar
    95    22    20   ar
    96    22    24   ar
    97    25    26    1
    98    20    18   ar
    99    30    29    1
   100    30    31   ar
   101    24    23   ar
   102    33    31   ar
   103    46    44   ar
   104    16    18   ar
   105    16    15    1
   106    29    26    1
   107    18    21   ar
   108    15    12    1
   109    26    27    1
   110    23    21   ar
   111    28    27    2
   112    12    11    1
   113    12    13    1
   114    13    14    2
