@<TRIPOS>MOLECULE
tmp/4p7qA03.pdb
 152 150 0 0 0
SMALL
GASTEIGER

@<TRIPOS>ATOM
      1  N         -3.0200   85.0650    4.6980 N.3    11  ASP11      -0.1239
      2  CA        -3.0080   84.2570    3.4690 C.3    11  ASP11       0.1674
      3  C         -3.1760   85.1610    2.2580 C.2    11  ASP11       0.2266
      4  O         -3.9770   86.0910    2.3060 O.2    11  ASP11      -0.2867
      5  CB        -4.1530   83.2360    3.4270 C.3    11  ASP11       0.1410
      6  CG        -4.2470   82.3730    4.6680 C.2    11  ASP11       0.3668
      7  OD1       -3.4100   81.4610    4.8360 O.co2  11  ASP11      -0.2456
      8  OD2       -5.2050   82.5710    5.4520 O.co2  11  ASP11      -0.2456
      9  N         -4.2480   83.8290   -0.6400 N.3    13  ASP13      -0.1225
     10  CA        -5.3040   83.2020   -1.4210 C.3    13  ASP13       0.1805
     11  C         -6.5100   84.1340   -1.5860 C.2    13  ASP13       0.2597
     12  O         -7.1610   84.1040   -2.6210 O.2    13  ASP13      -0.2718
     13  CB        -5.7520   81.8950   -0.7730 C.3    13  ASP13       0.1424
     14  CG        -4.6300   80.8980   -0.6450 C.2    13  ASP13       0.3668
     15  OD1       -4.0440   80.5430   -1.6870 O.co2  13  ASP13      -0.2456
     16  OD2       -4.3530   80.4560    0.4950 O.co2  13  ASP13      -0.2456
     17  N         -6.7840   84.9380   -0.5550 N.am   14  TYR14      -0.1976
     18  CA        -7.9030   85.8930   -0.5370 C.3    14  TYR14       0.1639
     19  C         -7.6870   87.0330   -1.5260 C.2    14  TYR14       0.2290
     20  O         -8.6340   87.5830   -2.1110 O.2    14  TYR14      -0.2864
     21  CB        -8.0820   86.5040    0.8610 C.3    14  TYR14       0.0560
     22  CG        -8.4820   85.5560    1.9680 C.ar   14  TYR14      -0.0198
     23  CD1       -9.7650   85.0250    2.0290 C.ar   14  TYR14      -0.0009
     24  CD2       -7.5870   85.2250    2.9770 C.ar   14  TYR14      -0.0009
     25  CE1      -10.1350   84.1680    3.0510 C.ar   14  TYR14       0.0417
     26  CE2       -7.9470   84.3690    4.0040 C.ar   14  TYR14       0.0417
     27  CZ        -9.2200   83.8430    4.0360 C.ar   14  TYR14       0.1957
     28  OH        -9.5820   82.9900    5.0570 O.3    14  TYR14      -0.2866
     29  N          1.9070   84.5690    3.8110 N.3    45  GLN45      -0.1245
     30  CA         1.8760   83.3340    3.0110 C.3    45  GLN45       0.1566
     31  C          2.6450   83.4510    1.6890 C.2    45  GLN45       0.2260
     32  O          2.3830   84.3580    0.8980 O.2    45  GLN45      -0.2867
     33  CB         0.4240   82.9910    2.7270 C.3    45  GLN45       0.0367
     34  CG         0.2090   81.5990    2.1650 C.3    45  GLN45       0.0905
     35  CD        -1.1200   81.4890    1.4660 C.2    45  GLN45       0.2608
     36  OE1       -1.4850   82.3700    0.6860 O.2    45  GLN45      -0.2717
     37  NE2       -1.8530   80.3920    1.7100 N.am   45  GLN45      -0.0878
     38  N         -2.6620   78.0700   -1.3480 N.3    49  ASP49      -0.1225
     39  CA        -3.4180   77.0340   -0.6500 C.3    49  ASP49       0.1790
     40  C         -4.9200   77.1900   -0.9020 C.2    49  ASP49       0.2439
     41  O         -5.6920   77.4100    0.0320 O.2    49  ASP49      -0.2733
     42  CB        -3.1200   77.0830    0.8500 C.3    49  ASP49       0.1423
     43  CG        -3.7530   75.9310    1.6140 C.2    49  ASP49       0.3668
     44  OD1       -4.0230   74.8780    0.9960 O.co2  49  ASP49      -0.2456
     45  OD2       -3.9770   76.0850    2.8330 O.co2  49  ASP49      -0.2456
     46  N         -5.3410   77.0640   -2.1710 N.am   50  PRO50      -0.2729
     47  CA        -6.7490   77.3010   -2.5010 C.3    50  PRO50       0.1401
     48  C         -7.7060   76.2360   -1.9480 C.2    50  PRO50       0.2269
     49  O         -8.8690   76.5450   -1.7010 O.2    50  PRO50      -0.2865
     50  CB        -6.7490   77.2830   -4.0340 C.3    50  PRO50       0.0296
     51  CG        -5.5970   76.4070   -4.4000 C.3    50  PRO50       0.0237
     52  CD        -4.5540   76.6530   -3.3500 C.3    50  PRO50       0.0939
     53  N         -6.9340   73.8220    0.7090 N.3    52  GLY52      -0.1225
     54  CA        -6.7060   73.4370    2.0890 C.3    52  GLY52       0.1811
     55  C         -6.4000   71.9640    2.2260 C.2    52  GLY52       0.2280
     56  O         -6.7620   71.3440    3.2220 O.2    52  GLY52      -0.2866
     57  N          6.1890   83.1200    5.1830 N.3    91  TRP91      -0.1241
     58  CA         5.6200   81.8900    5.7200 C.3    91  TRP91       0.1605
     59  C          5.7180   80.7710    4.6900 C.2    91  TRP91       0.2264
     60  O          5.1380   80.8620    3.6040 O.2    91  TRP91      -0.2867
     61  CB         4.1720   82.1580    6.1280 C.3    91  TRP91       0.0550
     62  CG         3.4070   80.9800    6.6620 C.ar   91  TRP91       0.0003
     63  CD1        3.9040   79.9030    7.3520 C.ar   91  TRP91       0.0946
     64  CD2        1.9950   80.7780    6.5630 C.ar   91  TRP91       0.0152
     65  NE1        2.8760   79.0450    7.6860 N.ar   91  TRP91      -0.2442
     66  CE2        1.6990   79.5550    7.2010 C.ar   91  TRP91       0.0810
     67  CE3        0.9500   81.5080    5.9900 C.ar   91  TRP91       0.0012
     68  CZ2        0.4080   79.0570    7.2870 C.ar   91  TRP91       0.0191
     69  CZ3       -0.3300   81.0050    6.0660 C.ar   91  TRP91       0.0001
     70  CH2       -0.5910   79.7880    6.7140 C.ar   91  TRP91       0.0015
     71  N         -0.5690   66.4970    7.1410 N.3   123  TYR123     -0.1241
     72  CA         0.1140   67.2250    6.0780 C.3   123  TYR123      0.1605
     73  C          0.8430   66.2370    5.1900 C.2   123  TYR123      0.2264
     74  O          1.4290   65.2770    5.6800 O.2   123  TYR123     -0.2867
     75  CB         1.1140   68.2130    6.6430 C.3   123  TYR123      0.0534
     76  CG         0.5190   69.4610    7.2350 C.ar  123  TYR123     -0.0201
     77  CD1       -0.1210   70.3890    6.4330 C.ar  123  TYR123     -0.0009
     78  CD2        0.6380   69.7250    8.5900 C.ar  123  TYR123     -0.0009
     79  CE1       -0.6590   71.5550    6.9760 C.ar  123  TYR123      0.0417
     80  CE2        0.1230   70.8800    9.1380 C.ar  123  TYR123      0.0417
     81  CZ        -0.5250   71.7870    8.3270 C.ar  123  TYR123      0.1957
     82  OH        -1.0370   72.9430    8.8700 O.3   123  TYR123     -0.2866
     83  N          6.5260   76.6870    8.8330 N.3   156  HIS156     -0.1241
     84  CA         5.1710   76.1540    8.9670 C.3   156  HIS156      0.1621
     85  C          5.0900   75.0830   10.0510 C.2   156  HIS156      0.2264
     86  O          6.0990   74.4570   10.3710 O.2   156  HIS156     -0.2867
     87  CB         4.7690   75.5630    7.6160 C.3   156  HIS156      0.0745
     88  CG         3.2970   75.4460    7.3740 C.ar  156  HIS156      0.0817
     89  ND1        2.5180   74.4480    7.9240 N.ar  156  HIS156     -0.2268
     90  CD2        2.4840   76.1370    6.5380 C.ar  156  HIS156      0.1154
     91  CE1        1.2750   74.5750    7.4910 C.ar  156  HIS156      0.1986
     92  NE2        1.2280   75.5880    6.6450 N.ar  156  HIS156     -0.2212
     93  N         -9.2490   74.5450   18.2130 N.3   266  LEU266     -0.1245
     94  CA        -8.4730   73.6340   17.3820 C.3   266  LEU266      0.1561
     95  C         -8.1000   72.3940   18.1840 C.2   266  LEU266      0.2260
     96  O         -8.0740   71.2800   17.6570 O.2   266  LEU266     -0.2867
     97  CB        -7.2170   74.3200   16.8480 C.3   266  LEU266      0.0270
     98  CG        -6.2510   73.4630   16.0410 C.3   266  LEU266      0.0019
     99  CD1       -6.9230   72.9400   14.7800 C.3   266  LEU266      0.0001
    100  CD2       -5.0130   74.2660   15.7020 C.3   266  LEU266      0.0001
    101  N        -10.6570   81.7880   13.1940 N.3   302  GLN302     -0.1245
    102  CA       -11.6400   80.9210   12.5730 C.3   302  GLN302      0.1566
    103  C        -11.6690   79.6200   13.3570 C.2   302  GLN302      0.2260
    104  O        -10.6790   79.2650   14.0090 O.2   302  GLN302     -0.2867
    105  CB       -11.3150   80.6580   11.0970 C.3   302  GLN302      0.0367
    106  CG       -11.6920   81.8050   10.1770 C.3   302  GLN302      0.0905
    107  CD       -11.4070   81.5080    8.7190 C.2   302  GLN302      0.2608
    108  OE1      -11.0740   80.3800    8.3540 O.2   302  GLN302     -0.2717
    109  NE2      -11.5350   82.5260    7.8740 N.am  302  GLN302     -0.0878
    110  N        -12.0050   75.8480   12.6360 N.3   304  TRP304     -0.1241
    111  CA       -11.9030   75.0270   11.4300 C.3   304  TRP304      0.1605
    112  C        -12.7020   73.7320   11.4980 C.2   304  TRP304      0.2264
    113  O        -12.7350   73.0570   12.5240 O.2   304  TRP304     -0.2867
    114  CB       -10.4340   74.7250   11.1330 C.3   304  TRP304      0.0550
    115  CG        -9.6670   75.9680   10.8210 C.ar  304  TRP304      0.0003
    116  CD1       -9.6600   76.6460    9.6370 C.ar  304  TRP304      0.0946
    117  CD2       -8.8110   76.6990   11.7080 C.ar  304  TRP304      0.0152
    118  NE1       -8.8500   77.7510    9.7300 N.ar  304  TRP304     -0.2442
    119  CE2       -8.3180   77.8090   10.9910 C.ar  304  TRP304      0.0810
    120  CE3       -8.4110   76.5220   13.0380 C.ar  304  TRP304      0.0012
    121  CZ2       -7.4400   78.7280   11.5550 C.ar  304  TRP304      0.0191
    122  CZ3       -7.5410   77.4350   13.5960 C.ar  304  TRP304      0.0001
    123  CH2       -7.0670   78.5290   12.8570 C.ar  304  TRP304      0.0015
    124  N        -15.1860   76.2480    7.2660 N.3   310  HIS310     -0.1241
    125  CA       -14.7210   76.9060    8.4840 C.3   310  HIS310      0.1621
    126  C        -15.6900   77.9960    8.9420 C.2   310  HIS310      0.2264
    127  O        -16.3830   78.6060    8.1270 O.2   310  HIS310     -0.2867
    128  CB       -13.3280   77.4940    8.2560 C.3   310  HIS310      0.0745
    129  CG       -12.3670   76.5370    7.6180 C.ar  310  HIS310      0.0817
    130  ND1      -12.3490   75.1900    7.9130 N.ar  310  HIS310     -0.2268
    131  CD2      -11.3970   76.7300    6.6920 C.ar  310  HIS310      0.1154
    132  CE1      -11.4060   74.5960    7.2030 C.ar  310  HIS310      0.1986
    133  NE2      -10.8140   75.5080    6.4530 N.ar  310  HIS310     -0.2212
    134  N         -4.4880   84.2400   13.5030 N.3   336  TYR336     -0.1228
    135  CA        -4.6170   83.6340   12.1790 C.3   336  TYR336      0.1721
    136  C         -6.0420   83.1110   12.0610 C.2   336  TYR336      0.2437
    137  O         -6.5380   82.5080   12.9970 O.2   336  TYR336     -0.2733
    138  CB        -3.6280   82.4750   12.0080 C.3   336  TYR336      0.0547
    139  CG        -3.7760   81.7650   10.6880 C.ar  336  TYR336     -0.0200
    140  CD1       -3.2980   82.3370    9.5100 C.ar  336  TYR336     -0.0009
    141  CD2       -4.3990   80.5160   10.6060 C.ar  336  TYR336     -0.0009
    142  CE1       -3.4280   81.6960    8.2980 C.ar  336  TYR336      0.0417
    143  CE2       -4.5330   79.8710    9.3880 C.ar  336  TYR336      0.0417
    144  CZ        -4.0410   80.4620    8.2410 C.ar  336  TYR336      0.1957
    145  OH        -4.1690   79.8220    7.0310 O.3   336  TYR336     -0.2866
    146  N         -6.7060   83.2960   10.9080 N.am  337  PRO337     -0.2729
    147  CA        -6.3060   84.0330    9.7110 C.3   337  PRO337      0.1401
    148  C         -6.9660   85.3970    9.6900 C.2   337  PRO337      0.2269
    149  O         -7.8100   85.6830   10.5450 O.2   337  PRO337     -0.2865
    150  CB        -6.8320   83.1660    8.5780 C.3   337  PRO337      0.0296
    151  CG        -8.0890   82.5530    9.1560 C.3   337  PRO337      0.0237
    152  CD        -7.9160   82.4930   10.6680 C.3   337  PRO337      0.0939
@<TRIPOS>BOND
     1    51    50    1
     2    51    52    1
     3    50    47    1
     4    52    46    1
     5    12    11    2
     6    47    46    1
     7    47    48    1
     8    46    40   am
     9    20    19    2
    10    48    49    2
    11    15    14   ar
    12    11    10    1
    13    11    17   am
    14    19    18    1
    15    10    13    1
    16    10     9    1
    17    38    39    1
    18    40    39    1
    19    40    41    2
    20    13    14    1
    21    39    42    1
    22    14    16   ar
    23    17    18    1
    24    18    21    1
    25    36    35    2
    26    53    54    1
    27    42    43    1
    28    21    22    1
    29    32    31    2
    30    44    43   ar
    31    35    37   am
    32    35    34    1
    33    43    45   ar
    34    31    30    1
    35    22    23   ar
    36    22    24   ar
    37    23    25   ar
    38    54    55    1
    39    34    33    1
    40    55    56    2
    41     3     4    2
    42     3     2    1
    43    33    30    1
    44    24    26   ar
    45    30    29    1
    46    25    27   ar
    47     5     2    1
    48     5     6    1
    49     2     1    1
    50    60    59    2
    51    26    27   ar
    52    27    28    1
    53     6     7   ar
    54     6     8   ar
    55    59    58    1
    56    57    58    1
    57    73    74    2
    58    73    72    1
    59    58    61    1
    60    67    69   ar
    61    67    64   ar
    62    69    70   ar
    63    72    75    1
    64    72    71    1
    65    61    62    1
    66    77    79   ar
    67    77    76   ar
    68   133   131   ar
    69   133   132   ar
    70    90    92   ar
    71    90    88   ar
    72    64    62   ar
    73    64    66   ar
    74    75    76    1
    75    92    91   ar
    76    62    63   ar
    77   131   129   ar
    78    70    68   ar
    79    79    81   ar
    80   145   144    1
    81    66    68   ar
    82    66    65   ar
    83   132   130   ar
    84    76    78   ar
    85   124   125    1
    86    63    65   ar
    87    88    87    1
    88    88    89   ar
    89    91    89   ar
    90    87    84    1
    91   129   130   ar
    92   129   128    1
    93   109   107   am
    94   127   126    2
    95   144   142   ar
    96   144   143   ar
    97   128   125    1
    98   142   140   ar
    99    81    82    1
   100    81    80   ar
   101   108   107    2
   102   125   126    1
   103   150   151    1
   104   150   147    1
   105    78    80   ar
   106   107   106    1
   107    83    84    1
   108    84    85    1
   109   151   152    1
   110   143   141   ar
   111   140   139   ar
   112   116   118   ar
   113   116   115   ar
   114   148   147    1
   115   148   149    2
   116   147   146    1
   117   118   119   ar
   118    85    86    2
   119   106   105    1
   120   141   139   ar
   121   152   146    1
   122   139   138    1
   123   115   114    1
   124   115   117   ar
   125   146   136   am
   126   119   121   ar
   127   119   117   ar
   128   105   102    1
   129   114   111    1
   130   111   112    1
   131   111   110    1
   132   112   113    2
   133   121   123   ar
   134   117   120   ar
   135   138   135    1
   136   136   135    1
   137   136   137    2
   138   135   134    1
   139   102   101    1
   140   102   103    1
   141   123   122   ar
   142   120   122   ar
   143   103   104    2
   144    99    98    1
   145   100    98    1
   146    98    97    1
   147    97    94    1
   148    94    95    1
   149    94    93    1
   150    96    95    2
