@<TRIPOS>MOLECULE
tmp/4p7rA00.pdb
 135 132 0 0 0
SMALL
GASTEIGER

@<TRIPOS>ATOM
      1  N         21.4800   97.0360  120.7230 N.3   119  HIS119     -0.1241
      2  CA        22.7790   96.8240  121.3630 C.3   119  HIS119      0.1621
      3  C         23.5320   95.6700  120.7200 C.2   119  HIS119      0.2264
      4  O         22.9760   94.5840  120.5920 O.2   119  HIS119     -0.2867
      5  CB        22.6270   96.5620  122.8600 C.3   119  HIS119      0.0745
      6  CG        23.8800   96.8470  123.6240 C.ar  119  HIS119      0.0817
      7  ND1       24.9490   95.9800  123.6500 N.ar  119  HIS119     -0.2268
      8  CD2       24.2590   97.9340  124.3400 C.ar  119  HIS119      0.1154
      9  CE1       25.9240   96.5060  124.3710 C.ar  119  HIS119      0.1986
     10  NE2       25.5280   97.6910  124.8010 N.ar  119  HIS119     -0.2212
     11  N         25.8620   93.7780  121.7220 N.3   121  GLU121     -0.1231
     12  CA        26.2640   92.6500  122.5620 C.3   121  GLU121      0.1699
     13  C         25.0880   91.7950  123.0330 C.2   121  GLU121      0.2592
     14  O         25.2730   90.8420  123.7910 O.2   121  GLU121     -0.2718
     15  CB        27.0690   93.1600  123.7560 C.3   121  GLU121      0.0402
     16  CG        28.4140   93.7620  123.3350 C.3   121  GLU121      0.1161
     17  CD        29.2910   94.1500  124.5090 C.2   121  GLU121      0.3649
     18  OE1       28.7480   94.3430  125.6170 O.co2 121  GLU121     -0.2457
     19  OE2       30.5230   94.2560  124.3240 O.co2 121  GLU121     -0.2457
     20  N         23.8850   92.1160  122.5650 N.am  122  GLN122     -0.1979
     21  CA        22.7080   91.3140  122.8850 C.3   122  GLN122      0.1601
     22  C         22.3030   90.4230  121.7140 C.2   122  GLN122      0.2287
     23  O         22.6550   90.6980  120.5680 O.2   122  GLN122     -0.2864
     24  CB        21.5270   92.2220  123.2570 C.3   122  GLN122      0.0394
     25  CG        21.7610   93.0910  124.4790 C.3   122  GLN122      0.0908
     26  CD        21.8320   92.2760  125.7540 C.2   122  GLN122      0.2608
     27  OE1       21.0220   91.3700  125.9690 O.2   122  GLN122     -0.2717
     28  NE2       22.8070   92.5860  126.6050 N.am  122  GLN122     -0.0878
     29  N         16.1050   93.8120  128.8310 N.3   162  SER162     -0.1202
     30  CA        16.7420   94.5470  129.9110 C.3   162  SER162      0.2020
     31  C         15.8500   95.6740  130.4320 C.2   162  SER162      0.2619
     32  O         14.7440   95.8750  129.9210 O.2   162  SER162     -0.2717
     33  CB        18.0820   95.1440  129.4550 C.3   162  SER162      0.2103
     34  OG        17.8640   96.3180  128.6820 O.3   162  SER162     -0.2182
     35  N         16.3470   96.4080  131.4260 N.am  163  ASP163     -0.1959
     36  CA        15.5770   97.5100  132.0160 C.3   163  ASP163      0.1840
     37  C         15.6230   98.7750  131.1510 C.2   163  ASP163      0.2622
     38  O         15.0760   99.8000  131.5320 O.2   163  ASP163     -0.2715
     39  CB        16.0430   97.8100  133.4460 C.3   163  ASP163      0.1450
     40  CG        17.5580   97.9770  133.5750 C.2   163  ASP163      0.3671
     41  OD1       18.3130   97.3780  132.7820 O.co2 163  ASP163     -0.2456
     42  OD2       17.9800   98.6960  134.5030 O.co2 163  ASP163     -0.2456
     43  N         16.2660   98.6900  129.9870 N.am  164  TYR164     -0.1974
     44  CA        16.2800   99.7900  129.0240 C.3   164  TYR164      0.1639
     45  C         15.5560   99.3870  127.7340 C.2   164  TYR164      0.2290
     46  O         15.5730  100.1220  126.7430 O.2   164  TYR164     -0.2864
     47  CB        17.7200  100.2290  128.7200 C.3   164  TYR164      0.0560
     48  CG        18.4340  100.8620  129.8960 C.ar  164  TYR164     -0.0198
     49  CD1       19.1490  100.0860  130.8040 C.ar  164  TYR164     -0.0009
     50  CD2       18.3960  102.2360  130.0980 C.ar  164  TYR164     -0.0009
     51  CE1       19.8040  100.6670  131.8820 C.ar  164  TYR164      0.0417
     52  CE2       19.0430  102.8250  131.1770 C.ar  164  TYR164      0.0417
     53  CZ        19.7440  102.0360  132.0640 C.ar  164  TYR164      0.1957
     54  OH        20.3960  102.6170  133.1300 O.3   164  TYR164     -0.2866
     55  N         10.9940  103.3680  133.8740 N.3   188  ARG188     -0.1245
     56  CA        12.0230  102.5450  134.5150 C.3   188  ARG188      0.1563
     57  C         12.5750  103.1730  135.7870 C.2   188  ARG188      0.2260
     58  O         13.1470  102.4650  136.6230 O.2   188  ARG188     -0.2867
     59  CB        13.1820  102.2480  133.5510 C.3   188  ARG188      0.0307
     60  CG        13.9390  103.4610  133.0640 C.3   188  ARG188      0.0489
     61  CD        15.1880  103.0530  132.2960 C.3   188  ARG188      0.2205
     62  NE        15.9950  102.1140  133.0660 N.pl3 188  ARG188     -0.0865
     63  CZ        16.8740  102.4710  133.9930 C.cat 188  ARG188      0.5346
     64  NH1       17.5610  101.5440  134.6450 N.pl3 188  ARG188      0.1354
     65  NH2       17.0680  103.7560  134.2700 N.pl3 188  ARG188      0.1354
     66  N         18.1570   82.2590  132.8870 N.3   231  PHE231     -0.1241
     67  CA        19.4630   82.6430  133.4090 C.3   231  PHE231      0.1605
     68  C         19.4960   82.4070  134.9030 C.2   231  PHE231      0.2264
     69  O         18.4560   82.3690  135.5530 O.2   231  PHE231     -0.2867
     70  CB        19.7810   84.1060  133.0810 C.3   231  PHE231      0.0534
     71  CG        20.1490   84.3220  131.6430 C.ar  231  PHE231     -0.0203
     72  CD1       19.1740   84.5960  130.6940 C.ar  231  PHE231     -0.0042
     73  CD2       21.4750   84.2270  131.2370 C.ar  231  PHE231     -0.0042
     74  CE1       19.5110   84.7780  129.3660 C.ar  231  PHE231     -0.0003
     75  CE2       21.8200   84.4010  129.9180 C.ar  231  PHE231     -0.0003
     76  CZ        20.8410   84.6840  128.9780 C.ar  231  PHE231     -0.0000
     77  N         20.7510   84.3170  137.3400 N.3   233  LEU233     -0.1245
     78  CA        20.4970   85.4660  138.2080 C.3   233  LEU233      0.1561
     79  C         19.0260   85.6230  138.5990 C.2   233  LEU233      0.2260
     80  O         18.7420   85.9030  139.7680 O.2   233  LEU233     -0.2867
     81  CB        21.0030   86.7580  137.5680 C.3   233  LEU233      0.0270
     82  CG        22.4210   87.1370  137.9620 C.3   233  LEU233      0.0019
     83  CD1       22.6670   88.5730  137.5560 C.3   233  LEU233      0.0001
     84  CD2       22.6450   86.9400  139.4660 C.3   233  LEU233      0.0001
     85  N         18.9780   85.7540  142.3750 N.3   237  GLN237     -0.1245
     86  CA        18.8300   87.1670  142.7190 C.3   237  GLN237      0.1566
     87  C         17.5740   87.7140  142.0540 C.2   237  GLN237      0.2260
     88  O         17.6520   88.3520  141.0080 O.2   237  GLN237     -0.2867
     89  CB        20.0640   87.9570  142.2700 C.3   237  GLN237      0.0367
     90  CG        20.2840   89.2530  143.0270 C.3   237  GLN237      0.0905
     91  CD        21.0550   90.2980  142.2300 C.2   237  GLN237      0.2608
     92  OE1       21.5770   90.0210  141.1520 O.2   237  GLN237     -0.2717
     93  NE2       21.1190   91.5150  142.7640 N.am  237  GLN237     -0.0878
     94  N         16.0550   93.4360  134.9070 N.3   243  TRP243     -0.1227
     95  CA        16.8400   93.5690  133.6830 C.3   243  TRP243      0.1737
     96  C         17.0130   92.2580  132.9090 C.2   243  TRP243      0.2595
     97  O         17.8340   92.1820  131.9900 O.2   243  TRP243     -0.2718
     98  CB        18.2100   94.2070  133.9850 C.3   243  TRP243      0.0564
     99  CG        19.1150   93.4660  134.9450 C.ar  243  TRP243      0.0003
    100  CD1       20.0570   92.5350  134.6270 C.ar  243  TRP243      0.0946
    101  CD2       19.2100   93.6620  136.3650 C.ar  243  TRP243      0.0152
    102  NE1       20.7160   92.1120  135.7620 N.ar  243  TRP243     -0.2442
    103  CE2       20.2170   92.7890  136.8420 C.ar  243  TRP243      0.0810
    104  CE3       18.5340   94.4740  137.2780 C.ar  243  TRP243      0.0012
    105  CZ2       20.5600   92.7040  138.1920 C.ar  243  TRP243      0.0191
    106  CZ3       18.8790   94.3920  138.6230 C.ar  243  TRP243      0.0001
    107  CH2       19.8830   93.5100  139.0640 C.ar  243  TRP243      0.0015
    108  N         16.2190   91.2410  133.2430 N.am  244  PHE244     -0.1976
    109  CA        16.1270   90.0350  132.4170 C.3   244  PHE244      0.1639
    110  C         14.7120   89.8050  131.8480 C.2   244  PHE244      0.2290
    111  O         14.5540   89.1440  130.8240 O.2   244  PHE244     -0.2864
    112  CB        16.5280   88.7740  133.2120 C.3   244  PHE244      0.0560
    113  CG        18.0030   88.5660  133.3150 C.ar  244  PHE244     -0.0200
    114  CD1       18.6880   87.8550  132.3310 C.ar  244  PHE244     -0.0042
    115  CD2       18.7150   89.0830  134.3890 C.ar  244  PHE244     -0.0042
    116  CE1       20.0740   87.6600  132.4180 C.ar  244  PHE244     -0.0003
    117  CE2       20.1030   88.8920  134.4830 C.ar  244  PHE244     -0.0003
    118  CZ        20.7730   88.1820  133.4950 C.ar  244  PHE244     -0.0000
    119  N         30.2760   81.3620  133.0870 N.3   266  LEU266     -0.1231
    120  CA        29.4730   82.2850  132.2960 C.3   266  LEU266      0.1693
    121  C         29.1080   83.5080  133.1390 C.2   266  LEU266      0.2591
    122  O         29.0850   84.6350  132.6500 O.2   266  LEU266     -0.2718
    123  CB        28.2120   81.5890  131.7810 C.3   266  LEU266      0.0284
    124  CG        27.2490   82.3770  130.8990 C.3   266  LEU266      0.0019
    125  CD1       27.9740   82.9520  129.6930 C.3   266  LEU266      0.0001
    126  CD2       26.0890   81.4840  130.4670 C.3   266  LEU266      0.0001
    127  N         28.8530   83.2650  134.4210 N.am  267  GLU267     -0.1979
    128  CA        28.4450   84.3050  135.3520 C.3   267  GLU267      0.1602
    129  C         29.6190   85.0710  135.9650 C.2   267  GLU267      0.2287
    130  O         29.4210   85.9020  136.8490 O.2   267  GLU267     -0.2864
    131  CB        27.5930   83.6860  136.4660 C.3   267  GLU267      0.0415
    132  CG        26.3300   83.0090  135.9640 C.3   267  GLU267      0.1163
    133  CD        25.3470   83.9930  135.3590 C.2   267  GLU267      0.3649
    134  OE1       25.3380   85.1660  135.7930 O.co2 267  GLU267     -0.2457
    135  OE2       24.5850   83.5980  134.4500 O.co2 267  GLU267     -0.2457
@<TRIPOS>BOND
     1    23    22    2
     2     4     3    2
     3     3     2    1
     4     1     2    1
     5     2     5    1
     6    22    21    1
     7    11    12    1
     8    12    13    1
     9    12    15    1
    10    20    21    1
    11    20    13   am
    12     5     6    1
    13    21    24    1
    14    13    14    2
    15    24    25    1
    16    16    15    1
    17    16    17    1
    18     6     7   ar
    19     6     8   ar
    20     7     9   ar
    21    19    17   ar
    22     8    10   ar
    23     9    10   ar
    24    25    26    1
    25    17    18   ar
    26    26    27    2
    27    26    28   am
    28    46    45    2
    29    45    44    1
    30    34    33    1
    31    47    44    1
    32    47    48    1
    33    29    30    1
    34    76    74   ar
    35    76    75   ar
    36    44    43    1
    37    74    72   ar
    38    33    30    1
    39   125   124    1
    40    48    50   ar
    41    48    49   ar
    42    30    31    1
    43    75    73   ar
    44    32    31    2
    45    43    37   am
    46    50    52   ar
    47    31    35   am
    48   126   124    1
    49    72    71   ar
    50    49    51   ar
    51   111   110    2
    52   124   123    1
    53    37    38    2
    54    37    36    1
    55    52    53   ar
    56    73    71   ar
    57    35    36    1
    58    71    70    1
    59   123   120    1
    60   110   109    1
    61    51    53   ar
    62    97    96    2
    63    36    39    1
    64    53    54    1
    65    61    60    1
    66    61    62    1
    67   120   119    1
    68   120   121    1
    69   114   116   ar
    70   114   113   ar
    71   109   112    1
    72   109   108    1
    73   116   118   ar
    74   122   121    2
    75    41    40   ar
    76    66    67    1
    77    96   108   am
    78    96    95    1
    79    60    59    1
    80    62    63    2
    81    70    67    1
    82   121   127   am
    83   112   113    1
    84   113   115   ar
    85    67    68    1
    86    39    40    1
    87   118   117   ar
    88    59    56    1
    89    40    42   ar
    90    95    98    1
    91    95    94    1
    92    55    56    1
    93    98    99    1
    94    63    65    1
    95    63    64    1
    96   115   117   ar
    97   127   128    1
    98   135   133   ar
    99    56    57    1
   100   100    99   ar
   101   100   102   ar
   102    68    69    2
   103    99   101   ar
   104   128   129    1
   105   128   131    1
   106   133   134   ar
   107   133   132    1
   108   102   103   ar
   109    57    58    2
   110   132   131    1
   111   129   130    2
   112   101   103   ar
   113   101   104   ar
   114   103   105   ar
   115   104   106   ar
   116    77    78    1
   117    83    82    1
   118    81    82    1
   119    81    78    1
   120    82    84    1
   121   105   107   ar
   122    78    79    1
   123    79    80    2
   124   106   107   ar
   125    88    87    2
   126    92    91    2
   127    87    86    1
   128    91    93   am
   129    91    90    1
   130    89    86    1
   131    89    90    1
   132    85    86    1
