@<TRIPOS>MOLECULE
tmp/4p7uA00.pdb
 92 89 0 0 0
SMALL
GASTEIGER

@<TRIPOS>ATOM
      1  N          7.1100   -6.6200   82.9100 N.3    13  CYS13      -0.1221
      2  CA         5.6950   -6.7640   83.2200 C.3    13  CYS13       0.1808
      3  C          4.8970   -7.3130   82.0420 C.2    13  CYS13       0.2601
      4  O          4.7140   -6.6520   81.0080 O.2    13  CYS13      -0.2717
      5  CB         5.1130   -5.4200   83.6690 C.3    13  CYS13       0.0970
      6  SG         3.3310   -5.4060   83.9100 S.3    13  CYS13      -0.0800
      7  N          4.4070   -8.5360   82.2130 N.am   14  ASP14      -0.1959
      8  CA         3.6410   -9.1930   81.1720 C.3    14  ASP14       0.1840
      9  C          3.0090  -10.4260   81.7900 C.2    14  ASP14       0.2622
     10  O          3.5870  -11.0230   82.6880 O.2    14  ASP14      -0.2715
     11  CB         4.5630   -9.5930   80.0200 C.3    14  ASP14       0.1450
     12  CG         3.8150   -9.8080   78.7240 C.2    14  ASP14       0.3671
     13  OD1        2.6690   -9.3150   78.5940 O.co2  14  ASP14      -0.2456
     14  OD2        4.3750  -10.4760   77.8270 O.co2  14  ASP14      -0.2456
     15  N          1.8120  -10.7670   81.3320 N.am   15  ASN15      -0.1958
     16  CA         1.1520  -11.9980   81.7610 C.3    15  ASN15       0.1819
     17  C          0.9070  -12.0710   83.2620 C.2    15  ASN15       0.2621
     18  O          1.0600  -13.1310   83.8690 O.2    15  ASN15      -0.2715
     19  CB         1.9430  -13.2230   81.2880 C.3    15  ASN15       0.1195
     20  CG         2.3010  -13.1510   79.8080 C.2    15  ASN15       0.2630
     21  OD1        3.4220  -13.4740   79.4090 O.2    15  ASN15      -0.2716
     22  ND2        1.3470  -12.7160   78.9890 N.am   15  ASN15      -0.0877
     23  N          0.5120  -10.9570   83.8580 N.am   16  GLN16      -0.1977
     24  CA         0.0830  -10.9910   85.2480 C.3    16  GLN16       0.1601
     25  C         -0.8990   -9.8740   85.5470 C.2    16  GLN16       0.2287
     26  O         -0.9130   -8.8480   84.8720 O.2    16  GLN16      -0.2864
     27  CB         1.2740  -10.9770   86.2110 C.3    16  GLN16       0.0394
     28  CG         2.3530   -9.9670   85.8920 C.3    16  GLN16       0.0908
     29  CD         3.5840  -10.1540   86.7630 C.2    16  GLN16       0.2608
     30  OE1        4.3400  -11.1120   86.5910 O.2    16  GLN16      -0.2717
     31  NE2        3.7850   -9.2400   87.7110 N.am   16  GLN16      -0.0878
     32  N          2.0180    1.4840   79.8610 N.3    40  TRP40      -0.1241
     33  CA         2.6350    0.2180   79.5190 C.3    40  TRP40       0.1605
     34  C          2.5070    0.0210   78.0090 C.2    40  TRP40       0.2264
     35  O          1.4150    0.1350   77.4600 O.2    40  TRP40      -0.2867
     36  CB         1.9450   -0.9130   80.3080 C.3    40  TRP40       0.0550
     37  CG         2.4550   -2.3080   80.0820 C.ar   40  TRP40       0.0003
     38  CD1        3.3690   -2.9710   80.8420 C.ar   40  TRP40       0.0946
     39  CD2        2.0360   -3.2320   79.0590 C.ar   40  TRP40       0.0152
     40  NE1        3.5550   -4.2540   80.3550 N.ar   40  TRP40      -0.2442
     41  CE2        2.7540   -4.4280   79.2590 C.ar   40  TRP40       0.0810
     42  CE3        1.1310   -3.1580   77.9940 C.ar   40  TRP40       0.0012
     43  CZ2        2.5990   -5.5470   78.4310 C.ar   40  TRP40       0.0191
     44  CZ3        0.9810   -4.2740   77.1630 C.ar   40  TRP40       0.0001
     45  CH2        1.7120   -5.4450   77.3950 C.ar   40  TRP40       0.0015
     46  N          3.7770   -2.5020   74.6530 N.3    42  LYS42      -0.1245
     47  CA         4.4130   -3.6800   74.0860 C.3    42  LYS42       0.1561
     48  C          4.4130   -3.5560   72.5690 C.2    42  LYS42       0.2260
     49  O          3.3600   -3.3980   71.9400 O.2    42  LYS42      -0.2867
     50  CB         3.6700   -4.9440   74.5140 C.3    42  LYS42       0.0271
     51  CG         4.3400   -6.2410   74.0410 C.3    42  LYS42       0.0035
     52  CD         3.7210   -7.4690   74.6960 C.3    42  LYS42       0.0206
     53  CE         4.6760   -8.6490   74.6130 C.3    42  LYS42       0.1093
     54  NZ         4.0490   -9.8890   75.1360 N.3    42  LYS42      -0.1314
     55  N         -6.7590   -0.0560   77.7880 N.3    77  GLU77      -0.1245
     56  CA        -6.1220   -0.0450   76.4780 C.3    77  GLU77       0.1567
     57  C         -6.5400    1.1620   75.6530 C.2    77  GLU77       0.2260
     58  O         -7.6970    1.5890   75.6880 O.2    77  GLU77      -0.2867
     59  CB        -6.4360   -1.3300   75.7020 C.3    77  GLU77       0.0388
     60  CG        -5.5690   -1.4900   74.4570 C.3    77  GLU77       0.1160
     61  CD        -5.7070   -2.8390   73.7960 C.2    77  GLU77       0.3649
     62  OE1       -6.5540   -3.6410   74.2410 O.co2  77  GLU77      -0.2457
     63  OE2       -4.9590   -3.0950   72.8290 O.co2  77  GLU77      -0.2457
     64  N          0.7350   -2.3500   71.4660 N.3    84  THR84      -0.1218
     65  CA        -0.3490   -2.4830   72.4200 C.3    84  THR84       0.1862
     66  C         -0.0590   -1.4650   73.5210 C.2    84  THR84       0.2287
     67  O          1.0140   -1.5070   74.1210 O.2    84  THR84      -0.2866
     68  CB        -0.3690   -3.9010   73.0120 C.3    84  THR84       0.1770
     69  OG1       -0.5720   -4.8500   71.9540 O.3    84  THR84      -0.2211
     70  CG2       -1.4820   -4.0480   73.9890 C.3    84  THR84       0.0375
     71  N         -1.3800    0.6420   76.9510 N.3    86  PHE86      -0.1241
     72  CA        -2.2670    0.7170   78.1160 C.3    86  PHE86       0.1605
     73  C         -1.8270    1.9030   78.9560 C.2    86  PHE86       0.2264
     74  O         -0.6350    2.1710   79.0850 O.2    86  PHE86      -0.2867
     75  CB        -2.2020   -0.5700   78.9600 C.3    86  PHE86       0.0534
     76  CG        -3.0050   -1.7190   78.4010 C.ar   86  PHE86      -0.0203
     77  CD1       -2.5660   -2.4280   77.2910 C.ar   86  PHE86      -0.0042
     78  CD2       -4.1880   -2.0990   79.0110 C.ar   86  PHE86      -0.0042
     79  CE1       -3.3140   -3.5010   76.7930 C.ar   86  PHE86      -0.0003
     80  CE2       -4.9330   -3.1660   78.5210 C.ar   86  PHE86      -0.0003
     81  CZ        -4.4990   -3.8610   77.4130 C.ar   86  PHE86      -0.0000
     82  N         -4.0310   -4.6720   85.7790 N.3   101  PHE101     -0.1241
     83  CA        -4.6120   -4.9920   84.4780 C.3   101  PHE101      0.1605
     84  C         -5.9650   -5.7050   84.5960 C.2   101  PHE101      0.2264
     85  O         -6.7890   -5.6120   83.6940 O.2   101  PHE101     -0.2867
     86  CB        -3.6240   -5.8060   83.6400 C.3   101  PHE101      0.0534
     87  CG        -2.4250   -5.0160   83.1990 C.ar  101  PHE101     -0.0203
     88  CD1       -2.4730   -4.2570   82.0360 C.ar  101  PHE101     -0.0042
     89  CD2       -1.2710   -4.9950   83.9600 C.ar  101  PHE101     -0.0042
     90  CE1       -1.3740   -3.5050   81.6390 C.ar  101  PHE101     -0.0003
     91  CE2       -0.1670   -4.2450   83.5610 C.ar  101  PHE101     -0.0003
     92  CZ        -0.2260   -3.5020   82.3980 C.ar  101  PHE101     -0.0000
@<TRIPOS>BOND
     1    64    65    1
     2    49    48    2
     3    69    68    1
     4    65    68    1
     5    65    66    1
     6    48    47    1
     7    63    61   ar
     8    68    70    1
     9    66    67    2
    10    61    62   ar
    11    61    60    1
    12    51    50    1
    13    51    52    1
    14    47    50    1
    15    47    46    1
    16    60    59    1
    17    53    52    1
    18    53    54    1
    19    57    58    2
    20    57    56    1
    21    59    56    1
    22    56    55    1
    23    79    77   ar
    24    79    81   ar
    25    71    72    1
    26    44    45   ar
    27    44    42   ar
    28    77    76   ar
    29    45    43   ar
    30    81    80   ar
    31    35    34    2
    32    14    12   ar
    33    42    39   ar
    34    34    33    1
    35    72    73    1
    36    72    75    1
    37    76    75    1
    38    76    78   ar
    39    43    41   ar
    40    80    78   ar
    41    13    12   ar
    42    12    11    1
    43    73    74    2
    44    22    20   am
    45    39    41   ar
    46    39    37   ar
    47    41    40   ar
    48    21    20    2
    49    33    32    1
    50    33    36    1
    51    20    19    1
    52    11     8    1
    53    37    36    1
    54    37    38   ar
    55    40    38   ar
    56     4     3    2
    57     8     9    1
    58     8     7    1
    59    19    16    1
    60    15    16    1
    61    15     9   am
    62    90    88   ar
    63    90    92   ar
    64    16    17    1
    65     9    10    2
    66    88    87   ar
    67     3     7   am
    68     3     2    1
    69    92    91   ar
    70     1     2    1
    71    87    86    1
    72    87    89   ar
    73     2     5    1
    74    17    23   am
    75    17    18    2
    76    91    89   ar
    77    86    83    1
    78     5     6    1
    79    85    84    2
    80    23    24    1
    81    83    84    1
    82    83    82    1
    83    26    25    2
    84    24    25    1
    85    24    27    1
    86    28    27    1
    87    28    29    1
    88    30    29    2
    89    29    31   am
