@<TRIPOS>MOLECULE
tmp/4p7wA01.pdb
 140 134 0 0 0
SMALL
GASTEIGER

@<TRIPOS>ATOM
      1  N          8.5730   20.3190   11.0270 N.3    32  TYR32      -0.1241
      2  CA         8.2290   18.9840   11.5340 C.3    32  TYR32       0.1605
      3  C          7.2520   18.2390   10.6230 C.2    32  TYR32       0.2264
      4  O          6.6540   17.2280   11.0440 O.2    32  TYR32      -0.2867
      5  CB         7.7330   19.0040   13.0010 C.3    32  TYR32       0.0534
      6  CG         8.7400   19.6280   13.9660 C.ar   32  TYR32      -0.0201
      7  CD1        9.8460   18.9140   14.4460 C.ar   32  TYR32      -0.0009
      8  CD2        8.6270   20.9330   14.3270 C.ar   32  TYR32      -0.0009
      9  CE1       10.7570   19.5210   15.3070 C.ar   32  TYR32       0.0417
     10  CE2        9.5270   21.5430   15.1640 C.ar   32  TYR32       0.0417
     11  CZ        10.5840   20.8300   15.6530 C.ar   32  TYR32       0.1957
     12  OH        11.4010   21.5160   16.4830 O.3    32  TYR32      -0.2866
     13  N          7.5240   14.6010   10.2360 N.3    35  PHE35      -0.1241
     14  CA         6.7720   13.7130   11.1290 C.3    35  PHE35       0.1605
     15  C          5.3260   13.4470   10.6640 C.2    35  PHE35       0.2264
     16  O          4.6800   12.5720   11.2280 O.2    35  PHE35      -0.2867
     17  CB         6.7350   14.2510   12.5800 C.3    35  PHE35       0.0534
     18  CG         8.0570   14.1810   13.2870 C.ar   35  PHE35      -0.0203
     19  CD1        9.0450   15.1270   13.0420 C.ar   35  PHE35      -0.0042
     20  CD2        8.3070   13.1780   14.2390 C.ar   35  PHE35      -0.0042
     21  CE1       10.2860   15.0350   13.7040 C.ar   35  PHE35      -0.0003
     22  CE2        9.5280   13.1140   14.9080 C.ar   35  PHE35      -0.0003
     23  CZ        10.5080   14.0400   14.6300 C.ar   35  PHE35      -0.0000
     24  N         -0.9690   16.7340    9.1760 N.3    40  TRP40      -0.1241
     25  CA        -0.6990   16.9280   10.6010 C.3    40  TRP40       0.1605
     26  C          0.1890   18.1800   10.6290 C.2    40  TRP40       0.2264
     27  O          1.2770   18.2160    9.9580 O.2    40  TRP40      -0.2867
     28  CB         0.0280   15.7290   11.2120 C.3    40  TRP40       0.0550
     29  CG         0.3270   15.9220   12.6610 C.ar   40  TRP40       0.0003
     30  CD1       -0.4540   15.5360   13.7110 C.ar   40  TRP40       0.0946
     31  CD2        1.4240   16.6590   13.2180 C.ar   40  TRP40       0.0152
     32  NE1        0.1130   15.9490   14.9040 N.ar   40  TRP40      -0.2442
     33  CE2        1.2690   16.6350   14.6300 C.ar   40  TRP40       0.0810
     34  CE3        2.5630   17.2810   12.6640 C.ar   40  TRP40       0.0012
     35  CZ2        2.1920   17.2380   15.4960 C.ar   40  TRP40       0.0191
     36  CZ3        3.4950   17.8690   13.5330 C.ar   40  TRP40       0.0001
     37  CH2        3.3020   17.8440   14.9240 C.ar   40  TRP40       0.0015
     38  N         11.3640   23.9260   18.2100 N.3    57  VAL57      -0.1245
     39  CA        11.3850   23.9300   19.6640 C.3    57  VAL57       0.1561
     40  C         12.7670   23.5090   20.1780 C.2    57  VAL57       0.2260
     41  O         13.3750   22.6140   19.6170 O.2    57  VAL57      -0.2867
     42  CB        10.3070   23.0170   20.2780 C.3    57  VAL57       0.0252
     43  CG1        8.9290   23.4710   19.8540 C.3    57  VAL57       0.0019
     44  CG2       10.5060   21.5670   19.9030 C.3    57  VAL57       0.0019
     45  N          1.1360   25.7870   21.2840 N.3    93  ARG93      -0.1245
     46  CA         0.8030   25.5990   19.8850 C.3    93  ARG93       0.1563
     47  C         -0.6280   25.1220   19.7130 C.2    93  ARG93       0.2260
     48  O         -1.2380   24.5980   20.6550 O.2    93  ARG93      -0.2867
     49  CB         1.7300   24.5480   19.2870 C.3    93  ARG93       0.0307
     50  CG         3.1650   25.0600   19.2340 C.3    93  ARG93       0.0489
     51  CD         4.0850   23.9500   18.7420 C.3    93  ARG93       0.2205
     52  NE         4.5100   23.0400   19.7860 N.pl3  93  ARG93      -0.0865
     53  CZ         5.3230   22.0110   19.5820 C.cat  93  ARG93       0.5346
     54  NH1        5.6890   21.6870   18.3510 N.pl3  93  ARG93       0.1354
     55  NH2        5.7000   21.2570   20.5920 N.pl3  93  ARG93       0.1354
     56  N         -2.4320   22.3350   17.2960 N.3    95  ILE95      -0.1245
     57  CA        -1.9980   21.1910   16.4790 C.3    95  ILE95       0.1561
     58  C         -3.2640   20.6400   15.8920 C.2    95  ILE95       0.2260
     59  O         -4.1600   20.2620   16.6220 O.2    95  ILE95      -0.2867
     60  CB        -1.1950   20.0960   17.2840 C.3    95  ILE95       0.0252
     61  CG1        0.0020   20.7290   18.0410 C.3    95  ILE95       0.0019
     62  CG2       -0.7660   18.9350   16.3630 C.3    95  ILE95       0.0019
     63  CD1        1.0800   19.7230   18.4670 C.3    95  ILE95       0.0001
     64  N          0.2920   11.7830   12.7830 N.3   103  ILE103     -0.1245
     65  CA         1.6850   11.9800   13.0340 C.3   103  ILE103      0.1561
     66  C          2.2860   10.5720   13.0990 C.2   103  ILE103      0.2260
     67  O          1.7190    9.6670   13.6980 O.2   103  ILE103     -0.2867
     68  CB         1.9900   12.8180   14.2910 C.3   103  ILE103      0.0252
     69  CG1        3.5170   12.8700   14.4860 C.3   103  ILE103      0.0019
     70  CG2        1.2650   12.2600   15.5290 C.3   103  ILE103      0.0019
     71  CD1        4.0590   14.1090   15.1650 C.3   103  ILE103      0.0001
     72  N          6.3380    7.9160   16.9300 N.3   106  HIS106     -0.1241
     73  CA         7.5910    8.5380   17.2970 C.3   106  HIS106      0.1621
     74  C          7.7140    8.6720   18.8010 C.2   106  HIS106      0.2264
     75  O          6.7970    8.3970   19.5540 O.2   106  HIS106     -0.2867
     76  CB         7.6950    9.9280   16.6780 C.3   106  HIS106      0.0745
     77  CG         6.6990   10.8970   17.2360 C.ar  106  HIS106      0.0817
     78  ND1        5.3660   10.8610   16.8970 N.ar  106  HIS106     -0.2268
     79  CD2        6.8280   11.8970   18.1440 C.ar  106  HIS106      0.1154
     80  CE1        4.7160   11.8040   17.5530 C.ar  106  HIS106      0.1986
     81  NE2        5.5780   12.4370   18.3340 N.ar  106  HIS106     -0.2212
     82  N          9.2570   11.8700   21.2800 N.3   108  ASP108     -0.1225
     83  CA         9.7380   13.2240   21.2190 C.3   108  ASP108      0.1805
     84  C         10.9810   13.3460   22.0770 C.2   108  ASP108      0.2597
     85  O         11.4040   12.3680   22.7430 O.2   108  ASP108     -0.2718
     86  CB         8.6860   14.1920   21.7160 C.3   108  ASP108      0.1424
     87  CG         7.5470   14.2880   20.7720 C.2   108  ASP108      0.3668
     88  OD1        7.7360   14.9320   19.7420 O.co2 108  ASP108     -0.2456
     89  OD2        6.4880   13.7210   21.0780 O.co2 108  ASP108     -0.2456
     90  N         11.5650   14.5360   22.0230 N.am  109  TYR109     -0.1976
     91  CA        12.5920   15.0010   22.9580 C.3   109  TYR109      0.1639
     92  C         13.9880   14.4230   22.7020 C.2   109  TYR109      0.2290
     93  O         14.9350   14.7690   23.3890 O.2   109  TYR109     -0.2864
     94  CB        12.1910   14.6990   24.4160 C.3   109  TYR109      0.0560
     95  CG        10.7900   15.1420   24.8130 C.ar  109  TYR109     -0.0198
     96  CD1       10.1960   16.2640   24.2510 C.ar  109  TYR109     -0.0009
     97  CD2       10.0880   14.4390   25.7730 C.ar  109  TYR109     -0.0009
     98  CE1        8.9180   16.6610   24.6340 C.ar  109  TYR109      0.0417
     99  CE2        8.8390   14.8320   26.1750 C.ar  109  TYR109      0.0417
    100  CZ         8.2580   15.9380   25.5980 C.ar  109  TYR109      0.1957
    101  OH         7.0170   16.3050   26.0190 O.3   109  TYR109     -0.2866
    102  N         16.0500   14.9430   20.3590 N.3   111  GLU111     -0.1231
    103  CA        16.9820   15.9590   19.8600 C.3   111  GLU111      0.1699
    104  C         17.1570   17.1000   20.8460 C.2   111  GLU111      0.2592
    105  O         17.8200   18.0970   20.5390 O.2   111  GLU111     -0.2718
    106  CB        16.5260   16.5030   18.4930 C.3   111  GLU111      0.0402
    107  CG        15.3570   17.5290   18.4830 C.3   111  GLU111      0.1161
    108  CD        13.9610   16.9730   18.7920 C.2   111  GLU111      0.3649
    109  OE1       13.7820   15.7710   18.9890 O.co2 111  GLU111     -0.2457
    110  OE2       12.9830   17.7630   18.8110 O.co2 111  GLU111     -0.2457
    111  N         16.5340   16.9660   22.0170 N.am  112  LEU112     -0.1980
    112  CA        16.5040   18.0360   22.9840 C.3   112  LEU112      0.1596
    113  C         17.4080   17.6990   24.1550 C.2   112  LEU112      0.2287
    114  O         17.4200   16.5510   24.6330 O.2   112  LEU112     -0.2864
    115  CB        15.0890   18.2530   23.5100 C.3   112  LEU112      0.0297
    116  CG        14.0080   18.7060   22.5310 C.3   112  LEU112      0.0022
    117  CD1       12.7370   18.9250   23.3240 C.3   112  LEU112      0.0001
    118  CD2       14.4190   19.9710   21.7790 C.3   112  LEU112      0.0001
    119  N          4.6190   17.7340   28.3480 N.3   118  ARG118     -0.1245
    120  CA         3.6640   18.0770   27.2880 C.3   118  ARG118      0.1563
    121  C          2.2020   17.8710   27.6880 C.2   118  ARG118      0.2260
    122  O          1.7910   16.7820   28.1110 O.2   118  ARG118     -0.2867
    123  CB         3.9510   17.2870   26.0210 C.3   118  ARG118      0.0307
    124  CG         3.0950   17.7820   24.8460 C.3   118  ARG118      0.0489
    125  CD         3.7730   17.4830   23.5240 C.3   118  ARG118      0.2205
    126  NE         5.0170   18.2310   23.3620 N.pl3 118  ARG118     -0.0865
    127  CZ         5.9590   17.9460   22.4570 C.cat 118  ARG118      0.5346
    128  NH1        5.8280   16.9330   21.6110 N.pl3 118  ARG118      0.1354
    129  NH2        7.0490   18.6900   22.4020 N.pl3 118  ARG118      0.1354
    130  N         18.2760   11.2180   17.1410 N.3   272  ARG272     -0.1245
    131  CA        18.3870   12.2910   16.1440 C.3   272  ARG272      0.1563
    132  C         18.9940   13.5480   16.7900 C.2   272  ARG272      0.2260
    133  O         18.8890   13.7460   18.0010 O.2   272  ARG272     -0.2867
    134  CB        17.0380   12.5800   15.4420 C.3   272  ARG272      0.0307
    135  CG        15.8600   12.7290   16.3720 C.3   272  ARG272      0.0489
    136  CD        14.5520   13.2020   15.7400 C.3   272  ARG272      0.2205
    137  NE        13.7000   13.6010   16.8370 N.pl3 272  ARG272     -0.0865
    138  CZ        12.8450   12.8300   17.4880 C.cat 272  ARG272      0.5346
    139  NH1       12.5940   11.5860   17.1210 N.pl3 272  ARG272      0.1354
    140  NH2       12.1890   13.3350   18.5290 N.pl3 272  ARG272      0.1354
@<TRIPOS>BOND
     1    24    25    1
     2    27    26    2
     3    13    14    1
     4    25    26    1
     5    25    28    1
     6     3     4    2
     7     3     2    1
     8    15    14    1
     9    15    16    2
    10     1     2    1
    11    14    17    1
    12    28    29    1
    13     2     5    1
    14    17    18    1
    15    29    31   ar
    16    29    30   ar
    17    34    31   ar
    18    34    36   ar
    19    64    65    1
    20     5     6    1
    21    65    66    1
    22    65    68    1
    23    19    18   ar
    24    19    21   ar
    25    66    67    2
    26    31    33   ar
    27    18    20   ar
    28    36    37   ar
    29    21    23   ar
    30    30    32   ar
    31     6     8   ar
    32     6     7   ar
    33    20    22   ar
    34    68    69    1
    35    68    70    1
    36     8    10   ar
    37     7     9   ar
    38    69    71    1
    39    33    32   ar
    40    33    35   ar
    41    23    22   ar
    42    37    35   ar
    43    10    11   ar
    44     9    11   ar
    45   134   131    1
    46   134   135    1
    47    11    12    1
    48   136   135    1
    49   136   137    1
    50    58    57    1
    51    58    59    2
    52   131   132    1
    53   131   130    1
    54    62    60    1
    55    57    60    1
    56    57    56    1
    57    76    77    1
    58    76    73    1
    59   132   133    2
    60   137   138    2
    61    78    77   ar
    62    78    80   ar
    63    72    73    1
    64   139   138    1
    65    77    79   ar
    66    60    61    1
    67    73    74    1
    68   138   140    1
    69    80    81   ar
    70    61    63    1
    71    79    81   ar
    72    38    39    1
    73    54    53    1
    74   107   106    1
    75   107   108    1
    76   106   103    1
    77    51    50    1
    78    51    52    1
    79   108   110   ar
    80   108   109   ar
    81    74    75    2
    82    50    49    1
    83    49    46    1
    84    53    52    2
    85    53    55    1
    86    41    40    2
    87    39    40    1
    88    39    42    1
    89    47    46    1
    90    47    48    2
    91    88    87   ar
    92    43    42    1
    93   103   102    1
    94   103   104    1
    95    46    45    1
    96    44    42    1
    97   105   104    2
    98    87    89   ar
    99    87    86    1
   100   104   111   am
   101    83    82    1
   102    83    86    1
   103    83    84    1
   104   128   127    1
   105   118   116    1
   106   111   112    1
   107    90    84   am
   108    90    91    1
   109    84    85    2
   110   129   127    1
   111   127   126    2
   112   116   117    1
   113   116   115    1
   114    92    91    1
   115    92    93    2
   116    91    94    1
   117   112   115    1
   118   112   113    1
   119   126   125    1
   120   125   124    1
   121   113   114    2
   122    96    98   ar
   123    96    95   ar
   124    94    95    1
   125    98   100   ar
   126    95    97   ar
   127   124   123    1
   128   100   101    1
   129   100    99   ar
   130    97    99   ar
   131   123   120    1
   132   120   121    1
   133   120   119    1
   134   121   122    2
