@<TRIPOS>MOLECULE
tmp/4p7xA00.pdb
 137 128 0 0 0
SMALL
GASTEIGER

@<TRIPOS>ATOM
      1  N         22.8170    7.4580    4.0040 N.3    46  TRP46      -0.1241
      2  CA        22.5030    8.8640    4.1710 C.3    46  TRP46       0.1605
      3  C         21.2500    9.0470    3.3320 C.2    46  TRP46       0.2264
      4  O         21.2680    8.7100    2.1570 O.2    46  TRP46      -0.2867
      5  CB        23.6430    9.7630    3.6550 C.3    46  TRP46       0.0550
      6  CG        23.3360   11.2280    3.7950 C.ar   46  TRP46       0.0003
      7  CD1       23.6940   12.0080    4.8470 C.ar   46  TRP46       0.0946
      8  CD2       22.5260   12.0440    2.9540 C.ar   46  TRP46       0.0152
      9  NE1       23.1940   13.2740    4.7000 N.ar   46  TRP46      -0.2442
     10  CE2       22.4710   13.3230    3.5380 C.ar   46  TRP46       0.0810
     11  CE3       21.8840   11.8370    1.7280 C.ar   46  TRP46       0.0012
     12  CZ2       21.7460   14.3690    2.9730 C.ar   46  TRP46       0.0191
     13  CZ3       21.1730   12.8820    1.1610 C.ar   46  TRP46       0.0001
     14  CH2       21.1220   14.1300    1.7700 C.ar   46  TRP46       0.0015
     15  N         16.7010   14.4980    7.6960 N.3   101  ILE101     -0.1245
     16  CA        17.8830   13.8640    7.1430 C.3   101  ILE101      0.1561
     17  C         18.4440   12.8950    8.1760 C.2   101  ILE101      0.2260
     18  O         18.7820   13.3000    9.3090 O.2   101  ILE101     -0.2867
     19  CB        18.9610   14.8860    6.6990 C.3   101  ILE101      0.0252
     20  CG1       18.3120   15.9290    5.7490 C.3   101  ILE101      0.0019
     21  CG2       20.1260   14.1380    6.0620 C.3   101  ILE101      0.0019
     22  CD1       19.2700   16.7890    4.9650 C.3   101  ILE101      0.0001
     23  N         21.1330    9.7420    9.0590 N.3   103  ILE103     -0.1245
     24  CA        22.3490    9.0130    8.7510 C.3   103  ILE103      0.1561
     25  C         22.3900    7.8120    9.6820 C.2   103  ILE103      0.2260
     26  O         22.3040    7.9230   10.9090 O.2   103  ILE103     -0.2867
     27  CB        23.6280    9.8560    8.9270 C.3   103  ILE103      0.0252
     28  CG1       23.4520   11.2490    8.3370 C.3   103  ILE103      0.0019
     29  CG2       24.8070    9.1250    8.3450 C.3   103  ILE103      0.0019
     30  CD1       24.7000   12.1130    8.3800 C.3   103  ILE103      0.0001
     31  N         27.6430   11.5420    4.0390 N.3   109  ILE109     -0.1245
     32  CA        27.4560   12.1840    2.7430 C.3   109  ILE109      0.1561
     33  C         28.8410   12.5420    2.1870 C.2   109  ILE109      0.2260
     34  O         29.7300   12.9530    2.9100 O.2   109  ILE109     -0.2867
     35  CB        26.4940   13.4010    2.8480 C.3   109  ILE109      0.0252
     36  CG1       26.2590   14.0100    1.4790 C.3   109  ILE109      0.0019
     37  CG2       27.0140   14.4520    3.8040 C.3   109  ILE109      0.0019
     38  CD1       25.0500   14.9080    1.4010 C.3   109  ILE109      0.0001
     39  N         31.0960   17.6910   -0.3670 N.3   112  HIS112     -0.1241
     40  CA        30.4460   18.3570   -1.4780 C.3   112  HIS112      0.1621
     41  C         30.1650   19.8050   -1.1370 C.2   112  HIS112      0.2264
     42  O         30.3150   20.2260    0.0300 O.2   112  HIS112     -0.2867
     43  CB        29.1210   17.6610   -1.8060 C.3   112  HIS112      0.0745
     44  CG        28.0980   17.8240   -0.7260 C.ar  112  HIS112      0.0817
     45  ND1       28.1730   17.1250    0.4500 N.ar  112  HIS112     -0.2268
     46  CD2       27.0520   18.6710   -0.5960 C.ar  112  HIS112      0.1154
     47  CE1       27.2210   17.5360    1.2670 C.ar  112  HIS112      0.1986
     48  NE2       26.5190   18.4750    0.6610 N.ar  112  HIS112     -0.2212
     49  N         26.7460   22.3970   -1.8640 N.3   114  ASP114     -0.1239
     50  CA        25.3980   22.5150   -2.3690 C.3   114  ASP114      0.1674
     51  C         25.2670   23.7480   -3.2720 C.2   114  ASP114      0.2266
     52  O         26.1900   24.5460   -3.3930 O.2   114  ASP114     -0.2867
     53  CB        24.4080   22.5530   -1.1980 C.3   114  ASP114      0.1410
     54  CG        24.4920   21.3070   -0.3650 C.2   114  ASP114      0.3668
     55  OD1       23.9550   20.2600   -0.7810 O.co2 114  ASP114     -0.2456
     56  OD2       25.1820   21.3670    0.6690 O.co2 114  ASP114     -0.2456
     57  N         20.5900   27.3240    4.6420 N.3   124  ARG124     -0.1245
     58  CA        20.2860   25.9940    5.1420 C.3   124  ARG124      0.1563
     59  C         20.5220   25.9430    6.6400 C.2   124  ARG124      0.2260
     60  O         21.6100   26.2760    7.1180 O.2   124  ARG124     -0.2867
     61  CB        21.1190   24.9520    4.4100 C.3   124  ARG124      0.0307
     62  CG        20.7200   23.5300    4.7360 C.3   124  ARG124      0.0489
     63  CD        21.1910   22.5370    3.6840 C.3   124  ARG124      0.2205
     64  NE        20.4080   22.7310    2.4800 N.pl3 124  ARG124     -0.0865
     65  CZ        20.6780   22.1950    1.2910 C.cat 124  ARG124      0.5346
     66  NH1       21.7440   21.4230    1.0980 N.pl3 124  ARG124      0.1354
     67  NH2       19.8940   22.4640    0.2560 N.pl3 124  ARG124      0.1354
     68  N         19.9010   23.5470   10.2680 N.3   126  HIS126     -0.1241
     69  CA        19.6520   22.2580   10.8750 C.3   126  HIS126      0.1621
     70  C         19.1900   22.4450   12.3190 C.2   126  HIS126      0.2264
     71  O         19.8390   23.1370   13.0820 O.2   126  HIS126     -0.2867
     72  CB        20.9400   21.4270   10.9350 C.3   126  HIS126      0.0745
     73  CG        21.4160   20.8820    9.6230 C.ar  126  HIS126      0.0817
     74  ND1       21.8980   19.5970    9.5260 N.ar  126  HIS126     -0.2268
     75  CD2       21.4990   21.4120    8.3830 C.ar  126  HIS126      0.1154
     76  CE1       22.2670   19.3580    8.2890 C.ar  126  HIS126      0.1986
     77  NE2       22.0380   20.4430    7.5780 N.ar  126  HIS126     -0.2212
     78  N         29.8230   16.6460   11.9400 N.3   137  ASN137     -0.1240
     79  CA        29.8010   17.3640   10.6650 C.3   137  ASN137      0.1653
     80  C         31.1800   17.9540   10.4450 C.2   137  ASN137      0.2266
     81  O         31.9240   18.1750   11.3950 O.2   137  ASN137     -0.2867
     82  CB        28.6950   18.4400   10.6720 C.3   137  ASN137      0.1155
     83  CG        27.3070   17.8260   10.5780 C.2   137  ASN137      0.2627
     84  OD1       26.9150   17.0410   11.4460 O.2   137  ASN137     -0.2716
     85  ND2       26.5860   18.1200    9.5070 N.am  137  ASN137     -0.0877
     86  N         24.4350   26.2970    8.4060 N.3   154  LEU154     -0.1245
     87  CA        25.5860   25.7150    7.7070 C.3   154  LEU154      0.1561
     88  C         25.8080   26.4240    6.4010 C.2   154  LEU154      0.2260
     89  O         24.9100   26.5180    5.5750 O.2   154  LEU154     -0.2867
     90  CB        25.4090   24.2250    7.4180 C.3   154  LEU154      0.0270
     91  CG        25.1240   23.2890    8.5830 C.3   154  LEU154      0.0019
     92  CD1       25.0580   21.8540    8.1020 C.3   154  LEU154      0.0001
     93  CD2       26.1220   23.4030    9.7340 C.3   154  LEU154      0.0001
     94  N         26.6110   25.9790    3.2080 N.3   156  ALA156     -0.1245
     95  CA        26.6640   24.8400    2.3370 C.3   156  ALA156      0.1562
     96  C         27.4220   25.1150    1.0340 C.2   156  ALA156      0.2260
     97  O         27.6100   24.2180    0.2350 O.2   156  ALA156     -0.2867
     98  CB        25.2620   24.3080    2.0880 C.3   156  ALA156      0.0290
     99  N         31.8330   20.4280    2.6320 N.3   160  HIS160     -0.1226
    100  CA        31.4180   19.9080    3.9200 C.3   160  HIS160      0.1752
    101  C         30.9290   18.4730    3.7850 C.2   160  HIS160      0.2597
    102  O         30.6330   17.9920    2.7010 O.2   160  HIS160     -0.2718
    103  CB        30.3140   20.7840    4.5220 C.3   160  HIS160      0.0759
    104  CG        29.0670   20.8680    3.7040 C.ar  160  HIS160      0.0818
    105  ND1       28.9520   21.6960    2.6070 N.ar  160  HIS160     -0.2268
    106  CD2       27.8910   20.2120    3.7990 C.ar  160  HIS160      0.1154
    107  CE1       27.7620   21.5270    2.0560 C.ar  160  HIS160      0.1986
    108  NE2       27.1020   20.6310    2.7640 N.ar  160  HIS160     -0.2212
    109  N         30.8150   17.8160    4.9350 N.am  161  SER161     -0.1938
    110  CA        30.3140   16.4430    5.0250 C.3   161  SER161      0.2055
    111  C         29.6390   16.2490    6.3860 C.2   161  SER161      0.2642
    112  O         29.6020   17.1570    7.1990 O.2   161  SER161     -0.2714
    113  CB        31.4720   15.4620    4.8120 C.3   161  SER161      0.2130
    114  OG        31.0670   14.0930    4.8140 O.3   161  SER161     -0.2179
    115  N         29.1060   15.0570    6.5890 N.am  162  ALA162     -0.1977
    116  CA        28.4040   14.6890    7.8190 C.3   162  ALA162      0.1597
    117  C         28.3930   13.1750    7.8870 C.2   162  ALA162      0.2287
    118  O         28.2450   12.5150    6.8570 O.2   162  ALA162     -0.2864
    119  CB        26.9800   15.1910    7.8120 C.3   162  ALA162      0.0319
    120  N         21.2190    8.9890   13.3590 N.3   170  ARG170     -0.1245
    121  CA        21.2540   10.4210   13.6360 C.3   170  ARG170      0.1563
    122  C         20.2290   11.1210   12.7720 C.2   170  ARG170      0.2260
    123  O         20.2750   11.0090   11.5300 O.2   170  ARG170     -0.2867
    124  CB        22.6460   10.9520   13.3400 C.3   170  ARG170      0.0307
    125  CG        22.8110   12.4270   13.6340 C.3   170  ARG170      0.0489
    126  CD        23.4300   13.1690   12.4710 C.3   170  ARG170      0.2205
    127  NE        22.4970   13.3170   11.3480 N.pl3 170  ARG170     -0.0865
    128  CZ        22.6890   14.1580   10.3330 C.cat 170  ARG170      0.5346
    129  NH1       21.7520   14.2920    9.3970 N.pl3 170  ARG170      0.1354
    130  NH2       23.8260   14.8370   10.2500 N.pl3 170  ARG170      0.1354
    131  N         16.0880   19.6550    8.6880 N.3   174  VAL174     -0.1245
    132  CA        16.8610   20.5430    7.8320 C.3   174  VAL174      0.1561
    133  C         15.8980   21.4010    7.0270 C.2   174  VAL174      0.2260
    134  O         15.0250   20.8910    6.3310 O.2   174  VAL174     -0.2867
    135  CB        17.8010   19.7420    6.9210 C.3   174  VAL174      0.0252
    136  CG1       18.5370   20.6750    5.9700 C.3   174  VAL174      0.0019
    137  CG2       18.7640   18.9010    7.7580 C.3   174  VAL174      0.0019
@<TRIPOS>BOND
     1    52    51    2
     2    51    50    1
     3    50    49    1
     4    50    53    1
     5    43    40    1
     6    43    44    1
     7    40    41    1
     8    40    39    1
     9    53    54    1
    10    41    42    2
    11    55    54   ar
    12    44    46   ar
    13    44    45   ar
    14    46    48   ar
    15    54    56   ar
    16    97    96    2
    17    67    65    1
    18    45    47   ar
    19    48    47   ar
    20    96    95    1
    21    66    65    1
    22    13    11   ar
    23    13    14   ar
    24    65    64    2
    25    38    36    1
    26    36    35    1
    27    11     8   ar
    28    14    12   ar
    29   107   105   ar
    30   107   108   ar
    31    98    95    1
    32     4     3    2
    33    33    32    1
    34    33    34    2
    35    95    94    1
    36    64    63    1
    37   105   104   ar
    38    99   100    1
    39   102   101    2
    40    32    35    1
    41    32    31    1
    42   108   106   ar
    43    35    37    1
    44     8    10   ar
    45     8     6   ar
    46    12    10   ar
    47     3     2    1
    48    10     9   ar
    49     5     6    1
    50     5     2    1
    51    63    62    1
    52   104   106   ar
    53   104   103    1
    54   101   100    1
    55   101   109   am
    56     6     7   ar
    57   100   103    1
    58     1     2    1
    59    61    62    1
    60    61    58    1
    61    57    58    1
    62     9     7   ar
    63   113   114    1
    64   113   110    1
    65   109   110    1
    66    22    20    1
    67   110   111    1
    68    58    59    1
    69    89    88    2
    70    20    19    1
    71   136   135    1
    72    21    19    1
    73   134   133    2
    74   111   115   am
    75   111   112    2
    76    88    87    1
    77   115   116    1
    78    59    60    2
    79    19    16    1
    80   118   117    2
    81   135   137    1
    82   135   132    1
    83   133   132    1
    84    16    15    1
    85    16    17    1
    86    90    87    1
    87    90    91    1
    88    77    76   ar
    89    77    75   ar
    90    87    86    1
    91   119   116    1
    92   116   117    1
    93   132   131    1
    94    92    91    1
    95    17    18    2
    96    76    74   ar
    97    28    30    1
    98    28    27    1
    99    29    27    1
   100    75    73   ar
   101    91    93    1
   102    24    27    1
   103    24    23    1
   104    24    25    1
   105   129   128    1
   106    85    83   am
   107    74    73   ar
   108    73    72    1
   109    25    26    2
   110   130   128    1
   111    68    69    1
   112   128   127    2
   113    80    79    1
   114    80    81    2
   115    83    82    1
   116    83    84    2
   117    79    82    1
   118    79    78    1
   119    69    72    1
   120    69    70    1
   121   127   126    1
   122   123   122    2
   123    70    71    2
   124   126   125    1
   125   122   121    1
   126   124   125    1
   127   124   121    1
   128   120   121    1
