@<TRIPOS>MOLECULE
tmp/4p7xA02.pdb
 79 74 0 0 0
SMALL
GASTEIGER

@<TRIPOS>ATOM
      1  N         19.2780   12.1870   -4.6130 N.3    38  TYR38      -0.1241
      2  CA        20.5990   12.5610   -4.0980 C.3    38  TYR38       0.1605
      3  C         21.3970   11.3870   -3.5220 C.2    38  TYR38       0.2264
      4  O         22.4030   11.5860   -2.8440 O.2    38  TYR38      -0.2867
      5  CB        20.5640   13.7690   -3.1330 C.3    38  TYR38       0.0534
      6  CG        19.8480   14.9650   -3.7170 C.ar   38  TYR38      -0.0201
      7  CD1       20.4150   15.7270   -4.7400 C.ar   38  TYR38      -0.0009
      8  CD2       18.5850   15.3160   -3.2910 C.ar   38  TYR38      -0.0009
      9  CE1       19.7450   16.8160   -5.2850 C.ar   38  TYR38       0.0417
     10  CE2       17.8970   16.3880   -3.8460 C.ar   38  TYR38       0.0417
     11  CZ        18.4720   17.1330   -4.8570 C.ar   38  TYR38       0.1957
     12  OH        17.7660   18.1930   -5.3820 O.3    38  TYR38      -0.2866
     13  N          7.4740   22.5480   -2.5600 N.3    54  GLN54      -0.1231
     14  CA         6.6770   23.5070   -3.3230 C.3    54  GLN54       0.1698
     15  C          5.2030   23.1410   -3.3940 C.2    54  GLN54       0.2592
     16  O          4.3350   23.9980   -3.2370 O.2    54  GLN54      -0.2718
     17  CB         7.1620   23.6060   -4.7790 C.3    54  GLN54       0.0381
     18  CG         8.5490   24.1780   -4.9460 C.3    54  GLN54       0.0905
     19  CD         8.8390   24.5340   -6.3940 C.2    54  GLN54       0.2608
     20  OE1        9.7630   24.0070   -7.0070 O.2    54  GLN54      -0.2717
     21  NE2        8.0390   25.4180   -6.9460 N.am   54  GLN54      -0.0878
     22  N          4.9470   21.8660   -3.6650 N.am   55  SER55      -0.1952
     23  CA         3.6140   21.3980   -4.0530 C.3    55  SER55       0.1924
     24  C          2.8240   20.7790   -2.9240 C.2    55  SER55       0.2314
     25  O          1.6230   20.6000   -3.0450 O.2    55  SER55      -0.2863
     26  CB         3.7200   20.3690   -5.1790 C.3    55  SER55       0.2116
     27  OG         4.3610   19.1770   -4.7400 O.3    55  SER55      -0.2180
     28  N          7.3670   15.0230   -5.0830 N.3    60  GLU60      -0.1245
     29  CA         8.3550   16.0770   -5.2640 C.3    60  GLU60       0.1567
     30  C          9.5000   15.8950   -4.2600 C.2    60  GLU60       0.2260
     31  O          9.3400   16.1280   -3.0550 O.2    60  GLU60      -0.2867
     32  CB         7.6970   17.4330   -5.1060 C.3    60  GLU60       0.0388
     33  CG         8.6850   18.5840   -5.1330 C.3    60  GLU60       0.1160
     34  CD         8.0860   19.9090   -4.7020 C.2    60  GLU60       0.3649
     35  OE1        6.8510   19.9980   -4.5550 O.co2  60  GLU60      -0.2457
     36  OE2        8.8710   20.8620   -4.4650 O.co2  60  GLU60      -0.2457
     37  N         13.1320   16.7840   -5.1690 N.3    62  ARG62      -0.1231
     38  CA        14.3570   17.5180   -5.5320 C.3    62  ARG62       0.1694
     39  C         14.1390   19.0060   -5.3240 C.2    62  ARG62       0.2592
     40  O         13.0070   19.5080   -5.4130 O.2    62  ARG62      -0.2718
     41  CB        14.7840   17.2270   -6.9840 C.3    62  ARG62       0.0321
     42  CG        15.1430   15.7690   -7.2230 C.3    62  ARG62       0.0489
     43  CD        15.6940   15.5380   -8.6220 C.3    62  ARG62       0.2205
     44  NE        17.0350   16.0840   -8.7930 N.pl3  62  ARG62      -0.0865
     45  CZ        18.1740   15.4380   -8.5180 C.cat  62  ARG62       0.5346
     46  NH1       18.1770   14.2120   -8.0030 N.pl3  62  ARG62       0.1354
     47  NH2       19.3330   16.0390   -8.7200 N.pl3  62  ARG62       0.1354
     48  N         15.2290   19.7060   -5.0480 N.am   63  VAL63      -0.1966
     49  CA        15.1820   21.1200   -4.7510 C.3    63  VAL63       0.1727
     50  C         15.5290   22.0070   -5.9490 C.2    63  VAL63       0.2616
     51  O         16.3930   21.6910   -6.7700 O.2    63  VAL63      -0.2715
     52  CB        16.0370   21.4750   -3.4970 C.3    63  VAL63       0.0290
     53  CG1       15.6120   20.6480   -2.3020 C.3    63  VAL63       0.0023
     54  CG2       17.5400   21.3550   -3.7040 C.3    63  VAL63       0.0023
     55  N         14.8460   23.1520   -5.9870 N.am   64  VAL64      -0.1977
     56  CA        15.0330   24.1890   -6.9760 C.3    64  VAL64       0.1596
     57  C         14.7180   25.5080   -6.2490 C.2    64  VAL64       0.2287
     58  O         13.8620   25.5280   -5.3580 O.2    64  VAL64      -0.2864
     59  CB        14.1190   23.9640   -8.2200 C.3    64  VAL64       0.0276
     60  CG1       12.6530   24.0350   -7.8590 C.3    64  VAL64       0.0022
     61  CG2       14.4320   24.9280   -9.3520 C.3    64  VAL64       0.0022
     62  N         23.8520   23.7290   -8.7930 N.3   117  GLU117     -0.1245
     63  CA        22.8410   23.5570   -9.8490 C.3   117  GLU117      0.1567
     64  C         21.7090   24.5770   -9.7670 C.2   117  GLU117      0.2260
     65  O         20.8320   24.5680  -10.6180 O.2   117  GLU117     -0.2867
     66  CB        22.2570   22.1430   -9.8370 C.3   117  GLU117      0.0388
     67  CG        21.2710   21.8320   -8.6890 C.3   117  GLU117      0.1160
     68  CD        21.8780   21.5500   -7.3310 C.2   117  GLU117      0.3649
     69  OE1       23.1220   21.5810   -7.1730 O.co2 117  GLU117     -0.2457
     70  OE2       21.0710   21.2630   -6.4170 O.co2 117  GLU117     -0.2457
     71  N         21.0200   21.5890  -13.2900 N.3   280  ALA280     -0.1231
     72  CA        19.7640   21.1700  -12.7030 C.3   280  ALA280      0.1694
     73  C         19.3800   19.7910  -13.2230 C.2   280  ALA280      0.2592
     74  O         19.3490   19.5530  -14.4610 O.2   280  ALA280     -0.2718
     75  CB        18.6690   22.1680  -13.0050 C.3   280  ALA280      0.0304
     76  N         19.1010   18.8970  -12.2710 N.am  281  GLY281     -0.1957
     77  CA        18.7110   17.5270  -12.5430 C.3   281  GLY281      0.1869
     78  C         19.8440   16.5690  -12.8350 C.2   281  GLY281      0.2309
     79  O         19.6060   15.3720  -13.0060 O.2   281  GLY281     -0.2863
@<TRIPOS>BOND
     1    74    73    2
     2    71    72    1
     3    73    72    1
     4    73    76   am
     5    79    78    2
     6    75    72    1
     7    78    77    1
     8    77    76    1
     9    65    64    2
    10    63    66    1
    11    63    64    1
    12    63    62    1
    13    66    67    1
    14    61    59    1
    15    44    43    1
    16    44    45    2
    17    47    45    1
    18    67    68    1
    19    43    42    1
    20    45    46    1
    21    59    60    1
    22    59    56    1
    23    68    69   ar
    24    68    70   ar
    25    42    41    1
    26    20    19    2
    27    41    38    1
    28    56    57    1
    29    56    55    1
    30    21    19   am
    31    51    50    2
    32    19    18    1
    33    57    58    2
    34    55    50   am
    35    50    49    1
    36    38    39    1
    37    38    37    1
    38    40    39    2
    39    12    11    1
    40    39    48   am
    41     9    11   ar
    42     9     7   ar
    43    29    32    1
    44    29    28    1
    45    29    30    1
    46    26    27    1
    47    26    23    1
    48    33    32    1
    49    33    34    1
    50    48    49    1
    51    18    17    1
    52    11    10   ar
    53    17    14    1
    54    49    52    1
    55     7     6   ar
    56    34    35   ar
    57    34    36   ar
    58     1     2    1
    59    30    31    2
    60     2     3    1
    61     2     5    1
    62    23    22    1
    63    23    24    1
    64    10     8   ar
    65     6     8   ar
    66     6     5    1
    67    54    52    1
    68    22    15   am
    69     3     4    2
    70    52    53    1
    71    15    14    1
    72    15    16    2
    73    14    13    1
    74    25    24    2
