@<TRIPOS>MOLECULE
tmp/4p7xA01.pdb
 140 134 0 0 0
SMALL
GASTEIGER

@<TRIPOS>ATOM
      1  N         19.2780   12.1870   -4.6130 N.3    38  TYR38      -0.1241
      2  CA        20.5990   12.5610   -4.0980 C.3    38  TYR38       0.1605
      3  C         21.3970   11.3870   -3.5220 C.2    38  TYR38       0.2264
      4  O         22.4030   11.5860   -2.8440 O.2    38  TYR38      -0.2867
      5  CB        20.5640   13.7690   -3.1330 C.3    38  TYR38       0.0534
      6  CG        19.8480   14.9650   -3.7170 C.ar   38  TYR38      -0.0201
      7  CD1       20.4150   15.7270   -4.7400 C.ar   38  TYR38      -0.0009
      8  CD2       18.5850   15.3160   -3.2910 C.ar   38  TYR38      -0.0009
      9  CE1       19.7450   16.8160   -5.2850 C.ar   38  TYR38       0.0417
     10  CE2       17.8970   16.3880   -3.8460 C.ar   38  TYR38       0.0417
     11  CZ        18.4720   17.1330   -4.8570 C.ar   38  TYR38       0.1957
     12  OH        17.7660   18.1930   -5.3820 O.3    38  TYR38      -0.2866
     13  N         25.0860   11.3260   -3.7570 N.3    41  PHE41      -0.1241
     14  CA        25.9110   11.9550   -2.7110 C.3    41  PHE41       0.1605
     15  C         26.1090   11.0800   -1.4770 C.2    41  PHE41       0.2264
     16  O         26.8740   11.4190   -0.6020 O.2    41  PHE41      -0.2867
     17  CB        25.2780   13.2840   -2.2980 C.3    41  PHE41       0.0534
     18  CG        25.2870   14.3450   -3.3780 C.ar   41  PHE41      -0.0203
     19  CD1       24.4100   14.2950   -4.4610 C.ar   41  PHE41      -0.0042
     20  CD2       26.1850   15.4060   -3.3020 C.ar   41  PHE41      -0.0042
     21  CE1       24.4260   15.2880   -5.4260 C.ar   41  PHE41      -0.0003
     22  CE2       26.1950   16.4000   -4.2660 C.ar   41  PHE41      -0.0003
     23  CZ        25.3210   16.3320   -5.3450 C.ar   41  PHE41      -0.0000
     24  N         22.8170    7.4580    4.0040 N.3    46  TRP46      -0.1241
     25  CA        22.5030    8.8640    4.1710 C.3    46  TRP46       0.1605
     26  C         21.2500    9.0470    3.3320 C.2    46  TRP46       0.2264
     27  O         21.2680    8.7100    2.1570 O.2    46  TRP46      -0.2867
     28  CB        23.6430    9.7630    3.6550 C.3    46  TRP46       0.0550
     29  CG        23.3360   11.2280    3.7950 C.ar   46  TRP46       0.0003
     30  CD1       23.6940   12.0080    4.8470 C.ar   46  TRP46       0.0946
     31  CD2       22.5260   12.0440    2.9540 C.ar   46  TRP46       0.0152
     32  NE1       23.1940   13.2740    4.7000 N.ar   46  TRP46      -0.2442
     33  CE2       22.4710   13.3230    3.5380 C.ar   46  TRP46       0.0810
     34  CE3       21.8840   11.8370    1.7280 C.ar   46  TRP46       0.0012
     35  CZ2       21.7460   14.3690    2.9730 C.ar   46  TRP46       0.0191
     36  CZ3       21.1730   12.8820    1.1610 C.ar   46  TRP46       0.0001
     37  CH2       21.1220   14.1300    1.7700 C.ar   46  TRP46       0.0015
     38  N         15.2290   19.7060   -5.0480 N.3    63  VAL63      -0.1245
     39  CA        15.1820   21.1200   -4.7510 C.3    63  VAL63       0.1561
     40  C         15.5290   22.0070   -5.9490 C.2    63  VAL63       0.2260
     41  O         16.3930   21.6910   -6.7700 O.2    63  VAL63      -0.2867
     42  CB        16.0370   21.4750   -3.4970 C.3    63  VAL63       0.0252
     43  CG1       15.6120   20.6480   -2.3020 C.3    63  VAL63       0.0019
     44  CG2       17.5400   21.3550   -3.7040 C.3    63  VAL63       0.0019
     45  N         12.9840   19.0970    5.5300 N.3    99  ARG99      -0.1245
     46  CA        13.3070   17.6900    5.3900 C.3    99  ARG99       0.1563
     47  C         13.7680   17.1030    6.7070 C.2    99  ARG99       0.2260
     48  O         14.2750   17.8310    7.5670 O.2    99  ARG99      -0.2867
     49  CB        14.4280   17.5060    4.3430 C.3    99  ARG99       0.0307
     50  CG        13.9830   17.8020    2.9320 C.3    99  ARG99       0.0489
     51  CD        15.1300   17.6890    1.9520 C.3    99  ARG99       0.2205
     52  NE        15.9210   18.9090    1.9030 N.pl3  99  ARG99      -0.0865
     53  CZ        16.9070   19.0850    1.0380 C.cat  99  ARG99       0.5346
     54  NH1       17.2430   18.1010    0.2240 N.pl3  99  ARG99       0.1354
     55  NH2       17.5420   20.2370    0.9750 N.pl3  99  ARG99       0.1354
     56  N         16.7010   14.4980    7.6960 N.3   101  ILE101     -0.1245
     57  CA        17.8830   13.8640    7.1430 C.3   101  ILE101      0.1561
     58  C         18.4440   12.8950    8.1760 C.2   101  ILE101      0.2260
     59  O         18.7820   13.3000    9.3090 O.2   101  ILE101     -0.2867
     60  CB        18.9610   14.8860    6.6990 C.3   101  ILE101      0.0252
     61  CG1       18.3120   15.9290    5.7490 C.3   101  ILE101      0.0019
     62  CG2       20.1260   14.1380    6.0620 C.3   101  ILE101      0.0019
     63  CD1       19.2700   16.7890    4.9650 C.3   101  ILE101      0.0001
     64  N         27.6430   11.5420    4.0390 N.3   109  ILE109     -0.1245
     65  CA        27.4560   12.1840    2.7430 C.3   109  ILE109      0.1561
     66  C         28.8410   12.5420    2.1870 C.2   109  ILE109      0.2260
     67  O         29.7300   12.9530    2.9100 O.2   109  ILE109     -0.2867
     68  CB        26.4940   13.4010    2.8480 C.3   109  ILE109      0.0252
     69  CG1       26.2590   14.0100    1.4790 C.3   109  ILE109      0.0019
     70  CG2       27.0140   14.4520    3.8040 C.3   109  ILE109      0.0019
     71  CD1       25.0500   14.9080    1.4010 C.3   109  ILE109      0.0001
     72  N         31.0960   17.6910   -0.3670 N.3   112  HIS112     -0.1241
     73  CA        30.4460   18.3570   -1.4780 C.3   112  HIS112      0.1621
     74  C         30.1650   19.8050   -1.1370 C.2   112  HIS112      0.2264
     75  O         30.3150   20.2260    0.0300 O.2   112  HIS112     -0.2867
     76  CB        29.1210   17.6610   -1.8060 C.3   112  HIS112      0.0745
     77  CG        28.0980   17.8240   -0.7260 C.ar  112  HIS112      0.0817
     78  ND1       28.1730   17.1250    0.4500 N.ar  112  HIS112     -0.2268
     79  CD2       27.0520   18.6710   -0.5960 C.ar  112  HIS112      0.1154
     80  CE1       27.2210   17.5360    1.2670 C.ar  112  HIS112      0.1986
     81  NE2       26.5190   18.4750    0.6610 N.ar  112  HIS112     -0.2212
     82  N         26.7460   22.3970   -1.8640 N.3   114  ASP114     -0.1225
     83  CA        25.3980   22.5150   -2.3690 C.3   114  ASP114      0.1805
     84  C         25.2670   23.7480   -3.2720 C.2   114  ASP114      0.2597
     85  O         26.1900   24.5460   -3.3930 O.2   114  ASP114     -0.2718
     86  CB        24.4080   22.5530   -1.1980 C.3   114  ASP114      0.1424
     87  CG        24.4920   21.3070   -0.3650 C.2   114  ASP114      0.3668
     88  OD1       23.9550   20.2600   -0.7810 O.co2 114  ASP114     -0.2456
     89  OD2       25.1820   21.3670    0.6690 O.co2 114  ASP114     -0.2456
     90  N         24.1230   23.8310   -3.9440 N.am  115  TYR115     -0.1976
     91  CA        23.6360   25.0110   -4.6480 C.3   115  TYR115      0.1639
     92  C         24.2390   25.2130   -6.0360 C.2   115  TYR115      0.2290
     93  O         23.8160   26.1220   -6.7540 O.2   115  TYR115     -0.2864
     94  CB        23.8120   26.3070   -3.8430 C.3   115  TYR115      0.0560
     95  CG        23.3680   26.2520   -2.3830 C.ar  115  TYR115     -0.0198
     96  CD1       22.3230   25.4360   -1.9570 C.ar  115  TYR115     -0.0009
     97  CD2       23.9890   27.0410   -1.4350 C.ar  115  TYR115     -0.0009
     98  CE1       21.9250   25.4250   -0.6290 C.ar  115  TYR115      0.0417
     99  CE2       23.6090   27.0320   -0.1290 C.ar  115  TYR115      0.0417
    100  CZ        22.5780   26.2040    0.2770 C.ar  115  TYR115      0.1957
    101  OH        22.1620   26.1500    1.5810 O.3   115  TYR115     -0.2866
    102  N         23.8520   23.7290   -8.7930 N.3   117  GLU117     -0.1231
    103  CA        22.8410   23.5570   -9.8490 C.3   117  GLU117      0.1699
    104  C         21.7090   24.5770   -9.7670 C.2   117  GLU117      0.2592
    105  O         20.8320   24.5680  -10.6180 O.2   117  GLU117     -0.2718
    106  CB        22.2570   22.1430   -9.8370 C.3   117  GLU117      0.0402
    107  CG        21.2710   21.8320   -8.6890 C.3   117  GLU117      0.1161
    108  CD        21.8780   21.5500   -7.3310 C.2   117  GLU117      0.3649
    109  OE1       23.1220   21.5810   -7.1730 O.co2 117  GLU117     -0.2457
    110  OE2       21.0710   21.2630   -6.4170 O.co2 117  GLU117     -0.2457
    111  N         21.7110   25.4190   -8.7350 N.am  118  LEU118     -0.1980
    112  CA        20.6150   26.3440   -8.4940 C.3   118  LEU118      0.1596
    113  C         20.8680   27.7190   -9.0770 C.2   118  LEU118      0.2287
    114  O         22.0260   28.1580   -9.2190 O.2   118  LEU118     -0.2864
    115  CB        20.4170   26.5180   -6.9890 C.3   118  LEU118      0.0297
    116  CG        20.1000   25.2790   -6.1710 C.3   118  LEU118      0.0022
    117  CD1       19.9370   25.6660   -4.7040 C.3   118  LEU118      0.0001
    118  CD2       18.8640   24.5590   -6.6930 C.3   118  LEU118      0.0001
    119  N         20.5900   27.3240    4.6420 N.3   124  ARG124     -0.1245
    120  CA        20.2860   25.9940    5.1420 C.3   124  ARG124      0.1563
    121  C         20.5220   25.9430    6.6400 C.2   124  ARG124      0.2260
    122  O         21.6100   26.2760    7.1180 O.2   124  ARG124     -0.2867
    123  CB        21.1190   24.9520    4.4100 C.3   124  ARG124      0.0307
    124  CG        20.7200   23.5300    4.7360 C.3   124  ARG124      0.0489
    125  CD        21.1910   22.5370    3.6840 C.3   124  ARG124      0.2205
    126  NE        20.4080   22.7310    2.4800 N.pl3 124  ARG124     -0.0865
    127  CZ        20.6780   22.1950    1.2910 C.cat 124  ARG124      0.5346
    128  NH1       21.7440   21.4230    1.0980 N.pl3 124  ARG124      0.1354
    129  NH2       19.8940   22.4640    0.2560 N.pl3 124  ARG124      0.1354
    130  N         27.4220   21.9100  -11.5240 N.3   278  ARG278     -0.1245
    131  CA        26.4220   20.9070  -11.8290 C.3   278  ARG278      0.1563
    132  C         25.2620   21.5820  -12.5020 C.2   278  ARG278      0.2260
    133  O         24.9750   22.7370  -12.1870 O.2   278  ARG278     -0.2867
    134  CB        25.8090   20.3020  -10.5500 C.3   278  ARG278      0.0307
    135  CG        26.7270   19.5390   -9.6740 C.3   278  ARG278      0.0489
    136  CD        25.9400   18.7920   -8.6310 C.3   278  ARG278      0.2205
    137  NE        25.4060   19.6290   -7.5470 N.pl3 278  ARG278     -0.0865
    138  CZ        26.0690   19.9780   -6.4450 C.cat 278  ARG278      0.5346
    139  NH1       27.3150   19.5870   -6.2320 N.pl3 278  ARG278      0.1354
    140  NH2       25.4730   20.7340   -5.5340 N.pl3 278  ARG278      0.1354
@<TRIPOS>BOND
     1   132   133    2
     2   132   131    1
     3   131   130    1
     4   131   134    1
     5   105   104    2
     6   134   135    1
     7   103   106    1
     8   103   104    1
     9   103   102    1
    10   106   107    1
    11   104   111   am
    12   135   136    1
    13   114   113    2
    14   113   112    1
    15   111   112    1
    16   107   108    1
    17   136   137    1
    18   112   115    1
    19   137   138    2
    20   108   109   ar
    21   108   110   ar
    22   115   116    1
    23    41    40    2
    24    93    92    2
    25   118   116    1
    26   138   139    1
    27   138   140    1
    28   116   117    1
    29    92    91    1
    30    40    39    1
    31    21    23   ar
    32    21    19   ar
    33    12    11    1
    34    23    22   ar
    35     9    11   ar
    36     9     7   ar
    37    38    39    1
    38    11    10   ar
    39    39    42    1
    40     7     6   ar
    41    91    90    1
    42    91    94    1
    43     1     2    1
    44    19    18   ar
    45    22    20   ar
    46     2     3    1
    47     2     5    1
    48    90    84   am
    49    10     8   ar
    50    94    95    1
    51    13    14    1
    52     6     8   ar
    53     6     5    1
    54    44    42    1
    55     3     4    2
    56    42    43    1
    57    85    84    2
    58    18    20   ar
    59    18    17    1
    60    84    83    1
    61    14    17    1
    62    14    15    1
    63    95    96   ar
    64    95    97   ar
    65    83    82    1
    66    83    86    1
    67    96    98   ar
    68    76    73    1
    69    76    77    1
    70    73    74    1
    71    73    72    1
    72    15    16    2
    73    97    99   ar
    74    86    87    1
    75    74    75    2
    76    88    87   ar
    77    77    79   ar
    78    77    78   ar
    79    98   100   ar
    80    79    81   ar
    81    87    89   ar
    82    99   100   ar
    83    54    53    1
    84   129   127    1
    85   100   101    1
    86    78    80   ar
    87    81    80   ar
    88    55    53    1
    89    53    52    2
    90   128   127    1
    91    36    34   ar
    92    36    37   ar
    93   127   126    2
    94    71    69    1
    95    69    68    1
    96    34    31   ar
    97    37    35   ar
    98    52    51    1
    99    51    50    1
   100    27    26    2
   101    66    65    1
   102    66    67    2
   103   126   125    1
   104    65    68    1
   105    65    64    1
   106    68    70    1
   107    50    49    1
   108    31    33   ar
   109    31    29   ar
   110    35    33   ar
   111    26    25    1
   112    33    32   ar
   113    28    29    1
   114    28    25    1
   115   125   124    1
   116    29    30   ar
   117    24    25    1
   118    49    46    1
   119   123   124    1
   120   123   120    1
   121   119   120    1
   122    32    30   ar
   123    63    61    1
   124   120   121    1
   125    46    45    1
   126    46    47    1
   127    61    60    1
   128    62    60    1
   129   121   122    2
   130    60    57    1
   131    47    48    2
   132    57    56    1
   133    57    58    1
   134    58    59    2
