@<TRIPOS>MOLECULE
tmp/4p83B00.pdb
 147 141 0 0 0
SMALL
GASTEIGER

@<TRIPOS>ATOM
      1  N        -45.7720   -6.5500   -6.2210 N.3    37  LYS37      -0.1245
      2  CA       -46.6100   -7.7380   -6.4610 C.3    37  LYS37       0.1561
      3  C        -48.0300   -7.2970   -6.6190 C.2    37  LYS37       0.2260
      4  O        -48.3010   -6.0930   -6.7630 O.2    37  LYS37      -0.2867
      5  CB       -46.5200   -8.7110   -5.3410 C.3    37  LYS37       0.0271
      6  CG       -45.5440   -9.8280   -5.5550 C.3    37  LYS37       0.0035
      7  CD       -44.8920  -10.4450   -4.2890 C.3    37  LYS37       0.0206
      8  CE       -45.7990  -11.3750   -3.5030 C.3    37  LYS37       0.1093
      9  NZ       -45.0540  -12.1210   -2.4600 N.3    37  LYS37      -0.1314
     10  N        -50.7670   -7.5590   -4.5700 N.3    39  ARG39      -0.1245
     11  CA       -51.4170   -6.8960   -3.4580 C.3    39  ARG39       0.1563
     12  C        -50.7350   -5.5940   -3.0880 C.2    39  ARG39       0.2260
     13  O        -51.4140   -4.6390   -2.7330 O.2    39  ARG39      -0.2867
     14  CB       -51.5280   -7.8320   -2.2850 C.3    39  ARG39       0.0307
     15  CG       -52.8900   -8.4540   -2.2480 C.3    39  ARG39       0.0489
     16  CD       -52.8890   -9.8550   -1.7180 C.3    39  ARG39       0.2205
     17  NE       -54.0150  -10.5880   -2.2650 N.pl3  39  ARG39      -0.0865
     18  CZ       -53.8940  -11.6050   -3.0990 C.cat  39  ARG39       0.5346
     19  NH1      -52.6880  -12.0450   -3.4490 N.pl3  39  ARG39       0.1354
     20  NH2      -54.9670  -12.2020   -3.5750 N.pl3  39  ARG39       0.1354
     21  N        -41.4280  -16.1400   -7.4780 N.3    68  LEU68      -0.1245
     22  CA       -40.6900  -17.0410   -6.6470 C.3    68  LEU68       0.1561
     23  C        -40.2670  -18.3180   -7.3880 C.2    68  LEU68       0.2260
     24  O        -41.0910  -18.9880   -8.0190 O.2    68  LEU68      -0.2867
     25  CB       -41.5810  -17.3640   -5.4710 C.3    68  LEU68       0.0270
     26  CG       -42.1620  -16.1300   -4.7520 C.3    68  LEU68       0.0019
     27  CD1      -43.3530  -15.5240   -5.5000 C.3    68  LEU68       0.0001
     28  CD2      -42.6060  -16.5900   -3.3590 C.3    68  LEU68       0.0001
     29  N        -36.6240  -14.8060   -3.5530 N.3    73  PRO73      -0.2116
     30  CA       -37.4820  -14.1340   -4.5160 C.3    73  PRO73       0.1372
     31  C        -36.7540  -13.3470   -5.5800 C.2    73  PRO73       0.2244
     32  O        -35.7110  -12.7660   -5.3200 O.2    73  PRO73      -0.2868
     33  CB       -38.2750  -13.1620   -3.6580 C.3    73  PRO73       0.0268
     34  CG       -37.3860  -12.8500   -2.5200 C.3    73  PRO73       0.0207
     35  CD       -36.6200  -14.0990   -2.2540 C.3    73  PRO73       0.0892
     36  N        -45.8630   -2.8240    0.1920 N.3    93  ASP93      -0.1225
     37  CA       -46.1940   -4.2110    0.1120 C.3    93  ASP93       0.1805
     38  C        -47.2280   -4.5410    1.1510 C.2    93  ASP93       0.2598
     39  O        -47.5500   -3.7720    2.0250 O.2    93  ASP93      -0.2718
     40  CB       -44.9810   -5.1110    0.2710 C.3    93  ASP93       0.1424
     41  CG       -45.2050   -6.5010   -0.3580 C.2    93  ASP93       0.3668
     42  OD1      -46.3230   -6.7380   -0.8500 O.co2  93  ASP93      -0.2456
     43  OD2      -44.2920   -7.3670   -0.3940 O.co2  93  ASP93      -0.2456
     44  N        -47.7660   -5.7140    0.9780 N.am   94  ASP94      -0.1960
     45  CA       -48.7240   -6.3560    1.8020 C.3    94  ASP94       0.1840
     46  C        -48.2960   -6.6730    3.2480 C.2    94  ASP94       0.2622
     47  O        -48.9260   -6.2870    4.2070 O.2    94  ASP94      -0.2715
     48  CB       -48.7880   -7.7420    1.0810 C.3    94  ASP94       0.1450
     49  CG       -50.0610   -8.3060    1.0660 C.2    94  ASP94       0.3671
     50  OD1      -51.0200   -7.5750    1.2950 O.co2  94  ASP94      -0.2456
     51  OD2      -50.1130   -9.5270    0.8320 O.co2  94  ASP94      -0.2456
     52  N        -47.2290   -7.4370    3.3710 N.am   95  VAL95      -0.1963
     53  CA       -46.8160   -8.0310    4.6190 C.3    95  VAL95       0.1727
     54  C        -45.3150   -8.0510    4.6290 C.2    95  VAL95       0.2616
     55  O        -44.6890   -8.4250    3.6210 O.2    95  VAL95      -0.2715
     56  CB       -47.2500   -9.4780    4.7270 C.3    95  VAL95       0.0290
     57  CG1      -46.7400  -10.0700    6.0200 C.3    95  VAL95       0.0023
     58  CG2      -48.7590   -9.6190    4.6710 C.3    95  VAL95       0.0023
     59  N        -44.7220   -7.6240    5.7390 N.am   96  LEU96      -0.1963
     60  CA       -43.2870   -7.6900    5.9100 C.3    96  LEU96       0.1728
     61  C        -43.0410   -8.8640    6.7930 C.2    96  LEU96       0.2616
     62  O        -43.5900   -8.9530    7.8690 O.2    96  LEU96      -0.2715
     63  CB       -42.7750   -6.4320    6.5580 C.3    96  LEU96       0.0311
     64  CG       -41.4160   -5.8050    6.3250 C.3    96  LEU96       0.0022
     65  CD1      -40.7770   -5.2060    7.5630 C.3    96  LEU96       0.0001
     66  CD2      -40.4510   -6.6870    5.5750 C.3    96  LEU96       0.0001
     67  N        -42.2280   -9.7930    6.3070 N.am   97  PHE97      -0.1960
     68  CA       -41.9260  -11.0260    7.0180 C.3    97  PHE97       0.1771
     69  C        -40.4350  -11.1070    7.1950 C.2    97  PHE97       0.2620
     70  O        -39.8900  -10.3360    7.9710 O.2    97  PHE97      -0.2715
     71  CB       -42.5440  -12.1980    6.2420 C.3    97  PHE97       0.0574
     72  CG       -42.3620  -13.5450    6.8680 C.ar   97  PHE97      -0.0200
     73  CD1      -42.2650  -13.6940    8.2080 C.ar   97  PHE97      -0.0042
     74  CD2      -42.3460  -14.6780    6.0610 C.ar   97  PHE97      -0.0042
     75  CE1      -42.1170  -14.9420    8.7760 C.ar   97  PHE97      -0.0003
     76  CE2      -42.2140  -15.9270    6.6080 C.ar   97  PHE97      -0.0003
     77  CZ       -42.1130  -16.0630    7.9760 C.ar   97  PHE97      -0.0000
     78  N        -39.7390  -11.9320    6.4100 N.am   98  THR98      -0.1937
     79  CA       -38.2780  -11.9830    6.4640 C.3    98  THR98       0.2028
     80  C        -37.5800  -10.7290    5.8990 C.2    98  THR98       0.2643
     81  O        -36.4550  -10.4260    6.2820 O.2    98  THR98      -0.2714
     82  CB       -37.7410  -13.2310    5.7290 C.3    98  THR98       0.1808
     83  OG1      -37.9920  -13.1170    4.3290 O.3    98  THR98      -0.2208
     84  CG2      -38.4400  -14.4320    6.2340 C.3    98  THR98       0.0379
     85  N        -38.2480   -9.9880    5.0240 N.am   99  GLY99      -0.1939
     86  CA       -37.6750   -8.8030    4.4160 C.3    99  GLY99       0.2014
     87  C        -37.0180   -9.0800    3.0870 C.2    99  GLY99       0.2639
     88  O        -36.4990   -8.1610    2.4550 O.2    99  GLY99      -0.2714
     89  N        -37.0230  -10.3370    2.6520 N.am  100  ARG100     -0.1963
     90  CA       -36.3180  -10.7030    1.4030 C.3   100  ARG100      0.1729
     91  C        -36.9870  -10.1810    0.1310 C.2   100  ARG100      0.2617
     92  O        -36.3180   -9.8080   -0.7930 O.2   100  ARG100     -0.2715
     93  CB       -36.1190  -12.2120    1.3290 C.3   100  ARG100      0.0348
     94  CG       -35.1650  -12.7200    2.4050 C.3   100  ARG100      0.0492
     95  CD       -35.1500  -14.2250    2.4090 C.3   100  ARG100      0.2205
     96  NE       -34.3850  -14.7460    3.5110 N.pl3 100  ARG100     -0.0865
     97  CZ       -33.0580  -14.9280    3.5170 C.cat 100  ARG100      0.5346
     98  NH1      -32.3110  -14.6250    2.4650 N.pl3 100  ARG100      0.1354
     99  NH2      -32.4720  -15.4470    4.6180 N.pl3 100  ARG100      0.1354
    100  N        -38.3030  -10.1460    0.1060 N.am  101  THR101     -0.1937
    101  CA       -39.0160   -9.5570   -1.0110 C.3   101  THR101      0.2028
    102  C        -38.7460   -8.0770   -1.1210 C.2   101  THR101      0.2642
    103  O        -38.5980   -7.5660   -2.2130 O.2   101  THR101     -0.2714
    104  CB       -40.5320   -9.7380   -0.8610 C.3   101  THR101      0.1808
    105  OG1      -40.8040  -11.1070   -0.6670 O.3   101  THR101     -0.2208
    106  CG2      -41.2430   -9.2610   -2.0550 C.3   101  THR101      0.0379
    107  N        -38.7400   -7.3690    0.0000 N.am  102  VAL102     -0.1977
    108  CA       -38.4910   -5.9320   -0.0270 C.3   102  VAL102      0.1596
    109  C        -37.0880   -5.6450   -0.4990 C.2   102  VAL102      0.2287
    110  O        -36.8720   -4.6620   -1.1480 O.2   102  VAL102     -0.2864
    111  CB       -38.7750   -5.2800    1.3660 C.3   102  VAL102      0.0276
    112  CG1      -38.0670   -3.9410    1.5590 C.3   102  VAL102      0.0022
    113  CG2      -40.2630   -5.1160    1.5440 C.3   102  VAL102      0.0022
    114  N        -45.1850   -8.6920   10.4340 N.3   126  ARG126     -0.1245
    115  CA       -45.3920   -9.8790   11.2440 C.3   126  ARG126      0.1563
    116  C        -44.1430  -10.3960   11.9140 C.2   126  ARG126      0.2260
    117  O        -44.1660  -11.4750   12.5000 O.2   126  ARG126     -0.2867
    118  CB       -46.0260  -10.9850   10.4000 C.3   126  ARG126      0.0307
    119  CG       -45.1420  -11.5860    9.2950 C.3   126  ARG126      0.0489
    120  CD       -45.7320  -12.8720    8.7920 C.3   126  ARG126      0.2205
    121  NE       -45.5120  -13.9610    9.7470 N.pl3 126  ARG126     -0.0865
    122  CZ       -45.4950  -15.2380    9.4190 C.cat 126  ARG126      0.5346
    123  NH1      -45.7300  -15.5730    8.1330 N.pl3 126  ARG126      0.1354
    124  NH2      -45.2410  -16.1610   10.3450 N.pl3 126  ARG126      0.1354
    125  N        -49.2610  -18.0140    9.0960 N.3   149  LEU149     -0.1231
    126  CA       -49.2590  -17.3280    7.8310 C.3   149  LEU149      0.1693
    127  C        -50.2290  -16.1500    7.9140 C.2   149  LEU149      0.2591
    128  O        -51.2890  -16.2400    8.5330 O.2   149  LEU149     -0.2718
    129  CB       -49.7440  -18.3030    6.7750 C.3   149  LEU149      0.0284
    130  CG       -49.7930  -17.7450    5.3620 C.3   149  LEU149      0.0019
    131  CD1      -48.4220  -17.4690    4.7480 C.3   149  LEU149      0.0001
    132  CD2      -50.5580  -18.7440    4.5140 C.3   149  LEU149      0.0001
    133  N        -49.8800  -15.0570    7.2730 N.am  150  ILE150     -0.1980
    134  CA       -50.7610  -13.8960    7.2540 C.3   150  ILE150      0.1595
    135  C        -51.3570  -13.7720    5.8800 C.2   150  ILE150      0.2287
    136  O        -50.6270  -13.8490    4.8980 O.2   150  ILE150     -0.2864
    137  CB       -49.9960  -12.6200    7.6050 C.3   150  ILE150      0.0276
    138  CG1      -49.5830  -12.6330    9.0670 C.3   150  ILE150      0.0022
    139  CG2      -50.8330  -11.3810    7.3360 C.3   150  ILE150      0.0022
    140  CD1      -50.7080  -12.3780   10.0640 C.3   150  ILE150      0.0001
    141  N        -53.7650  -11.4980    3.3490 N.3   152  VAL152     -0.1245
    142  CA       -54.4410  -10.2480    3.1250 C.3   152  VAL152      0.1561
    143  C        -55.3430  -10.3790    1.9030 C.2   152  VAL152      0.2260
    144  O        -54.8980  -10.7920    0.8400 O.2   152  VAL152     -0.2867
    145  CB       -53.4560   -9.1230    2.8560 C.3   152  VAL152      0.0252
    146  CG1      -54.1880   -7.8060    2.5600 C.3   152  VAL152      0.0019
    147  CG2      -52.5250   -8.9590    4.0440 C.3   152  VAL152      0.0019
@<TRIPOS>BOND
     1    24    23    2
     2    21    22    1
     3    23    22    1
     4     4     3    2
     5    22    25    1
     6     3     2    1
     7     2     1    1
     8     2     5    1
     9    31    32    2
    10    31    30    1
    11     6     5    1
    12     6     7    1
    13    27    26    1
    14    25    26    1
    15    26    28    1
    16    10    11    1
    17    30    33    1
    18    30    29    1
    19     7     8    1
    20    33    34    1
    21    20    18    1
    22    29    35    1
    23     8     9    1
    24    11    12    1
    25    11    14    1
    26    19    18    1
    27    18    17    2
    28    12    13    2
    29    34    35    1
    30    14    15    1
    31    17    16    1
    32    15    16    1
    33   103   102    2
    34   106   104    1
    35   110   109    2
    36   102   101    1
    37   102   107   am
    38   101   104    1
    39   101   100    1
    40   104   105    1
    41    42    41   ar
    42    92    91    2
    43   109   108    1
    44    43    41   ar
    45    41    40    1
    46   108   107    1
    47   108   111    1
    48   100    91   am
    49    37    36    1
    50    37    40    1
    51    37    38    1
    52    91    90    1
    53    51    49   ar
    54   144   143    2
    55    44    38   am
    56    44    45    1
    57    49    48    1
    58    49    50   ar
    59    48    45    1
    60    38    39    2
    61    93    90    1
    62    93    94    1
    63   111   113    1
    64   111   112    1
    65    90    89    1
    66    45    46    1
    67   143   142    1
    68    94    95    1
    69    95    96    1
    70    88    87    2
    71    98    97    1
    72   146   145    1
    73    89    87   am
    74   145   142    1
    75   145   147    1
    76    87    86    1
    77   142   141    1
    78    46    52   am
    79    46    47    2
    80    52    53    1
    81    96    97    2
    82    97    99    1
    83    55    54    2
    84    83    82    1
    85    86    85    1
    86   132   130    1
    87    53    54    1
    88    53    56    1
    89    54    59   am
    90    58    56    1
    91    56    57    1
    92   131   130    1
    93   136   135    2
    94    85    80   am
    95   130   129    1
    96    66    64    1
    97    82    84    1
    98    82    79    1
    99    59    60    1
   100   135   134    1
   101    80    81    2
   102    80    79    1
   103    60    63    1
   104    60    61    1
   105    74    76   ar
   106    74    72   ar
   107    71    72    1
   108    71    68    1
   109    67    61   am
   110    67    68    1
   111    64    63    1
   112    64    65    1
   113    78    79    1
   114    78    69   am
   115    76    77   ar
   116   129   126    1
   117    61    62    2
   118    72    73   ar
   119    68    69    1
   120    69    70    2
   121   134   133    1
   122   134   137    1
   123   133   127   am
   124   139   137    1
   125   137   138    1
   126   126   127    1
   127   126   125    1
   128   127   128    2
   129    77    75   ar
   130   123   122    1
   131    73    75   ar
   132   120   119    1
   133   120   121    1
   134   138   140    1
   135   119   118    1
   136   122   121    2
   137   122   124    1
   138   118   115    1
   139   114   115    1
   140   115   116    1
   141   116   117    2
