@<TRIPOS>MOLECULE
tmp/4p85A00.pdb
 111 106 0 0 0
SMALL
GASTEIGER

@<TRIPOS>ATOM
      1  N        -35.8830   -8.5470   -0.3250 N.3    58  TYR58      -0.1227
      2  CA       -35.2150   -8.7640   -1.6100 C.3    58  TYR58       0.1736
      3  C        -33.7360   -9.1890   -1.4500 C.2    58  TYR58       0.2596
      4  O        -33.4490  -10.2040   -0.7990 O.2    58  TYR58      -0.2718
      5  CB       -35.4320   -7.5780   -2.5700 C.3    58  TYR58       0.0548
      6  CG       -36.8360   -7.6190   -3.1760 C.ar   58  TYR58      -0.0200
      7  CD1      -37.0750   -8.2290   -4.4170 C.ar   58  TYR58      -0.0009
      8  CD2      -37.9250   -7.1170   -2.4780 C.ar   58  TYR58      -0.0009
      9  CE1      -38.3560   -8.2850   -4.9610 C.ar   58  TYR58       0.0417
     10  CE2      -39.2060   -7.1840   -2.9960 C.ar   58  TYR58       0.0417
     11  CZ       -39.4160   -7.7690   -4.2370 C.ar   58  TYR58       0.1957
     12  OH       -40.6890   -7.8070   -4.7480 O.3    58  TYR58      -0.2866
     13  N        -32.8010   -8.4190   -2.0030 N.am   59  SER59      -0.1952
     14  CA       -31.4100   -8.8860   -2.0960 C.3    59  SER59       0.1924
     15  C        -30.6460   -8.9290   -0.7740 C.2    59  SER59       0.2314
     16  O        -29.5030   -9.3790   -0.7270 O.2    59  SER59      -0.2863
     17  CB       -30.6400   -8.0890   -3.1370 C.3    59  SER59       0.2116
     18  OG       -31.0850   -8.4790   -4.4170 O.3    59  SER59      -0.2180
     19  N        -28.7490  -10.9870  -14.9940 N.3   124  TYR124     -0.1241
     20  CA       -30.0000  -10.8160  -14.2670 C.3   124  TYR124      0.1605
     21  C        -31.0450  -10.3060  -15.2670 C.2   124  TYR124      0.2264
     22  O        -30.7260   -9.5360  -16.1810 O.2   124  TYR124     -0.2867
     23  CB       -29.8330   -9.7810  -13.1440 C.3   124  TYR124      0.0534
     24  CG       -29.9660  -10.2830  -11.7190 C.ar  124  TYR124     -0.0201
     25  CD1      -30.9340  -11.2360  -11.3750 C.ar  124  TYR124     -0.0009
     26  CD2      -29.1620   -9.7660  -10.7020 C.ar  124  TYR124     -0.0009
     27  CE1      -31.0800  -11.6840  -10.0660 C.ar  124  TYR124      0.0417
     28  CE2      -29.3120  -10.2020   -9.3670 C.ar  124  TYR124      0.0417
     29  CZ       -30.2770  -11.1600   -9.0680 C.ar  124  TYR124      0.1957
     30  OH       -30.4400  -11.6060   -7.7660 O.3   124  TYR124     -0.2866
     31  N        -33.2660   -8.0450  -15.1330 N.3   126  PHE126     -0.1241
     32  CA       -33.4770   -6.5940  -15.1460 C.3   126  PHE126      0.1605
     33  C        -32.2840   -5.8040  -15.6610 C.2   126  PHE126      0.2264
     34  O        -32.3160   -4.5660  -15.7350 O.2   126  PHE126     -0.2867
     35  CB       -33.8730   -6.0970  -13.7350 C.3   126  PHE126      0.0534
     36  CG       -32.8450   -6.4130  -12.6420 C.ar  126  PHE126     -0.0203
     37  CD1      -32.9640   -7.5530  -11.8480 C.ar  126  PHE126     -0.0042
     38  CD2      -31.7770   -5.5460  -12.4020 C.ar  126  PHE126     -0.0042
     39  CE1      -32.0240   -7.8250  -10.8290 C.ar  126  PHE126     -0.0003
     40  CE2      -30.8390   -5.8120  -11.3970 C.ar  126  PHE126     -0.0003
     41  CZ       -30.9690   -6.9600  -10.6140 C.ar  126  PHE126     -0.0000
     42  N        -36.9520  -14.4930  -13.1050 N.3   142  ILE142     -0.1245
     43  CA       -37.4560  -13.7790  -11.9250 C.3   142  ILE142      0.1561
     44  C        -38.9860  -13.7750  -11.8810 C.2   142  ILE142      0.2260
     45  O        -39.6040  -13.8890  -10.8170 O.2   142  ILE142     -0.2867
     46  CB       -36.9980  -12.3180  -11.8810 C.3   142  ILE142      0.0252
     47  CG1      -35.4770  -12.2030  -11.9840 C.3   142  ILE142      0.0019
     48  CG2      -37.5310  -11.6260  -10.6180 C.3   142  ILE142      0.0019
     49  CD1      -34.7440  -12.8150  -10.8730 C.3   142  ILE142      0.0001
     50  N        -23.1150   -8.0700  -10.9990 N.3   171  TYR171     -0.1241
     51  CA       -24.1060   -8.4430  -10.0010 C.3   171  TYR171      0.1605
     52  C        -25.1510   -9.2930  -10.7080 C.2   171  TYR171      0.2264
     53  O        -25.6240   -8.9240  -11.7720 O.2   171  TYR171     -0.2867
     54  CB       -24.7270   -7.1890   -9.3910 C.3   171  TYR171      0.0534
     55  CG       -25.6470   -7.4460   -8.2200 C.ar  171  TYR171     -0.0201
     56  CD1      -25.1470   -7.8840   -7.0020 C.ar  171  TYR171     -0.0009
     57  CD2      -27.0170   -7.2310   -8.3290 C.ar  171  TYR171     -0.0009
     58  CE1      -25.9910   -8.0990   -5.9330 C.ar  171  TYR171      0.0417
     59  CE2      -27.8650   -7.4480   -7.2600 C.ar  171  TYR171      0.0417
     60  CZ       -27.3410   -7.8620   -6.0700 C.ar  171  TYR171      0.1957
     61  OH       -28.1840   -8.0830   -5.0090 O.3   171  TYR171     -0.2866
     62  N        -40.7150    0.2980  -10.1970 N.3   226  ARG226     -0.1245
     63  CA       -39.6400   -0.5340  -10.7610 C.3   226  ARG226      0.1563
     64  C        -40.0790   -1.9870  -10.9650 C.2   226  ARG226      0.2260
     65  O        -40.7230   -2.5920  -10.1060 O.2   226  ARG226     -0.2867
     66  CB       -38.3750   -0.4830   -9.9040 C.3   226  ARG226      0.0307
     67  CG       -37.2150   -1.3090  -10.4650 C.3   226  ARG226      0.0489
     68  CD       -35.9710   -1.2440   -9.5710 C.3   226  ARG226      0.2205
     69  NE       -34.8390   -1.9250  -10.1780 N.pl3 226  ARG226     -0.0865
     70  CZ       -33.6950   -2.2000   -9.5560 C.cat 226  ARG226      0.5346
     71  NH1      -33.5190   -1.8770   -8.2750 N.pl3 226  ARG226      0.1354
     72  NH2      -32.7310   -2.8280  -10.2080 N.pl3 226  ARG226      0.1354
     73  N        -38.5670   -5.8380  -11.7730 N.3   228  LEU228     -0.1245
     74  CA       -37.3290   -6.6090  -11.7870 C.3   228  LEU228      0.1561
     75  C        -37.3050   -7.6560  -12.9010 C.2   228  LEU228      0.2260
     76  O        -36.3520   -8.4150  -13.0110 O.2   228  LEU228     -0.2867
     77  CB       -37.0680   -7.2500  -10.4150 C.3   228  LEU228      0.0270
     78  CG       -36.9710   -6.2230   -9.2750 C.3   228  LEU228      0.0019
     79  CD1      -36.6790   -6.8770   -7.9150 C.3   228  LEU228      0.0001
     80  CD2      -35.9240   -5.1650   -9.5860 C.3   228  LEU228      0.0001
     81  N        -31.1100  -15.1440   -4.1700 N.3   261  GLY261     -0.1210
     82  CA       -30.8570  -13.7110   -4.3770 C.3   261  GLY261      0.1956
     83  C        -31.9540  -12.7570   -3.9170 C.2   261  GLY261      0.2611
     84  O        -31.7700  -11.5440   -3.9300 O.2   261  GLY261     -0.2717
     85  N        -33.0920  -13.3120   -3.5100 N.am  262  HIS262     -0.1975
     86  CA       -34.2470  -12.5140   -3.0650 C.3   262  HIS262      0.1656
     87  C        -35.2750  -13.4680   -2.5120 C.2   262  HIS262      0.2291
     88  O        -35.0340  -14.6850   -2.5010 O.2   262  HIS262     -0.2864
     89  CB       -34.8260  -11.6480   -4.2080 C.3   262  HIS262      0.0771
     90  CG       -35.5060  -12.4210   -5.2970 C.ar  262  HIS262      0.0820
     91  ND1      -34.8130  -13.1230   -6.2630 N.ar  262  HIS262     -0.2267
     92  CD2      -36.8210  -12.5620   -5.6000 C.ar  262  HIS262      0.1154
     93  CE1      -35.6750  -13.6910   -7.0930 C.ar  262  HIS262      0.1986
     94  NE2      -36.9000  -13.3630   -6.7150 N.ar  262  HIS262     -0.2212
     95  N        -23.9370   -1.2080  -10.5490 N.3   312  ILE312     -0.1245
     96  CA       -25.0360   -2.0940  -10.8900 C.3   312  ILE312      0.1561
     97  C        -26.0390   -1.3150  -11.7680 C.2   312  ILE312      0.2260
     98  O        -26.6030   -0.2980  -11.3370 O.2   312  ILE312     -0.2867
     99  CB       -25.7100   -2.6830   -9.6100 C.3   312  ILE312      0.0252
    100  CG1      -24.6810   -3.4710   -8.7750 C.3   312  ILE312      0.0019
    101  CG2      -26.9300   -3.5580   -9.9670 C.3   312  ILE312      0.0019
    102  CD1      -25.2150   -4.0260   -7.4110 C.3   312  ILE312      0.0001
    103  N        -31.6310   -4.2540   -0.4620 N.3   348  GLY348     -0.1210
    104  CA       -32.6300   -4.9020   -1.3110 C.3   348  GLY348      0.1956
    105  C        -33.3570   -3.8710   -2.1360 C.2   348  GLY348      0.2611
    106  O        -33.4280   -2.7020   -1.7550 O.2   348  GLY348     -0.2717
    107  N        -33.9070   -4.3240   -3.2580 N.am  349  ALA349     -0.1979
    108  CA       -34.5950   -3.4950   -4.2380 C.3   349  ALA349      0.1597
    109  C        -35.8190   -2.7260   -3.7220 C.2   349  ALA349      0.2287
    110  O        -36.2180   -1.7390   -4.3290 O.2   349  ALA349     -0.2864
    111  CB       -35.0040   -4.3630   -5.4000 C.3   349  ALA349      0.0319
@<TRIPOS>BOND
     1    22    21    2
     2    34    33    2
     3    33    32    1
     4    21    20    1
     5    32    31    1
     6    32    35    1
     7    19    20    1
     8    20    23    1
     9    35    36    1
    10    23    24    1
    11    42    43    1
    12    76    75    2
    13    75    74    1
    14    36    38   ar
    15    36    37   ar
    16    38    40   ar
    17    47    46    1
    18    47    49    1
    19    43    44    1
    20    43    46    1
    21    44    45    2
    22    46    48    1
    23    37    39   ar
    24    74    73    1
    25    74    77    1
    26    53    52    2
    27    97    98    2
    28    97    96    1
    29    24    25   ar
    30    24    26   ar
    31    40    41   ar
    32    25    27   ar
    33    50    51    1
    34    64    63    1
    35    64    65    2
    36    96    95    1
    37    96    99    1
    38    39    41   ar
    39    63    62    1
    40    63    66    1
    41    52    51    1
    42    26    28   ar
    43    67    66    1
    44    67    68    1
    45    77    78    1
    46    72    70    1
    47    69    68    1
    48    69    70    2
    49    27    29   ar
    50    51    54    1
    51   101    99    1
    52    99   100    1
    53    80    78    1
    54    70    71    1
    55    54    55    1
    56    28    29   ar
    57    78    79    1
    58    29    30    1
    59   100   102    1
    60    57    55   ar
    61    57    59   ar
    62    55    56   ar
    63    59    60   ar
    64    93    94   ar
    65    93    91   ar
    66    56    58   ar
    67    94    92   ar
    68    91    90   ar
    69    60    58   ar
    70    60    61    1
    71    92    90   ar
    72   111   108    1
    73    90    89    1
    74     9     7   ar
    75     9    11   ar
    76    12    11    1
    77    18    17    1
    78     7     6   ar
    79    82    81    1
    80    82    83    1
    81   110   109    2
    82   108   109    1
    83   108   107    1
    84    11    10   ar
    85    89    86    1
    86    84    83    2
    87    83    85   am
    88    85    86    1
    89   107   105   am
    90     6     5    1
    91     6     8   ar
    92    17    14    1
    93    86    87    1
    94    10     8   ar
    95     5     2    1
    96    87    88    2
    97   105   106    2
    98   105   104    1
    99    14    13    1
   100    14    15    1
   101    13     3   am
   102     2     3    1
   103     2     1    1
   104     3     4    2
   105   104   103    1
   106    15    16    2
