@<TRIPOS>MOLECULE
tmp/4p86C00.pdb
 85 82 0 0 0
SMALL
GASTEIGER

@<TRIPOS>ATOM
      1  N        -15.3040   59.0690   37.0490 N.3     2  LYS2       -0.1231
      2  CA       -15.3150   57.6680   37.4680 C.3     2  LYS2        0.1693
      3  C        -14.7400   56.7630   36.3670 C.2     2  LYS2        0.2592
      4  O        -14.0670   55.7950   36.6780 O.2     2  LYS2       -0.2718
      5  CB       -16.6950   57.2070   37.8800 C.3     2  LYS2        0.0285
      6  CG       -16.6920   56.2340   39.0650 C.3     2  LYS2        0.0035
      7  CD       -17.3500   54.8950   38.7200 C.3     2  LYS2        0.0206
      8  CE       -18.3320   54.5460   39.8430 C.3     2  LYS2        0.1093
      9  NZ       -18.4740   53.0980   40.1730 N.3     2  LYS2       -0.1314
     10  N        -14.9870   57.0790   35.0870 N.am    3  ALA3       -0.1966
     11  CA       -14.3020   56.3810   33.9810 C.3     3  ALA3        0.1728
     12  C        -14.5680   56.9480   32.5710 C.2     3  ALA3        0.2616
     13  O        -15.7020   57.2560   32.2420 O.2     3  ALA3       -0.2715
     14  CB       -14.7370   54.9370   34.0000 C.3     3  ALA3        0.0334
     15  N        -13.5530   57.0420   31.7200 N.am    4  VAL4       -0.1963
     16  CA       -13.8300   57.2380   30.2840 C.3     4  VAL4        0.1727
     17  C        -14.1950   55.8840   29.6860 C.2     4  VAL4        0.2616
     18  O        -13.6980   54.8330   30.1030 O.2     4  VAL4       -0.2715
     19  CB       -12.7390   57.9640   29.4720 C.3     4  VAL4        0.0290
     20  CG1      -12.0100   58.9590   30.3470 C.3     4  VAL4        0.0023
     21  CG2      -11.7790   57.0020   28.8010 C.3     4  VAL4        0.0023
     22  N        -15.1040   55.9150   28.7320 N.am    5  ILE5       -0.1977
     23  CA       -15.4550   54.7090   28.0380 C.3     5  ILE5        0.1596
     24  C        -15.1640   54.7840   26.5520 C.2     5  ILE5        0.2287
     25  O        -14.7210   53.7960   25.9960 O.2     5  ILE5       -0.2864
     26  CB       -16.9060   54.3410   28.2950 C.3     5  ILE5        0.0276
     27  CG1      -17.1450   54.1630   29.7920 C.3     5  ILE5        0.0022
     28  CG2      -17.2920   53.0490   27.6370 C.3     5  ILE5        0.0022
     29  CD1      -18.5330   54.4910   30.1550 C.3     5  ILE5        0.0001
     30  N        -21.9290   51.1630   22.5050 N.3   146  LYS146     -0.1231
     31  CA       -21.2930   50.4720   23.6400 C.3   146  LYS146      0.1693
     32  C        -22.2630   50.1740   24.7820 C.2   146  LYS146      0.2592
     33  O        -22.9920   51.0650   25.2240 O.2   146  LYS146     -0.2718
     34  CB       -20.1570   51.3560   24.1440 C.3   146  LYS146      0.0285
     35  CG       -19.2940   50.6880   25.2150 C.3   146  LYS146      0.0035
     36  CD       -17.9980   50.1210   24.6740 C.3   146  LYS146      0.0206
     37  CE       -17.2520   49.3830   25.7670 C.3   146  LYS146      0.1093
     38  NZ       -16.4610   48.3010   25.1720 N.3   146  LYS146     -0.1314
     39  N        -22.3170   48.9150   25.1910 N.am  147  ASN147     -0.1960
     40  CA       -23.2160   48.4490   26.1930 C.3   147  ASN147      0.1819
     41  C        -22.5610   48.6340   27.5410 C.2   147  ASN147      0.2621
     42  O        -21.6020   47.9750   27.8500 O.2   147  ASN147     -0.2715
     43  CB       -23.5660   47.0090   25.8800 C.3   147  ASN147      0.1195
     44  CG       -24.4800   46.3710   26.9500 C.2   147  ASN147      0.2630
     45  OD1      -25.3080   47.0310   27.5290 O.2   147  ASN147     -0.2716
     46  ND2      -24.2790   45.0890   27.2550 N.am  147  ASN147     -0.0877
     47  N        -23.0680   49.5570   28.3670 N.am  148  ILE148     -0.1964
     48  CA       -22.3720   50.0340   29.5870 C.3   148  ILE148      0.1712
     49  C        -23.2330   49.9620   30.9070 C.2   148  ILE148      0.2458
     50  O        -23.7610   50.9820   31.3440 O.2   148  ILE148     -0.2730
     51  CB       -21.9240   51.4830   29.3720 C.3   148  ILE148      0.0289
     52  CG1      -20.9990   51.6030   28.1640 C.3   148  ILE148      0.0022
     53  CG2      -21.1560   51.9610   30.5620 C.3   148  ILE148      0.0023
     54  CD1      -20.5090   53.0480   27.8790 C.3   148  ILE148      0.0001
     55  N        -23.4560   48.7650   31.4910 N.am  149  PRO149     -0.2716
     56  CA       -24.3200   48.7510   32.7080 C.3   149  PRO149      0.1536
     57  C        -23.7690   49.6960   33.7740 C.2   149  PRO149      0.2599
     58  O        -22.5410   49.8320   33.9110 O.2   149  PRO149     -0.2715
     59  CB       -24.2550   47.2920   33.1670 C.3   149  PRO149      0.0310
     60  CG       -23.9460   46.5310   31.9420 C.3   149  PRO149      0.0237
     61  CD       -23.0360   47.4010   31.1330 C.3   149  PRO149      0.0939
     62  N        -24.6520   50.4100   34.4730 N.am  150  THR150     -0.1951
     63  CA       -24.2000   51.4020   35.4710 C.3   150  THR150      0.1897
     64  C        -25.0540   51.3350   36.7230 C.2   150  THR150      0.2313
     65  O        -26.1590   50.7410   36.7420 O.2   150  THR150     -0.2863
     66  CB       -24.3570   52.8480   34.9950 C.3   150  THR150      0.1794
     67  OG1      -25.7000   53.0210   34.5470 O.3   150  THR150     -0.2208
     68  CG2      -23.4300   53.1720   33.8800 C.3   150  THR150      0.0378
     69  N        -24.4620   56.7280   39.2640 N.3   154  GLU154     -0.1245
     70  CA       -23.5100   57.3790   38.2980 C.3   154  GLU154      0.1567
     71  C        -24.3270   57.9610   37.1090 C.2   154  GLU154      0.2260
     72  O        -25.5360   57.6550   36.9380 O.2   154  GLU154     -0.2867
     73  CB       -22.2960   56.4380   37.8910 C.3   154  GLU154      0.0388
     74  CG       -22.7060   54.9660   37.7860 C.3   154  GLU154      0.1160
     75  CD       -21.5900   53.9120   37.7180 C.2   154  GLU154      0.3649
     76  OE1      -22.0440   52.7500   37.4950 O.co2 154  GLU154     -0.2457
     77  OE2      -20.3530   54.1760   37.8350 O.co2 154  GLU154     -0.2457
     78  N        -18.0610   58.1250   32.3400 N.3   171  ILE171     -0.1245
     79  CA       -18.9320   57.9200   33.4890 C.3   171  ILE171      0.1561
     80  C        -18.5230   58.8620   34.6210 C.2   171  ILE171      0.2260
     81  O        -17.3660   59.2130   34.7620 O.2   171  ILE171     -0.2867
     82  CB       -18.9640   56.4420   33.9940 C.3   171  ILE171      0.0252
     83  CG1      -19.5030   55.5160   32.9040 C.3   171  ILE171      0.0019
     84  CG2      -19.9250   56.3070   35.1840 C.3   171  ILE171      0.0019
     85  CD1      -19.5080   54.0360   33.2360 C.3   171  ILE171      0.0001
@<TRIPOS>BOND
     1    30    31    1
     2    31    34    1
     3    31    32    1
     4    34    35    1
     5    36    35    1
     6    36    37    1
     7    32    39   am
     8    32    33    2
     9    38    37    1
    10    39    40    1
    11    43    40    1
    12    43    44    1
    13    25    24    2
    14    40    41    1
    15    24    23    1
    16    44    46   am
    17    44    45    2
    18    41    42    2
    19    41    47   am
    20    28    26    1
    21    54    52    1
    22    23    26    1
    23    23    22    1
    24    52    51    1
    25    26    27    1
    26    47    48    1
    27    22    17   am
    28    21    19    1
    29    51    48    1
    30    51    53    1
    31    19    16    1
    32    19    20    1
    33    48    49    1
    34    17    18    2
    35    17    16    1
    36    27    29    1
    37    16    15    1
    38    49    50    2
    39    49    55   am
    40    61    55    1
    41    61    60    1
    42    55    56    1
    43    15    12   am
    44    60    59    1
    45    13    12    2
    46    78    79    1
    47    12    11    1
    48    56    59    1
    49    56    57    1
    50    83    85    1
    51    83    82    1
    52    79    82    1
    53    79    80    1
    54    57    58    2
    55    57    62   am
    56    68    66    1
    57    11    14    1
    58    11    10    1
    59    82    84    1
    60    62    63    1
    61    67    66    1
    62    80    81    2
    63    66    63    1
    64    10     3   am
    65    63    64    1
    66     3     4    2
    67     3     2    1
    68    64    65    2
    69    72    71    2
    70     1     2    1
    71    71    70    1
    72     2     5    1
    73    76    75   ar
    74    75    74    1
    75    75    77   ar
    76    74    73    1
    77     5     6    1
    78    73    70    1
    79    70    69    1
    80     7     6    1
    81     7     8    1
    82     8     9    1
