@<TRIPOS>MOLECULE
tmp/4p87B00.pdb
 134 130 0 0 0
SMALL
GASTEIGER

@<TRIPOS>ATOM
      1  N          8.6270   35.6950   49.7700 N.3    56  TYR56      -0.1227
      2  CA         8.0970   35.2500   48.4930 C.3    56  TYR56       0.1736
      3  C          7.0740   34.1330   48.6690 C.2    56  TYR56       0.2596
      4  O          6.0570   34.3480   49.3340 O.2    56  TYR56      -0.2718
      5  CB         9.2390   34.8760   47.5450 C.3    56  TYR56       0.0548
      6  CG         9.8510   36.1040   46.9010 C.ar   56  TYR56      -0.0200
      7  CD1       10.8620   36.8290   47.5450 C.ar   56  TYR56      -0.0009
      8  CD2        9.3950   36.5610   45.6690 C.ar   56  TYR56      -0.0009
      9  CE1       11.4090   37.9700   46.9590 C.ar   56  TYR56       0.0417
     10  CE2        9.9380   37.7000   45.0740 C.ar   56  TYR56       0.0417
     11  CZ        10.9360   38.3940   45.7220 C.ar   56  TYR56       0.1957
     12  OH        11.4680   39.5070   45.1250 O.3    56  TYR56      -0.2866
     13  N          7.3330   32.9380   48.1190 N.am   57  SER57      -0.1952
     14  CA         6.2710   31.8980   48.0900 C.3    57  SER57       0.1924
     15  C          5.9690   31.2530   49.4350 C.2    57  SER57       0.2314
     16  O          5.1010   30.3830   49.5450 O.2    57  SER57      -0.2863
     17  CB         6.5570   30.8380   47.0060 C.3    57  SER57       0.2116
     18  OG         6.5660   31.4640   45.7220 O.3    57  SER57      -0.2180
     19  N          2.5250   31.5110   50.1910 N.3    60  LYS60      -0.1245
     20  CA         1.4700   30.5740   49.7110 C.3    60  LYS60       0.1561
     21  C          0.8300   29.7140   50.8030 C.2    60  LYS60       0.2260
     22  O         -0.3780   29.5300   50.8170 O.2    60  LYS60      -0.2867
     23  CB         1.9870   29.6800   48.5750 C.3    60  LYS60       0.0271
     24  CG         2.2850   30.4320   47.2820 C.3    60  LYS60       0.0035
     25  CD         2.7560   29.4490   46.2050 C.3    60  LYS60       0.0206
     26  CE         2.7030   30.0850   44.8290 C.3    60  LYS60       0.1093
     27  NZ         3.7960   31.1050   44.6770 N.3    60  LYS60      -0.1314
     28  N          3.5230   30.6720   35.1090 N.3   122  TYR122     -0.1241
     29  CA         4.2300   31.7710   35.7760 C.3   122  TYR122      0.1605
     30  C          5.0640   32.4940   34.7350 C.2   122  TYR122      0.2264
     31  O          5.5740   31.8610   33.8000 O.2   122  TYR122     -0.2867
     32  CB         5.1600   31.2470   36.8900 C.3   122  TYR122      0.0534
     33  CG         4.7370   31.5790   38.3050 C.ar  122  TYR122     -0.0201
     34  CD1        4.3080   32.8540   38.6490 C.ar  122  TYR122     -0.0009
     35  CD2        4.7650   30.6100   39.2960 C.ar  122  TYR122     -0.0009
     36  CE1        3.9150   33.1590   39.9610 C.ar  122  TYR122      0.0417
     37  CE2        4.3860   30.8960   40.5980 C.ar  122  TYR122      0.0417
     38  CZ         3.9680   32.1710   40.9250 C.ar  122  TYR122      0.1957
     39  OH         3.5890   32.4410   42.2240 O.3   122  TYR122     -0.2866
     40  N          8.0360   33.5120   34.6710 N.3   124  PHE124     -0.1241
     41  CA         9.4510   33.1270   34.5620 C.3   124  PHE124      0.1605
     42  C          9.6140   31.6710   34.1180 C.2   124  PHE124      0.2264
     43  O         10.7210   31.1370   34.1140 O.2   124  PHE124     -0.2867
     44  CB        10.1600   33.3330   35.9160 C.3   124  PHE124      0.0534
     45  CG         9.3980   32.7700   37.0910 C.ar  124  PHE124     -0.0203
     46  CD1        9.4460   31.4210   37.3850 C.ar  124  PHE124     -0.0042
     47  CD2        8.6200   33.5950   37.8940 C.ar  124  PHE124     -0.0042
     48  CE1        8.7460   30.9050   38.4650 C.ar  124  PHE124     -0.0003
     49  CE2        7.9200   33.0760   38.9760 C.ar  124  PHE124     -0.0003
     50  CZ         7.9740   31.7290   39.2490 C.ar  124  PHE124     -0.0000
     51  N          3.7510   39.6380   36.9870 N.3   140  ILE140     -0.1245
     52  CA         4.6440   39.6910   38.1540 C.3   140  ILE140      0.1561
     53  C          5.3730   41.0350   38.2600 C.2   140  ILE140      0.2260
     54  O          5.5240   41.5930   39.3540 O.2   140  ILE140     -0.2867
     55  CB         5.7250   38.5770   38.0770 C.3   140  ILE140      0.0252
     56  CG1        5.0890   37.1960   38.2290 C.3   140  ILE140      0.0019
     57  CG2        6.7990   38.7920   39.1390 C.3   140  ILE140      0.0019
     58  CD1        4.1460   37.0890   39.4040 C.3   140  ILE140      0.0001
     59  N          3.4190   24.3120   39.0120 N.3   169  TYR169     -0.1241
     60  CA         3.5710   25.4340   39.9200 C.3   169  TYR169      0.1605
     61  C          3.2680   26.7440   39.2090 C.2   169  TYR169      0.2264
     62  O          3.7580   26.9990   38.1080 O.2   169  TYR169     -0.2867
     63  CB         4.9940   25.4260   40.4480 C.3   169  TYR169      0.0534
     64  CG         5.2590   26.3410   41.6220 C.ar  169  TYR169     -0.0201
     65  CD1        4.6750   26.1070   42.8620 C.ar  169  TYR169     -0.0009
     66  CD2        6.1570   27.3910   41.5000 C.ar  169  TYR169     -0.0009
     67  CE1        4.9530   26.9240   43.9550 C.ar  169  TYR169      0.0417
     68  CE2        6.4570   28.2090   42.5890 C.ar  169  TYR169      0.0417
     69  CZ         5.8550   27.9670   43.7990 C.ar  169  TYR169      0.1957
     70  OH         6.1660   28.7770   44.8650 O.3   169  TYR169     -0.2866
     71  N         18.6920   36.0590   39.6690 N.3   224  ARG224     -0.1245
     72  CA        17.6350   35.2640   39.0150 C.3   224  ARG224      0.1563
     73  C         16.7630   36.0920   38.0560 C.2   224  ARG224      0.2260
     74  O         16.5390   37.2700   38.2860 O.2   224  ARG224     -0.2867
     75  CB        16.7670   34.5290   40.0430 C.3   224  ARG224      0.0307
     76  CG        15.6580   33.6890   39.4170 C.3   224  ARG224      0.0489
     77  CD        14.8600   32.9200   40.4560 C.3   224  ARG224      0.2205
     78  NE        13.6400   32.3630   39.8790 N.pl3 224  ARG224     -0.0865
     79  CZ        12.6640   31.7960   40.5820 C.cat 224  ARG224      0.5346
     80  NH1       12.7580   31.7140   41.9040 N.pl3 224  ARG224      0.1354
     81  NH2       11.5870   31.3160   39.9650 N.pl3 224  ARG224      0.1354
     82  N         13.4540   36.8110   37.1540 N.3   226  LEU226     -0.1245
     83  CA        12.0760   36.6500   37.6490 C.3   226  LEU226      0.1561
     84  C         10.9340   37.0410   36.6860 C.2   226  LEU226      0.2260
     85  O          9.8430   36.4750   36.7620 O.2   226  LEU226     -0.2867
     86  CB        11.8930   37.3560   38.9910 C.3   226  LEU226      0.0270
     87  CG        12.5260   36.6690   40.2080 C.3   226  LEU226      0.0019
     88  CD1       12.4490   37.5890   41.4160 C.3   226  LEU226      0.0001
     89  CD2       11.8360   35.3320   40.4940 C.3   226  LEU226      0.0001
     90  N          8.1910   45.3270   41.2760 N.3   247  SER247     -0.1217
     91  CA         7.5090   44.0550   41.5380 C.3   247  SER247      0.1889
     92  C          7.1910   43.8190   43.0160 C.2   247  SER247      0.2288
     93  O          6.3600   42.9820   43.3390 O.2   247  SER247     -0.2866
     94  CB         8.3900   42.8920   41.0600 C.3   247  SER247      0.2089
     95  OG         9.5330   42.7620   41.9030 O.3   247  SER247     -0.2183
     96  N          3.0960   35.5800   46.6260 N.3   260  HIS260     -0.1241
     97  CA         4.3240   36.2220   47.0950 C.3   260  HIS260      0.1621
     98  C          3.9490   37.5990   47.6230 C.2   260  HIS260      0.2264
     99  O          2.7740   37.9620   47.6120 O.2   260  HIS260     -0.2867
    100  CB         5.3260   36.3840   45.9470 C.3   260  HIS260      0.0745
    101  CG         4.9050   37.3970   44.9230 C.ar  260  HIS260      0.0817
    102  ND1        3.9090   37.1500   44.0010 N.ar  260  HIS260     -0.2268
    103  CD2        5.3430   38.6600   44.6770 C.ar  260  HIS260      0.1154
    104  CE1        3.7460   38.2190   43.2370 C.ar  260  HIS260      0.1986
    105  NE2        4.6000   39.1510   43.6290 N.ar  260  HIS260     -0.2212
    106  N          7.0160   24.7980   52.7570 N.3   344  TRP344     -0.1227
    107  CA         7.3380   25.3680   51.4570 C.3   344  TRP344      0.1737
    108  C          8.5700   26.2740   51.5900 C.2   344  TRP344      0.2596
    109  O          9.3310   26.1630   52.5550 O.2   344  TRP344     -0.2718
    110  CB         6.1230   26.0720   50.7990 C.3   344  TRP344      0.0564
    111  CG         6.3060   26.1850   49.2900 C.ar  344  TRP344      0.0003
    112  CD1        6.0580   27.2760   48.5120 C.ar  344  TRP344      0.0946
    113  CD2        6.8300   25.1740   48.4110 C.ar  344  TRP344      0.0152
    114  NE1        6.3900   27.0090   47.1970 N.ar  344  TRP344     -0.2442
    115  CE2        6.8580   25.7220   47.1110 C.ar  344  TRP344      0.0810
    116  CE3        7.2580   23.8500   48.5960 C.ar  344  TRP344      0.0012
    117  CZ2        7.3030   25.0000   46.0000 C.ar  344  TRP344      0.0191
    118  CZ3        7.7210   23.1350   47.4920 C.ar  344  TRP344      0.0001
    119  CH2        7.7410   23.7160   46.2120 C.ar  344  TRP344      0.0015
    120  N          8.7760   27.1360   50.6100 N.am  345  SER345     -0.1938
    121  CA         9.9820   27.9360   50.5170 C.3   345  SER345      0.2055
    122  C          9.6650   29.1460   49.6660 C.2   345  SER345      0.2644
    123  O          8.5660   29.2660   49.1290 O.2   345  SER345     -0.2714
    124  CB        11.0960   27.1370   49.8430 C.3   345  SER345      0.2130
    125  OG        10.6160   26.6230   48.6130 O.3   345  SER345     -0.2179
    126  N         10.6370   30.0400   49.5360 N.am  346  GLY346     -0.1939
    127  CA        10.4680   31.2480   48.7490 C.3   346  GLY346      0.2014
    128  C         11.6570   31.4510   47.8320 C.2   346  GLY346      0.2638
    129  O         12.7430   30.9240   48.0710 O.2   346  GLY346     -0.2714
    130  N         11.4270   32.2240   46.7790 N.am  347  ALA347     -0.1977
    131  CA        12.4040   32.5460   45.7590 C.3   347  ALA347      0.1597
    132  C         13.7190   33.1110   46.3200 C.2   347  ALA347      0.2287
    133  O         14.7880   32.8900   45.7370 O.2   347  ALA347     -0.2864
    134  CB        11.7810   33.5680   44.7620 C.3   347  ALA347      0.0319
@<TRIPOS>BOND
     1    31    30    2
     2    43    42    2
     3    42    41    1
     4    41    40    1
     5    41    44    1
     6    30    29    1
     7    28    29    1
     8    29    32    1
     9    44    45    1
    10    84    85    2
    11    84    83    1
    12    32    33    1
    13    51    52    1
    14    45    46   ar
    15    45    47   ar
    16    82    83    1
    17    46    48   ar
    18    83    86    1
    19    47    49   ar
    20    73    74    2
    21    73    72    1
    22    55    52    1
    23    55    56    1
    24    55    57    1
    25    62    61    2
    26    52    53    1
    27    56    58    1
    28    53    54    2
    29    33    34   ar
    30    33    35   ar
    31    48    50   ar
    32    34    36   ar
    33    49    50   ar
    34    86    87    1
    35    59    60    1
    36    72    71    1
    37    72    75    1
    38    61    60    1
    39    35    37   ar
    40    76    75    1
    41    76    77    1
    42    78    77    1
    43    78    79    2
    44    60    63    1
    45    36    38   ar
    46    81    79    1
    47    87    89    1
    48    87    88    1
    49    63    64    1
    50    79    80    1
    51    37    38   ar
    52    38    39    1
    53    94    91    1
    54    94    95    1
    55    90    91    1
    56    66    64   ar
    57    66    68   ar
    58    91    92    1
    59    64    65   ar
    60    68    69   ar
    61    65    67   ar
    62    92    93    2
    63   104   105   ar
    64   104   102   ar
    65   105   103   ar
    66    69    67   ar
    67    69    70    1
    68   102   101   ar
    69    27    26    1
    70   103   101   ar
    71   134   131    1
    72    26    25    1
    73   101   100    1
    74    10     8   ar
    75    10    11   ar
    76    12    11    1
    77     8     6   ar
    78    18    17    1
    79    11     9   ar
    80   133   132    2
    81   131   132    1
    82   131   130    1
    83   100    97    1
    84   117   119   ar
    85   117   115   ar
    86    25    24    1
    87   119   118   ar
    88    96    97    1
    89   130   128   am
    90     6     7   ar
    91     6     5    1
    92     9     7   ar
    93    17    14    1
    94    97    98    1
    95   115   114   ar
    96   115   113   ar
    97   114   112   ar
    98    24    23    1
    99   118   116   ar
   100     5     2    1
   101    99    98    2
   102   128   129    2
   103   128   127    1
   104    14    13    1
   105    14    15    1
   106    13     3   am
   107   113   116   ar
   108   113   111   ar
   109     2     3    1
   110     2     1    1
   111   112   111   ar
   112    23    20    1
   113   125   124    1
   114     3     4    2
   115   127   126    1
   116   123   122    2
   117   111   110    1
   118    15    16    2
   119   126   122   am
   120   122   121    1
   121    20    19    1
   122    20    21    1
   123   124   121    1
   124   121   120    1
   125   120   108   am
   126   110   107    1
   127    21    22    2
   128   107   108    1
   129   107   106    1
   130   108   109    2
