@<TRIPOS>MOLECULE
tmp/4p8bA00.pdb
 134 125 0 0 0
SMALL
GASTEIGER

@<TRIPOS>ATOM
      1  N         37.1480   63.4970    0.6440 N.3     9  VAL9       -0.1231
      2  CA        37.4740   64.7540   -0.0230 C.3     9  VAL9        0.1692
      3  C         38.1460   65.6930    0.9670 C.2     9  VAL9        0.2591
      4  O         39.1780   66.2730    0.6550 O.2     9  VAL9       -0.2718
      5  CB        36.2280   65.4430   -0.5950 C.3     9  VAL9        0.0266
      6  CG1       36.5810   66.7970   -1.1740 C.3     9  VAL9        0.0020
      7  CG2       35.6140   64.6030   -1.6730 C.3     9  VAL9        0.0020
      8  N         37.5820   65.8090    2.1650 N.am   10  LEU10      -0.1980
      9  CA        38.0790   66.7230    3.2050 C.3    10  LEU10       0.1596
     10  C         38.7840   65.9690    4.3190 C.2    10  LEU10       0.2287
     11  O         38.2970   64.9260    4.7800 O.2    10  LEU10      -0.2864
     12  CB        36.8970   67.4940    3.7950 C.3    10  LEU10       0.0297
     13  CG        36.1120   68.3600    2.8070 C.3    10  LEU10       0.0022
     14  CD1       35.0170   69.1450    3.5470 C.3    10  LEU10       0.0001
     15  CD2       37.0460   69.3080    2.0610 C.3    10  LEU10       0.0001
     16  N         33.8250   66.5140    8.3360 N.3    16  TRP16      -0.1241
     17  CA        33.7710   65.3440    7.4480 C.3    16  TRP16       0.1605
     18  C         34.9870   64.4410    7.6780 C.2    16  TRP16       0.2264
     19  O         34.8550   63.2330    7.9500 O.2    16  TRP16      -0.2867
     20  CB        33.7070   65.8550    6.0250 C.3    16  TRP16       0.0550
     21  CG        33.7580   64.9040    4.8830 C.ar   16  TRP16       0.0003
     22  CD1       34.1650   63.5910    4.8650 C.ar   16  TRP16       0.0946
     23  CD2       33.3650   65.2270    3.5590 C.ar   16  TRP16       0.0152
     24  NE1       34.0680   63.1070    3.5770 N.ar   16  TRP16      -0.2442
     25  CE2       33.5670   64.0890    2.7630 C.ar   16  TRP16       0.0810
     26  CE3       32.8590   66.3910    2.9680 C.ar   16  TRP16       0.0012
     27  CZ2       33.2890   64.0810    1.4040 C.ar   16  TRP16       0.0191
     28  CZ3       32.5710   66.3820    1.6450 C.ar   16  TRP16       0.0001
     29  CH2       32.8070   65.2340    0.8540 C.ar   16  TRP16       0.0015
     30  N         36.6140   64.1000   -7.5540 N.3    50  GLN50      -0.1245
     31  CA        35.6670   63.5690   -6.5900 C.3    50  GLN50       0.1566
     32  C         34.3840   63.0610   -7.2270 C.2    50  GLN50       0.2260
     33  O         33.6760   62.2310   -6.6340 O.2    50  GLN50      -0.2867
     34  CB        35.3680   64.6390   -5.5340 C.3    50  GLN50       0.0367
     35  CG        34.6580   65.8900   -6.0780 C.3    50  GLN50       0.0905
     36  CD        34.8660   67.0880   -5.2110 C.2    50  GLN50       0.2608
     37  OE1       35.9750   67.5530   -5.0790 O.2    50  GLN50      -0.2717
     38  NE2       33.7980   67.5910   -4.6220 N.am   50  GLN50      -0.0878
     39  N         30.2350   62.5620    0.1790 N.3    67  SER67      -0.1217
     40  CA        29.0810   63.4260    0.0320 C.3    67  SER67       0.1889
     41  C         28.1550   62.8960   -1.0500 C.2    67  SER67       0.2288
     42  O         28.5910   62.4820   -2.1260 O.2    67  SER67      -0.2866
     43  CB        29.5020   64.8410   -0.3560 C.3    67  SER67       0.2089
     44  OG        28.3440   65.5790   -0.7590 O.3    67  SER67      -0.2183
     45  N         26.5210   64.5940   -3.0260 N.3    69  ILE69      -0.1231
     46  CA        26.6910   65.3680   -4.2340 C.3    69  ILE69       0.1692
     47  C         27.6790   64.6810   -5.1870 C.2    69  ILE69       0.2592
     48  O         27.4600   64.5830   -6.3930 O.2    69  ILE69      -0.2718
     49  CB        27.1780   66.7900   -3.9080 C.3    69  ILE69       0.0266
     50  CG1       26.0570   67.5710   -3.2240 C.3    69  ILE69       0.0019
     51  CG2       27.6100   67.5000   -5.1970 C.3    69  ILE69       0.0020
     52  CD1       26.5060   68.9190   -2.6980 C.3    69  ILE69       0.0001
     53  N         28.7710   64.1780   -4.6330 N.am   70  ASN70      -0.1974
     54  CA        29.8580   63.6710   -5.4580 C.3    70  ASN70       0.1688
     55  C         29.5260   62.3590   -6.1340 C.2    70  ASN70       0.2292
     56  O         30.0850   62.0500   -7.1880 O.2    70  ASN70      -0.2864
     57  CB        31.1120   63.5120   -4.6180 C.3    70  ASN70       0.1181
     58  CG        31.6580   64.8360   -4.1500 C.2    70  ASN70       0.2629
     59  OD1       31.4390   65.8810   -4.7840 O.2    70  ASN70      -0.2716
     60  ND2       32.2850   64.8330   -2.9930 N.am   70  ASN70      -0.0877
     61  N         27.6260   66.9770    5.8370 N.3   121  ASN121     -0.1240
     62  CA        28.4210   68.1490    5.4660 C.3   121  ASN121      0.1653
     63  C         27.6230   69.3590    5.9510 C.2   121  ASN121      0.2266
     64  O         28.0550   70.0350    6.8830 O.2   121  ASN121     -0.2867
     65  CB        28.6950   68.1400    3.9690 C.3   121  ASN121      0.1155
     66  CG        30.0320   68.7930    3.6000 C.2   121  ASN121      0.2627
     67  OD1       30.8890   69.0510    4.4540 O.2   121  ASN121     -0.2716
     68  ND2       30.2090   69.0310    2.3240 N.am  121  ASN121     -0.0877
     69  N         24.1980   74.2690    2.5210 N.3   124  ARG124     -0.1245
     70  CA        25.2270   74.8680    1.6790 C.3   124  ARG124      0.1563
     71  C         24.8810   76.3290    1.3940 C.2   124  ARG124      0.2260
     72  O         23.9860   76.6270    0.6210 O.2   124  ARG124     -0.2867
     73  CB        25.3970   74.0530    0.3940 C.3   124  ARG124      0.0307
     74  CG        25.7730   72.6020    0.6670 C.3   124  ARG124      0.0489
     75  CD        25.9410   71.7750   -0.5920 C.3   124  ARG124      0.2205
     76  NE        27.1070   72.1550   -1.4000 N.pl3 124  ARG124     -0.0865
     77  CZ        28.3390   71.7050   -1.2400 C.cat 124  ARG124      0.5346
     78  NH1       28.6290   70.8890   -0.2490 N.pl3 124  ARG124      0.1354
     79  NH2       29.2990   72.1000   -2.0560 N.pl3 124  ARG124      0.1354
     80  N         31.3280   78.8930   -8.4540 N.3   144  ARG144     -0.1245
     81  CA        31.7600   77.5080   -8.5290 C.3   144  ARG144      0.1563
     82  C         30.7220   76.5880   -7.9150 C.2   144  ARG144      0.2260
     83  O         30.2030   76.8630   -6.8390 O.2   144  ARG144     -0.2867
     84  CB        33.1040   77.3390   -7.8200 C.3   144  ARG144      0.0307
     85  CG        33.6330   75.9030   -7.7810 C.3   144  ARG144      0.0489
     86  CD        33.1490   75.2160   -6.5280 C.3   144  ARG144      0.2205
     87  NE        33.5950   73.8300   -6.4670 N.pl3 144  ARG144     -0.0865
     88  CZ        33.3960   73.0440   -5.4160 C.cat 144  ARG144      0.5346
     89  NH1       32.7760   73.4870   -4.3400 N.pl3 144  ARG144      0.1354
     90  NH2       33.8470   71.7930   -5.4510 N.pl3 144  ARG144      0.1354
     91  N         30.0400   71.9730   -7.7030 N.3   146  VAL146     -0.1245
     92  CA        30.6070   70.6640   -7.9760 C.3   146  VAL146      0.1561
     93  C         30.0750   70.2250   -9.3230 C.2   146  VAL146      0.2260
     94  O         28.9780   70.6460   -9.7200 O.2   146  VAL146     -0.2867
     95  CB        30.1740   69.6600   -6.8930 C.3   146  VAL146      0.0252
     96  CG1       30.6900   68.2720   -7.2100 C.3   146  VAL146      0.0019
     97  CG2       30.6570   70.1160   -5.5290 C.3   146  VAL146      0.0019
     98  N         36.7650   70.2950   -5.5130 N.3   166  TRP166     -0.1241
     99  CA        37.1130   71.0800   -4.3470 C.3   166  TRP166      0.1605
    100  C         38.5740   71.5680   -4.4720 C.2   166  TRP166      0.2264
    101  O         38.8680   72.7270   -4.1870 O.2   166  TRP166     -0.2867
    102  CB        36.9220   70.2520   -3.0810 C.3   166  TRP166      0.0550
    103  CG        37.4700   70.8870   -1.8430 C.ar  166  TRP166      0.0003
    104  CD1       38.5460   70.4710   -1.1270 C.ar  166  TRP166      0.0946
    105  CD2       36.9970   72.0710   -1.2090 C.ar  166  TRP166      0.0152
    106  NE1       38.7590   71.3130   -0.0670 N.ar  166  TRP166     -0.2442
    107  CE2       37.8230   72.3070   -0.0950 C.ar  166  TRP166      0.0810
    108  CE3       35.9570   72.9590   -1.4770 C.ar  166  TRP166      0.0012
    109  CZ2       37.6220   73.3800    0.7690 C.ar  166  TRP166      0.0191
    110  CZ3       35.7640   74.0450   -0.6170 C.ar  166  TRP166      0.0001
    111  CH2       36.6060   74.2390    0.4870 C.ar  166  TRP166      0.0015
    112  N         28.7320   76.1770    0.2380 N.3   182  ASN182     -0.1240
    113  CA        29.2520   75.0830    1.0800 C.3   182  ASN182      0.1653
    114  C         28.7450   75.2450    2.5030 C.2   182  ASN182      0.2266
    115  O         28.2830   76.3330    2.8940 O.2   182  ASN182     -0.2867
    116  CB        30.7930   75.0870    1.1100 C.3   182  ASN182      0.1155
    117  CG        31.4170   73.9510    0.3150 C.2   182  ASN182      0.2627
    118  OD1       31.1600   72.7880    0.5870 O.2   182  ASN182     -0.2716
    119  ND2       32.2680   74.2810   -0.6430 N.am  182  ASN182     -0.0877
    120  N         32.7430   74.0610    6.5410 N.3   186  VAL186     -0.1245
    121  CA        33.6960   74.0320    5.4450 C.3   186  VAL186      0.1561
    122  C         34.1840   75.4520    5.1730 C.2   186  VAL186      0.2260
    123  O         35.3910   75.6800    5.0930 O.2   186  VAL186     -0.2867
    124  CB        33.0670   73.3910    4.2100 C.3   186  VAL186      0.0252
    125  CG1       33.9920   73.4740    3.0210 C.3   186  VAL186      0.0019
    126  CG2       32.6890   71.9320    4.5080 C.3   186  VAL186      0.0019
    127  N         23.9970   68.6230    1.9230 N.3   208  ASP208     -0.1239
    128  CA        24.5210   67.3160    1.5850 C.3   208  ASP208      0.1674
    129  C         24.8510   66.5200    2.8370 C.2   208  ASP208      0.2266
    130  O         25.7270   66.9300    3.6290 O.2   208  ASP208     -0.2867
    131  CB        25.7100   67.3460    0.5730 C.3   208  ASP208      0.1410
    132  CG        26.9050   68.1880    0.9990 C.2   208  ASP208      0.3668
    133  OD1       26.7390   69.3250    1.4970 O.co2 208  ASP208     -0.2456
    134  OD2       28.0500   67.7410    0.7110 O.co2 208  ASP208     -0.2456
@<TRIPOS>BOND
     1    94    93    2
     2    93    92    1
     3    81    80    1
     4    81    82    1
     5    81    84    1
     6    92    91    1
     7    92    95    1
     8    82    83    2
     9    84    85    1
    10    85    86    1
    11    30    31    1
    12    32    33    2
    13    32    31    1
    14    96    95    1
    15    56    55    2
    16    95    97    1
    17    31    34    1
    18    86    87    1
    19    87    88    2
    20    48    47    2
    21    55    54    1
    22    35    34    1
    23    35    36    1
    24    98    99    1
    25    54    53    1
    26    54    57    1
    27    90    88    1
    28    88    89    1
    29    36    37    2
    30    36    38   am
    31    51    49    1
    32    47    53   am
    33    47    46    1
    34    59    58    2
    35    57    58    1
    36   100    99    1
    37   100   101    2
    38    99   102    1
    39    46    49    1
    40    46    45    1
    41    58    60   am
    42    49    50    1
    43    50    52    1
    44   102   103    1
    45    42    41    2
    46    79    77    1
    47   103   105   ar
    48   103   104   ar
    49     7     5    1
    50   108   105   ar
    51   108   110   ar
    52    76    77    2
    53    76    75    1
    54    77    78    1
    55   105   107   ar
    56     6     5    1
    57   104   106   ar
    58    41    40    1
    59    44    43    1
    60   119   117   am
    61   110   111   ar
    62     5     2    1
    63    75    74    1
    64    43    40    1
    65   107   106   ar
    66   107   109   ar
    67     2     1    1
    68     2     3    1
    69    40    39    1
    70   112   113    1
    71   117   118    2
    72   117   116    1
    73    73    74    1
    74    73    70    1
    75   111   109   ar
    76   131   132    1
    77   131   128    1
    78    72    71    2
    79     4     3    2
    80   134   132   ar
    81    29    27   ar
    82    29    28   ar
    83     3     8   am
    84   132   133   ar
    85   113   116    1
    86   113   114    1
    87    71    70    1
    88    27    25   ar
    89   128   127    1
    90   128   129    1
    91    28    26   ar
    92    70    69    1
    93    15    13    1
    94     8     9    1
    95    68    66   am
    96   114   115    2
    97    25    23   ar
    98    25    24   ar
    99    13    14    1
   100    13    12    1
   101   129   130    2
   102    26    23   ar
   103   125   124    1
   104     9    12    1
   105     9    10    1
   106    23    21   ar
   107    24    22   ar
   108    66    65    1
   109    66    67    2
   110    65    62    1
   111   124   126    1
   112   124   121    1
   113    10    11    2
   114    22    21   ar
   115    21    20    1
   116   123   122    2
   117   122   121    1
   118   121   120    1
   119    62    61    1
   120    62    63    1
   121    63    64    2
   122    20    17    1
   123    17    18    1
   124    17    16    1
   125    18    19    2
