@<TRIPOS>MOLECULE
tmp/4p8cA01.pdb
 208 203 0 0 0
SMALL
GASTEIGER

@<TRIPOS>ATOM
      1  N         21.6440  -12.2880   -5.8430 N.3    54  TYR54      -0.1241
      2  CA        21.5930  -13.0020   -7.1190 C.3    54  TYR54       0.1605
      3  C         21.6660  -12.1020   -8.3470 C.2    54  TYR54       0.2264
      4  O         22.1520  -12.5250   -9.4060 O.2    54  TYR54      -0.2867
      5  CB        20.3140  -13.8190   -7.2080 C.3    54  TYR54       0.0534
      6  CG        20.2410  -14.9570   -6.2380 C.ar   54  TYR54      -0.0201
      7  CD1       20.4460  -16.2810   -6.6630 C.ar   54  TYR54      -0.0009
      8  CD2       19.9410  -14.7270   -4.8910 C.ar   54  TYR54      -0.0009
      9  CE1       20.3650  -17.3360   -5.7630 C.ar   54  TYR54       0.0417
     10  CE2       19.8520  -15.7740   -3.9920 C.ar   54  TYR54       0.0417
     11  CZ        20.0580  -17.0720   -4.4290 C.ar   54  TYR54       0.1957
     12  OH        19.9750  -18.0860   -3.5150 O.3    54  TYR54      -0.2866
     13  N         19.0980  -17.0760    5.1920 N.3   111  GLY111     -0.1225
     14  CA        19.3690  -18.4980    4.9410 C.3   111  GLY111      0.1811
     15  C         20.8100  -18.8500    4.5710 C.2   111  GLY111      0.2280
     16  O         21.1110  -20.0120    4.3180 O.2   111  GLY111     -0.2866
     17  N         15.7980  -10.1770    5.5950 N.3   126  HIS126     -0.1226
     18  CA        14.8570  -10.7830    6.5330 C.3   126  HIS126      0.1752
     19  C         15.2400  -12.2120    6.8320 C.2   126  HIS126      0.2597
     20  O         16.0550  -12.8100    6.1520 O.2   126  HIS126     -0.2718
     21  CB        13.4500  -10.7390    5.9400 C.3   126  HIS126      0.0759
     22  CG        13.3750  -11.2640    4.5260 C.ar  126  HIS126      0.0818
     23  ND1       13.2040  -12.5810    4.2400 N.ar  126  HIS126     -0.2268
     24  CD2       13.4800  -10.6080    3.3070 C.ar  126  HIS126      0.1154
     25  CE1       13.1770  -12.7470    2.9080 C.ar  126  HIS126      0.1986
     26  NE2       13.3670  -11.5450    2.3350 N.ar  126  HIS126     -0.2212
     27  N         14.6240  -12.7950    7.8430 N.am  127  GLY127     -0.1942
     28  CA        14.8960  -14.1880    8.1280 C.3   127  GLY127      0.2014
     29  C         13.6770  -14.9040    8.6330 C.2   127  GLY127      0.2638
     30  O         12.5580  -14.3890    8.5790 O.2   127  GLY127     -0.2714
     31  N         13.9360  -16.0900    9.1590 N.am  128  LYS128     -0.1977
     32  CA        12.9290  -17.0000    9.6720 C.3   128  LYS128      0.1596
     33  C         12.1370  -16.3760   10.8320 C.2   128  LYS128      0.2287
     34  O         11.0300  -16.8240   11.1420 O.2   128  LYS128     -0.2864
     35  CB        13.6400  -18.3040   10.0980 C.3   128  LYS128      0.0298
     36  CG        12.7320  -19.4940   10.3670 C.3   128  LYS128      0.0038
     37  CD        13.5450  -20.7700   10.5960 C.3   128  LYS128      0.0206
     38  CE        12.6280  -21.9270   11.0020 C.3   128  LYS128      0.1093
     39  NZ        13.4140  -23.1930   11.0560 N.3   128  LYS128     -0.1314
     40  N          9.3700  -20.9820    9.3140 N.3   222  SER222     -0.1202
     41  CA         9.4860  -21.0590    7.8540 C.3   222  SER222      0.2020
     42  C          9.1250  -22.4580    7.3550 C.2   222  SER222      0.2619
     43  O          9.1110  -23.4040    8.1450 O.2   222  SER222     -0.2717
     44  CB        10.8990  -20.7090    7.3920 C.3   222  SER222      0.2103
     45  OG        11.8360  -21.6680    7.8550 O.3   222  SER222     -0.2182
     46  N          8.8410  -22.5870    6.0560 N.am  223  ALA223     -0.1965
     47  CA         8.4430  -23.8780    5.4780 C.3   223  ALA223      0.1728
     48  C          9.0360  -24.1360    4.1010 C.2   223  ALA223      0.2616
     49  O          9.3700  -23.2000    3.3680 O.2   223  ALA223     -0.2715
     50  CB         6.9280  -23.9850    5.4040 C.3   223  ALA223      0.0334
     51  N          9.1700  -25.4160    3.7640 N.am  224  TRP224     -0.1974
     52  CA         9.3270  -25.8280    2.3830 C.3   224  TRP224      0.1640
     53  C          7.9610  -26.2030    1.9050 C.2   224  TRP224      0.2290
     54  O          7.1940  -26.7840    2.6680 O.2   224  TRP224     -0.2864
     55  CB        10.2410  -27.0460    2.2810 C.3   224  TRP224      0.0576
     56  CG        10.2240  -27.6760    0.9030 C.ar  224  TRP224      0.0006
     57  CD1       11.0530  -27.3760   -0.1810 C.ar  224  TRP224      0.0946
     58  CD2        9.3060  -28.7270    0.4020 C.ar  224  TRP224      0.0152
     59  NE1       10.7270  -28.1430   -1.2780 N.ar  224  TRP224     -0.2442
     60  CE2        9.6890  -28.9730   -0.9970 C.ar  224  TRP224      0.0810
     61  CE3        8.2450  -29.4460    0.9470 C.ar  224  TRP224      0.0012
     62  CZ2        9.0300  -29.9120   -1.7870 C.ar  224  TRP224      0.0191
     63  CZ3        7.5880  -30.3860    0.1370 C.ar  224  TRP224      0.0001
     64  CH2        7.9730  -30.6120   -1.1940 C.ar  224  TRP224      0.0015
     65  N         18.2370  -24.1400   11.1930 N.3   303  TYR303     -0.1227
     66  CA        18.3190  -22.9480   10.3310 C.3   303  TYR303      0.1736
     67  C         18.9420  -23.1740    8.9530 C.2   303  TYR303      0.2595
     68  O         18.6380  -22.4450    8.0040 O.2   303  TYR303     -0.2718
     69  CB        19.0700  -21.8170   11.0530 C.3   303  TYR303      0.0548
     70  CG        18.5100  -20.4430   10.7730 C.ar  303  TYR303     -0.0200
     71  CD1       17.6280  -19.8370   11.6660 C.ar  303  TYR303     -0.0009
     72  CD2       18.8600  -19.7460    9.6140 C.ar  303  TYR303     -0.0009
     73  CE1       17.0990  -18.5800   11.4100 C.ar  303  TYR303      0.0417
     74  CE2       18.3410  -18.4890    9.3500 C.ar  303  TYR303      0.0417
     75  CZ        17.4600  -17.9130   10.2520 C.ar  303  TYR303      0.1957
     76  OH        16.9420  -16.6680    9.9920 O.3   303  TYR303     -0.2866
     77  N         19.8200  -24.1640    8.8360 N.am  304  HIS304     -0.1962
     78  CA        20.4130  -24.4840    7.5330 C.3   304  HIS304      0.1772
     79  C         20.1980  -25.9340    7.1460 C.2   304  HIS304      0.2462
     80  O         21.1700  -26.6700    6.9360 O.2   304  HIS304     -0.2730
     81  CB        21.8960  -24.0950    7.5030 C.3   304  HIS304      0.0785
     82  CG        22.1540  -22.6230    7.7850 C.ar  304  HIS304      0.0821
     83  ND1       22.5430  -22.1730    8.9950 N.ar  304  HIS304     -0.2267
     84  CD2       22.0600  -21.4990    6.9600 C.ar  304  HIS304      0.1154
     85  CE1       22.6910  -20.8320    8.9510 C.ar  304  HIS304      0.1986
     86  NE2       22.3950  -20.4210    7.7060 N.ar  304  HIS304     -0.2212
     87  N         18.9170  -26.3700    7.0310 N.am  305  PRO305     -0.2716
     88  CA        18.6470  -27.7820    6.7290 C.3   305  PRO305      0.1536
     89  C         19.0150  -28.1560    5.2870 C.2   305  PRO305      0.2598
     90  O         18.8830  -29.3170    4.8930 O.2   305  PRO305     -0.2715
     91  CB        17.1360  -27.9070    6.9620 C.3   305  PRO305      0.0310
     92  CG        16.6010  -26.5480    6.6730 C.3   305  PRO305      0.0237
     93  CD        17.6720  -25.5730    7.0780 C.3   305  PRO305      0.0939
     94  N         19.4720  -27.1620    4.5240 N.am  306  LEU306     -0.1978
     95  CA        19.9970  -27.3540    3.1760 C.3   306  LEU306      0.1596
     96  C         21.3880  -27.9920    3.2210 C.2   306  LEU306      0.2287
     97  O         21.7850  -28.6930    2.2840 O.2   306  LEU306     -0.2864
     98  CB        20.0650  -26.0000    2.4480 C.3   306  LEU306      0.0297
     99  CG        20.3480  -25.9130    0.9400 C.3   306  LEU306      0.0022
    100  CD1       19.0980  -26.2160    0.1230 C.3   306  LEU306      0.0001
    101  CD2       20.8970  -24.5390    0.5770 C.3   306  LEU306      0.0001
    102  N         22.4780  -31.9080    2.5830 N.3   309  PHE309     -0.1241
    103  CA        22.3190  -32.4600    1.2290 C.3   309  PHE309      0.1605
    104  C         23.5400  -32.2870    0.3050 C.2   309  PHE309      0.2264
    105  O         23.4740  -32.6110   -0.8860 O.2   309  PHE309     -0.2867
    106  CB        21.0340  -31.9360    0.5620 C.3   309  PHE309      0.0534
    107  CG        19.7620  -32.4710    1.1760 C.ar  309  PHE309     -0.0203
    108  CD1       19.5700  -33.8440    1.3480 C.ar  309  PHE309     -0.0042
    109  CD2       18.7450  -31.6030    1.5650 C.ar  309  PHE309     -0.0042
    110  CE1       18.3980  -34.3340    1.9090 C.ar  309  PHE309     -0.0003
    111  CE2       17.5700  -32.0890    2.1250 C.ar  309  PHE309     -0.0003
    112  CZ        17.3960  -33.4550    2.2950 C.ar  309  PHE309     -0.0000
    113  N         16.2780  -17.5760   -9.6590 N.3   321  GLN321     -0.1245
    114  CA        15.6920  -17.3970   -8.3370 C.3   321  GLN321      0.1566
    115  C         14.6050  -16.3330   -8.4090 C.2   321  GLN321      0.2260
    116  O         14.8300  -15.2580   -8.9510 O.2   321  GLN321     -0.2867
    117  CB        16.7650  -16.9800   -7.3270 C.3   321  GLN321      0.0367
    118  CG        17.1060  -18.0470   -6.2970 C.3   321  GLN321      0.0905
    119  CD        16.0620  -18.1610   -5.1970 C.2   321  GLN321      0.2608
    120  OE1       15.7990  -17.2070   -4.4550 O.2   321  GLN321     -0.2717
    121  NE2       15.4610  -19.3360   -5.0880 N.am  321  GLN321     -0.0878
    122  N         11.5610  -14.4480   -5.9930 N.3   323  GLN323     -0.1245
    123  CA        10.9920  -14.2650   -4.6600 C.3   323  GLN323      0.1566
    124  C          9.9790  -13.1240   -4.6530 C.2   323  GLN323      0.2260
    125  O         10.2430  -12.0410   -5.1740 O.2   323  GLN323     -0.2867
    126  CB        12.0840  -14.0580   -3.5940 C.3   323  GLN323      0.0367
    127  CG        11.5430  -13.6140   -2.2240 C.3   323  GLN323      0.0905
    128  CD        12.5620  -13.6870   -1.0910 C.2   323  GLN323      0.2608
    129  OE1       13.7540  -13.8860   -1.3130 O.2   323  GLN323     -0.2717
    130  NE2       12.0830  -13.5610    0.1360 N.am  323  GLN323     -0.0878
    131  N         13.2690  -26.2670   -4.7640 N.3   350  LEU350     -0.1231
    132  CA        13.7450  -25.5270   -3.6010 C.3   350  LEU350      0.1693
    133  C         12.8110  -24.3680   -3.3030 C.2   350  LEU350      0.2592
    134  O         12.9910  -23.2640   -3.8170 O.2   350  LEU350     -0.2718
    135  CB        15.1740  -25.0290   -3.8120 C.3   350  LEU350      0.0284
    136  CG        16.3560  -25.9950   -3.9700 C.3   350  LEU350      0.0019
    137  CD1       17.6130  -25.2390   -3.5740 C.3   350  LEU350      0.0001
    138  CD2       16.2260  -27.2690   -3.1430 C.3   350  LEU350      0.0001
    139  N         11.8000  -24.6340   -2.4840 N.am  351  ASN351     -0.1960
    140  CA        10.7300  -23.6770   -2.2590 C.3   351  ASN351      0.1819
    141  C         10.6230  -23.2120   -0.8060 C.2   351  ASN351      0.2621
    142  O         10.5460  -24.0240    0.1250 O.2   351  ASN351     -0.2715
    143  CB         9.3950  -24.2520   -2.7260 C.3   351  ASN351      0.1195
    144  CG         9.4680  -24.8670   -4.1230 C.2   351  ASN351      0.2630
    145  OD1        9.0960  -26.0260   -4.3160 O.2   351  ASN351     -0.2716
    146  ND2        9.9420  -24.0960   -5.0980 N.am  351  ASN351     -0.0877
    147  N         10.6100  -21.8970   -0.6320 N.am  352  VAL352     -0.1977
    148  CA        10.4960  -21.2790    0.6820 C.3   352  VAL352      0.1596
    149  C          9.1090  -20.6750    0.8410 C.2   352  VAL352      0.2287
    150  O          8.5950  -20.0190   -0.0700 O.2   352  VAL352     -0.2864
    151  CB        11.5500  -20.1640    0.8640 C.3   352  VAL352      0.0276
    152  CG1       11.3440  -19.4390    2.1900 C.3   352  VAL352      0.0022
    153  CG2       12.9490  -20.7440    0.7960 C.3   352  VAL352      0.0022
    154  N          6.9430  -18.5020    3.9120 N.3   354  LYS354     -0.1245
    155  CA         7.0260  -17.8280    5.2060 C.3   354  LYS354      0.1561
    156  C          6.0000  -16.7010    5.2830 C.2   354  LYS354      0.2260
    157  O          5.8060  -15.9710    4.3160 O.2   354  LYS354     -0.2867
    158  CB         8.4640  -17.3320    5.5080 C.3   354  LYS354      0.0271
    159  CG         8.4980  -16.0860    6.3830 C.3   354  LYS354      0.0035
    160  CD         9.5190  -16.1190    7.4850 C.3   354  LYS354      0.0206
    161  CE         8.9860  -15.3580    8.6940 C.3   354  LYS354      0.1093
    162  NZ         8.1240  -16.2530    9.5290 N.3   354  LYS354     -0.1314
    163  N          5.3430  -13.1850    6.5950 N.3   356  PHE356     -0.1241
    164  CA         5.9980  -11.9870    7.1200 C.3   356  PHE356      0.1605
    165  C          5.0870  -11.2760    8.1080 C.2   356  PHE356      0.2264
    166  O          3.8610  -11.3350    7.9720 O.2   356  PHE356     -0.2867
    167  CB         6.3100  -10.9830    5.9950 C.3   356  PHE356      0.0534
    168  CG         7.5550  -11.2950    5.1850 C.ar  356  PHE356     -0.0203
    169  CD1        8.5580  -12.1340    5.6650 C.ar  356  PHE356     -0.0042
    170  CD2        7.7380  -10.6940    3.9390 C.ar  356  PHE356     -0.0042
    171  CE1        9.6980  -12.3850    4.9070 C.ar  356  PHE356     -0.0003
    172  CE2        8.8750  -10.9390    3.1770 C.ar  356  PHE356     -0.0003
    173  CZ         9.8660  -11.7760    3.6670 C.ar  356  PHE356     -0.0000
    174  N          5.1800  -14.7810    1.8070 N.3   372  ASN372     -0.1240
    175  CA         6.4760  -14.7370    1.1250 C.3   372  ASN372      0.1653
    176  C          6.8370  -16.0870    0.5310 C.2   372  ASN372      0.2266
    177  O          6.7440  -17.1110    1.2140 O.2   372  ASN372     -0.2867
    178  CB         7.5720  -14.3000    2.1010 C.3   372  ASN372      0.1155
    179  CG         8.9510  -14.2990    1.4620 C.2   372  ASN372      0.2627
    180  OD1        9.2640  -13.4480    0.6350 O.2   372  ASN372     -0.2716
    181  ND2        9.7750  -15.2640    1.8370 N.am  372  ASN372     -0.0877
    182  N          9.8030  -18.1200   -2.1240 N.3   374  CYS374     -0.1235
    183  CA        10.9320  -18.2310   -3.0530 C.3   374  CYS374      0.1677
    184  C         10.8340  -19.5130   -3.8450 C.2   374  CYS374      0.2270
    185  O         10.4880  -20.5690   -3.2970 O.2   374  CYS374     -0.2867
    186  CB        12.2730  -18.2640   -2.3520 C.3   374  CYS374      0.0956
    187  SG        12.4800  -17.0040   -1.1210 S.3   374  CYS374     -0.0801
    188  N         11.9230   -8.7150   -4.7790 N.3   402  TYR402     -0.1241
    189  CA        13.0350   -8.3670   -3.9030 C.3   402  TYR402      0.1605
    190  C         14.2620   -8.0470   -4.7570 C.2   402  TYR402      0.2264
    191  O         14.6570   -8.8690   -5.5880 O.2   402  TYR402     -0.2867
    192  CB        13.3180   -9.5830   -3.0230 C.3   402  TYR402      0.0534
    193  CG        14.2960   -9.4300   -1.8830 C.ar  402  TYR402     -0.0201
    194  CD1       14.7570   -8.1740   -1.4570 C.ar  402  TYR402     -0.0009
    195  CD2       14.7390  -10.5580   -1.1980 C.ar  402  TYR402     -0.0009
    196  CE1       15.6420   -8.0590   -0.3940 C.ar  402  TYR402      0.0417
    197  CE2       15.6180  -10.4540   -0.1340 C.ar  402  TYR402      0.0417
    198  CZ        16.0660   -9.2080    0.2650 C.ar  402  TYR402      0.1957
    199  OH        16.9320   -9.1330    1.3400 O.3   402  TYR402     -0.2866
    200  N         17.1820  -10.5290   -5.1720 N.3   405  LYS405     -0.1245
    201  CA        16.9280  -11.7350   -5.9750 C.3   405  LYS405      0.1561
    202  C         16.7090  -11.4210   -7.4620 C.2   405  LYS405      0.2260
    203  O         16.5980  -12.3230   -8.2830 O.2   405  LYS405     -0.2867
    204  CB        15.7020  -12.4970   -5.4360 C.3   405  LYS405      0.0271
    205  CG        15.7340  -12.8860   -3.9600 C.3   405  LYS405      0.0035
    206  CD        16.9560  -13.7290   -3.6250 C.3   405  LYS405      0.0206
    207  CE        16.9360  -14.2280   -2.1890 C.3   405  LYS405      0.1093
    208  NZ        15.9340  -15.3300   -2.0340 N.3   405  LYS405     -0.1314
@<TRIPOS>BOND
     1   113   114    1
     2     4     3    2
     3   116   115    2
     4   115   114    1
     5     3     2    1
     6   114   117    1
     7   203   202    2
     8   202   201    1
     9   117   118    1
    10     5     2    1
    11     5     6    1
    12     2     1    1
    13     7     6   ar
    14     7     9   ar
    15   118   119    1
    16     6     8   ar
    17   122   123    1
    18   201   204    1
    19   201   200    1
    20     9    11   ar
    21   191   190    2
    22   204   205    1
    23   119   121   am
    24   119   120    2
    25   125   124    2
    26   146   144   am
    27     8    10   ar
    28   188   189    1
    29   131   132    1
    30   190   189    1
    31   123   124    1
    32   123   126    1
    33    11    10   ar
    34    11    12    1
    35   145   144    2
    36   144   143    1
    37   136   135    1
    38   136   137    1
    39   136   138    1
    40   205   206    1
    41   189   192    1
    42   184   185    2
    43   184   183    1
    44   134   133    2
    45   135   132    1
    46   206   207    1
    47   132   133    1
    48   126   127    1
    49   133   139   am
    50   183   186    1
    51   183   182    1
    52   192   193    1
    53   143   140    1
    54   139   140    1
    55   186   187    1
    56   140   141    1
    57   127   128    1
    58   207   208    1
    59   193   194   ar
    60   193   195   ar
    61    62    64   ar
    62    62    60   ar
    63   194   196   ar
    64   129   128    2
    65    59    60   ar
    66    59    57   ar
    67   195   197   ar
    68    64    63   ar
    69   128   130   am
    70    60    58   ar
    71   105   104    2
    72   141   147   am
    73   141   142    2
    74   147   148    1
    75   196   198   ar
    76    57    56   ar
    77   197   198   ar
    78   150   149    2
    79   100    99    1
    80    63    61   ar
    81   198   199    1
    82   104   103    1
    83    58    56   ar
    84    58    61   ar
    85   176   175    1
    86   176   177    2
    87   106   107    1
    88   106   103    1
    89   101    99    1
    90   180   179    2
    91   148   149    1
    92   148   151    1
    93   153   151    1
    94   151   152    1
    95    56    55    1
    96    99    98    1
    97   175   174    1
    98   175   178    1
    99   107   108   ar
   100   107   109   ar
   101   103   102    1
   102   108   110   ar
   103   179   181   am
   104   179   178    1
   105   109   111   ar
   106    53    52    1
   107    53    54    2
   108   110   112   ar
   109   111   112   ar
   110    55    52    1
   111    97    96    2
   112    26    25   ar
   113    26    24   ar
   114    52    51    1
   115    98    95    1
   116    25    23   ar
   117    95    96    1
   118    95    94    1
   119   172   173   ar
   120   172   170   ar
   121    24    22   ar
   122    49    48    2
   123   173   171   ar
   124    51    48   am
   125   154   155    1
   126   170   168   ar
   127    48    47    1
   128    23    22   ar
   129   157   156    2
   130    16    15    2
   131    94    89   am
   132    22    21    1
   133    15    14    1
   134    90    89    2
   135   171   169   ar
   136    14    13    1
   137   168   169   ar
   138   168   167    1
   139   155   156    1
   140   155   158    1
   141    89    88    1
   142    50    47    1
   143    47    46    1
   144   158   159    1
   145    17    18    1
   146    21    18    1
   147   167   164    1
   148    46    42   am
   149    20    19    2
   150   159   160    1
   151    18    19    1
   152   163   164    1
   153    92    91    1
   154    92    93    1
   155    88    91    1
   156    88    87    1
   157    19    27   am
   158    80    79    2
   159    84    86   ar
   160    84    82   ar
   161    87    93    1
   162    87    79   am
   163   164   165    1
   164    79    78    1
   165    42    41    1
   166    42    43    2
   167    44    41    1
   168    44    45    1
   169   160   161    1
   170    81    78    1
   171    81    82    1
   172    78    77    1
   173    86    85   ar
   174    82    83   ar
   175    27    28    1
   176    41    40    1
   177   166   165    2
   178    68    67    2
   179    28    29    1
   180    30    29    2
   181    29    31   am
   182   161   162    1
   183    77    67   am
   184    85    83   ar
   185    67    66    1
   186    31    32    1
   187    74    72   ar
   188    74    75   ar
   189    72    70   ar
   190    32    35    1
   191    32    33    1
   192    76    75    1
   193    35    36    1
   194    75    73   ar
   195    66    69    1
   196    66    65    1
   197    36    37    1
   198    37    38    1
   199    70    69    1
   200    70    71   ar
   201    33    34    2
   202    38    39    1
   203    73    71   ar
