@<TRIPOS>MOLECULE
tmp/4p8cB01.pdb
 189 184 0 0 0
SMALL
GASTEIGER

@<TRIPOS>ATOM
      1  N         47.8680  -25.1010   44.5840 N.3    53  TYR53      -0.1241
      2  CA        48.1970  -26.3590   45.2560 C.3    53  TYR53       0.1605
      3  C         48.0200  -26.2200   46.7690 C.2    53  TYR53       0.2264
      4  O         47.7460  -27.2010   47.4620 O.2    53  TYR53      -0.2867
      5  CB        49.6410  -26.7860   44.9300 C.3    53  TYR53       0.0534
      6  CG        49.8610  -27.2680   43.5070 C.ar   53  TYR53      -0.0201
      7  CD1       50.0380  -28.6280   43.2340 C.ar   53  TYR53      -0.0009
      8  CD2       49.8980  -26.3660   42.4310 C.ar   53  TYR53      -0.0009
      9  CE1       50.2440  -29.0790   41.9370 C.ar   53  TYR53       0.0417
     10  CE2       50.1000  -26.8070   41.1290 C.ar   53  TYR53       0.0417
     11  CZ        50.2730  -28.1640   40.8850 C.ar   53  TYR53       0.1957
     12  OH        50.4740  -28.6150   39.5940 O.3    53  TYR53      -0.2866
     13  N         50.6760  -22.2760   33.0080 N.3   110  GLY110     -0.1225
     14  CA        50.7490  -23.6190   32.4090 C.3   110  GLY110      0.1811
     15  C         49.4330  -24.3970   32.3450 C.2   110  GLY110      0.2280
     16  O         49.4200  -25.5400   31.8990 O.2   110  GLY110     -0.2866
     17  N         52.3390  -15.7850   36.7210 N.3   125  HIS125     -0.1226
     18  CA        53.3540  -15.5470   35.7150 C.3   125  HIS125      0.1752
     19  C         53.2530  -16.6120   34.6750 C.2   125  HIS125      0.2597
     20  O         52.5910  -17.6370   34.8800 O.2   125  HIS125     -0.2718
     21  CB        54.7550  -15.5810   36.3260 C.3   125  HIS125      0.0759
     22  CG        55.0090  -16.7800   37.2080 C.ar  125  HIS125      0.0818
     23  ND1       55.5640  -17.9320   36.7430 N.ar  125  HIS125     -0.2268
     24  CD2       54.7780  -16.9760   38.5630 C.ar  125  HIS125      0.1154
     25  CE1       55.6680  -18.8160   37.7510 C.ar  125  HIS125      0.1986
     26  NE2       55.1890  -18.2300   38.8660 N.ar  125  HIS125     -0.2212
     27  N         53.9340  -16.3820   33.5600 N.am  126  GLY126     -0.1942
     28  CA        53.9340  -17.3280   32.4640 C.3   126  GLY126      0.2014
     29  C         55.2740  -17.3790   31.7720 C.2   126  GLY126      0.2638
     30  O         56.2580  -16.8060   32.2530 O.2   126  GLY126     -0.2714
     31  N         55.2750  -18.0610   30.6320 N.am  127  LYS127     -0.1977
     32  CA        56.4420  -18.2990   29.8040 C.3   127  LYS127      0.1596
     33  C         57.0110  -16.9880   29.2240 C.2   127  LYS127      0.2287
     34  O         58.1550  -16.9490   28.7780 O.2   127  LYS127     -0.2864
     35  CB        56.0230  -19.2880   28.7070 C.3   127  LYS127      0.0298
     36  CG        57.1140  -19.7690   27.7700 C.3   127  LYS127      0.0038
     37  CD        56.5310  -20.7370   26.7440 C.3   127  LYS127      0.0206
     38  CE        57.6230  -21.4330   25.9440 C.3   127  LYS127      0.1093
     39  NZ        57.0280  -22.5140   25.0940 N.3   127  LYS127     -0.1314
     40  N         60.7090  -21.0300   27.9720 N.3   221  SER221     -0.1202
     41  CA        60.7770  -21.9110   29.1360 C.3   221  SER221      0.2020
     42  C         61.5330  -23.1790   28.7810 C.2   221  SER221      0.2619
     43  O         61.7850  -23.4500   27.6050 O.2   221  SER221     -0.2717
     44  CB        59.3830  -22.2450   29.6830 C.3   221  SER221      0.2103
     45  OG        58.5970  -22.8880   28.7070 O.3   221  SER221     -0.2182
     46  N         61.8830  -23.9550   29.8000 N.am  222  ALA222     -0.1965
     47  CA        62.6550  -25.1610   29.5770 C.3   222  ALA222      0.1728
     48  C         62.2410  -26.2740   30.5170 C.2   222  ALA222      0.2616
     49  O         61.7820  -26.0190   31.6330 O.2   222  ALA222     -0.2715
     50  CB        64.1460  -24.8740   29.7110 C.3   222  ALA222      0.0334
     51  N         62.3670  -27.5060   30.0310 N.am  223  TRP223     -0.1974
     52  CA        62.4130  -28.6820   30.8930 C.3   223  TRP223      0.1640
     53  C         63.8590  -28.9160   31.1990 C.2   223  TRP223      0.2290
     54  O         64.7040  -28.7290   30.3260 O.2   223  TRP223     -0.2864
     55  CB        61.8190  -29.9070   30.1870 C.3   223  TRP223      0.0576
     56  CG        62.0730  -31.1900   30.9540 C.ar  223  TRP223      0.0006
     57  CD1       61.2600  -31.7740   31.9240 C.ar  223  TRP223      0.0946
     58  CD2       63.2620  -32.0660   30.8780 C.ar  223  TRP223      0.0152
     59  NE1       61.8350  -32.9170   32.4260 N.ar  223  TRP223     -0.2442
     60  CE2       63.0300  -33.1550   31.8400 C.ar  223  TRP223      0.0810
     61  CE3       64.4420  -32.0660   30.1280 C.ar  223  TRP223      0.0012
     62  CZ2       63.9510  -34.1820   32.0280 C.ar  223  TRP223      0.0191
     63  CZ3       65.3650  -33.1060   30.3310 C.ar  223  TRP223      0.0001
     64  CH2       65.1230  -34.1350   31.2580 C.ar  223  TRP223      0.0015
     65  N         52.5360  -24.2470   24.1670 N.3   284  TYR284     -0.1227
     66  CA        52.3580  -23.8340   25.5620 C.3   284  TYR284      0.1736
     67  C         52.0580  -24.9890   26.5000 C.2   284  TYR284      0.2595
     68  O         52.4460  -24.9520   27.6670 O.2   284  TYR284     -0.2718
     69  CB        51.2340  -22.7880   25.6710 C.3   284  TYR284      0.0548
     70  CG        51.5650  -21.6570   26.6070 C.ar  284  TYR284     -0.0200
     71  CD1       52.0670  -20.4570   26.1200 C.ar  284  TYR284     -0.0009
     72  CD2       51.3920  -21.7890   27.9810 C.ar  284  TYR284     -0.0009
     73  CE1       52.3930  -19.4130   26.9740 C.ar  284  TYR284      0.0417
     74  CE2       51.7160  -20.7510   28.8440 C.ar  284  TYR284      0.0417
     75  CZ        52.2180  -19.5660   28.3350 C.ar  284  TYR284      0.1957
     76  OH        52.5440  -18.5320   29.1880 O.3   284  TYR284     -0.2866
     77  N         51.3590  -26.0090   26.0030 N.am  285  HIS285     -0.1962
     78  CA        50.9940  -27.1550   26.8450 C.3   285  HIS285      0.1772
     79  C         51.4250  -28.4760   26.2480 C.2   285  HIS285      0.2462
     80  O         50.5750  -29.3040   25.9030 O.2   285  HIS285     -0.2730
     81  CB        49.4920  -27.1490   27.1580 C.3   285  HIS285      0.0785
     82  CG        48.9610  -25.8060   27.6360 C.ar  285  HIS285      0.0821
     83  ND1       48.0740  -25.0820   26.9250 N.ar  285  HIS285     -0.2267
     84  CD2       49.2270  -25.0690   28.7930 C.ar  285  HIS285      0.1154
     85  CE1       47.7860  -23.9410   27.5870 C.ar  285  HIS285      0.1986
     86  NE2       48.4900  -23.9330   28.7300 N.ar  285  HIS285     -0.2212
     87  N         52.7570  -28.7030   26.1270 N.am  286  PRO286     -0.2727
     88  CA        53.2650  -29.9340   25.4990 C.3   286  PRO286      0.1402
     89  C         52.8620  -31.2090   26.2480 C.2   286  PRO286      0.2269
     90  O         52.7700  -31.2040   27.4770 O.2   286  PRO286     -0.2865
     91  CB        54.7930  -29.7550   25.5440 C.3   286  PRO286      0.0296
     92  CG        55.0130  -28.2930   25.7340 C.3   286  PRO286      0.0237
     93  CD        53.8660  -27.8500   26.5950 C.3   286  PRO286      0.0939
     94  N         54.5370  -30.5550   44.7690 N.3   290  GLN290     -0.1245
     95  CA        55.0170  -29.5810   43.8100 C.3   290  GLN290      0.1566
     96  C         55.8280  -28.5210   44.5600 C.2   290  GLN290      0.2260
     97  O         55.3410  -27.9280   45.5240 O.2   290  GLN290     -0.2867
     98  CB        53.8360  -28.9670   43.0490 C.3   290  GLN290      0.0367
     99  CG        54.1910  -27.8420   42.0780 C.3   290  GLN290      0.0905
    100  CD        55.1330  -28.2570   40.9500 C.2   290  GLN290      0.2608
    101  OE1       56.0450  -27.5080   40.5810 O.2   290  GLN290     -0.2717
    102  NE2       54.9120  -29.4460   40.3930 N.am  290  GLN290     -0.0878
    103  N         58.2240  -25.0380   44.0610 N.3   292  GLN292     -0.1245
    104  CA        58.6510  -23.9520   43.1830 C.3   292  GLN292      0.1566
    105  C         59.4000  -22.8790   43.9500 C.2   292  GLN292      0.2260
    106  O         58.9900  -22.4810   45.0480 O.2   292  GLN292     -0.2867
    107  CB        57.4540  -23.3370   42.4510 C.3   292  GLN292      0.0367
    108  CG        57.8310  -22.2050   41.5050 C.3   292  GLN292      0.0905
    109  CD        56.7150  -21.8010   40.5580 C.2   292  GLN292      0.2608
    110  OE1       55.5680  -22.2640   40.6760 O.2   292  GLN292     -0.2717
    111  NE2       57.0470  -20.9230   39.6040 N.am  292  GLN292     -0.0878
    112  N         59.0410  -34.0010   36.0790 N.3   319  LEU319     -0.1231
    113  CA        58.2390  -32.8580   35.6470 C.3   319  LEU319      0.1693
    114  C         58.8790  -31.5610   36.1360 C.2   319  LEU319      0.2592
    115  O         58.4690  -30.9910   37.1500 O.2   319  LEU319     -0.2718
    116  CB        56.8080  -32.9630   36.1740 C.3   319  LEU319      0.0284
    117  CG        55.8880  -34.0950   35.7140 C.3   319  LEU319      0.0019
    118  CD1       54.5050  -33.8790   36.3180 C.3   319  LEU319      0.0001
    119  CD2       55.8080  -34.1880   34.1950 C.3   319  LEU319      0.0001
    120  N         59.9000  -31.1170   35.4110 N.am  320  ASN320     -0.1960
    121  CA        60.6830  -29.9570   35.8030 C.3   320  ASN320      0.1819
    122  C         60.4420  -28.7530   34.8900 C.2   320  ASN320      0.2621
    123  O         60.1050  -28.9140   33.7070 O.2   320  ASN320     -0.2715
    124  CB        62.1670  -30.3270   35.8620 C.3   320  ASN320      0.1195
    125  CG        62.4230  -31.5890   36.6830 C.2   320  ASN320      0.2630
    126  OD1       63.1080  -32.5090   36.2340 O.2   320  ASN320     -0.2716
    127  ND2       61.8520  -31.6440   37.8820 N.am  320  ASN320     -0.0877
    128  N         60.5590  -27.5530   35.4620 N.am  321  VAL321     -0.1977
    129  CA        60.4690  -26.3060   34.7080 C.3   321  VAL321      0.1596
    130  C         61.6480  -25.4090   35.0940 C.2   321  VAL321      0.2287
    131  O         62.0420  -25.3460   36.2600 O.2   321  VAL321     -0.2864
    132  CB        59.1300  -25.5740   34.9630 C.3   321  VAL321      0.0276
    133  CG1       59.0650  -24.2600   34.1990 C.3   321  VAL321      0.0022
    134  CG2       57.9520  -26.4430   34.5520 C.3   321  VAL321      0.0022
    135  N         62.9600  -21.4240   34.0740 N.3   323  LYS323     -0.1245
    136  CA        62.6960  -20.1610   33.4090 C.3   323  LYS323      0.1561
    137  C         63.4540  -19.0320   34.1110 C.2   323  LYS323      0.2260
    138  O         63.5940  -19.0210   35.3360 O.2   323  LYS323     -0.2867
    139  CB        61.1890  -19.8640   33.3030 C.3   323  LYS323      0.0271
    140  CG        60.8790  -18.3700   33.2350 C.3   323  LYS323      0.0035
    141  CD        59.6760  -18.0470   32.3830 C.3   323  LYS323      0.0206
    142  CE        59.8570  -16.6880   31.7270 C.3   323  LYS323      0.1093
    143  NZ        60.7830  -16.8250   30.5680 N.3   323  LYS323     -0.1314
    144  N         63.1570  -15.3780   35.0660 N.3   325  PHE325     -0.1241
    145  CA        62.2020  -14.2770   35.2650 C.3   325  PHE325      0.1605
    146  C         62.8330  -12.9320   34.9260 C.2   325  PHE325      0.2264
    147  O         64.0150  -12.7560   35.1340 O.2   325  PHE325     -0.2867
    148  CB        61.8100  -14.2080   36.7390 C.3   325  PHE325      0.0534
    149  CG        60.7430  -15.1840   37.1480 C.ar  325  PHE325     -0.0203
    150  CD1       59.8420  -15.7000   36.2180 C.ar  325  PHE325     -0.0042
    151  CD2       60.6060  -15.5370   38.4770 C.ar  325  PHE325     -0.0042
    152  CE1       58.8450  -16.5700   36.6190 C.ar  325  PHE325     -0.0003
    153  CE2       59.6090  -16.4030   38.8900 C.ar  325  PHE325     -0.0003
    154  CZ        58.7200  -16.9140   37.9620 C.ar  325  PHE325     -0.0000
    155  N         63.9930  -19.3390   38.1200 N.3   341  ASN341     -0.1240
    156  CA        62.7510  -19.9710   38.5700 C.3   341  ASN341      0.1653
    157  C         62.7140  -21.4550   38.2200 C.2   341  ASN341      0.2266
    158  O         62.9580  -21.8340   37.0770 O.2   341  ASN341     -0.2867
    159  CB        61.5230  -19.2710   37.9760 C.3   341  ASN341      0.1155
    160  CG        60.2220  -19.9710   38.3410 C.2   341  ASN341      0.2627
    161  OD1       59.7830  -19.9210   39.4910 O.2   341  ASN341     -0.2716
    162  ND2       59.6060  -20.6390   37.3620 N.am  341  ASN341     -0.0877
    163  N         60.5560  -25.2800   38.9040 N.3   343  CYS343     -0.1235
    164  CA        59.4930  -26.1330   39.4090 C.3   343  CYS343      0.1677
    165  C         59.9490  -27.5720   39.3640 C.2   343  CYS343      0.2270
    166  O         60.4770  -28.0290   38.3440 O.2   343  CYS343     -0.2867
    167  CB        58.2410  -26.0060   38.5600 C.3   343  CYS343      0.0956
    168  SG        57.5290  -24.3640   38.6100 S.3   343  CYS343     -0.0801
    169  N         56.4820  -19.6570   46.3980 N.3   371  TYR371     -0.1241
    170  CA        55.2560  -19.1360   45.7950 C.3   371  TYR371      0.1605
    171  C         54.0510  -19.6160   46.6100 C.2   371  TYR371      0.2264
    172  O         53.9030  -20.8260   46.8130 O.2   371  TYR371     -0.2867
    173  CB        55.1850  -19.7300   44.3810 C.3   371  TYR371      0.0534
    174  CG        54.1220  -19.2180   43.4380 C.ar  371  TYR371     -0.0201
    175  CD1       53.4310  -18.0230   43.6760 C.ar  371  TYR371     -0.0009
    176  CD2       53.8420  -19.9210   42.2540 C.ar  371  TYR371     -0.0009
    177  CE1       52.4770  -17.5630   42.7730 C.ar  371  TYR371      0.0417
    178  CE2       52.8930  -19.4610   41.3470 C.ar  371  TYR371      0.0417
    179  CZ        52.2110  -18.2890   41.6170 C.ar  371  TYR371      0.1957
    180  OH        51.2780  -17.8520   40.7030 O.3   371  TYR371     -0.2866
    181  N         51.6430  -22.5950   45.5340 N.3   374  LYS374     -0.1245
    182  CA        52.0570  -23.9870   45.6600 C.3   374  LYS374      0.1561
    183  C         52.5180  -24.3150   47.0750 C.2   374  LYS374      0.2260
    184  O         53.3040  -25.2330   47.2820 O.2   374  LYS374     -0.2867
    185  CB        53.1610  -24.3030   44.6510 C.3   374  LYS374      0.0271
    186  CG        52.7030  -24.1160   43.2140 C.3   374  LYS374      0.0035
    187  CD        53.7630  -24.5160   42.2210 C.3   374  LYS374      0.0206
    188  CE        53.2180  -24.4070   40.8080 C.3   374  LYS374      0.1093
    189  NZ        54.2610  -24.8100   39.8200 N.3   374  LYS374     -0.1314
@<TRIPOS>BOND
     1    65    66    1
     2    39    38    1
     3    88    91    1
     4    88    87    1
     5    88    89    1
     6    91    92    1
     7    66    69    1
     8    66    67    1
     9    69    70    1
    10    92    93    1
    11    80    79    2
    12    38    37    1
    13    77    67   am
    14    77    78    1
    15    71    70   ar
    16    71    73   ar
    17    87    79   am
    18    87    93    1
    19    79    78    1
    20    89    90    2
    21    67    68    2
    22    70    72   ar
    23    37    36    1
    24    78    81    1
    25    83    85   ar
    26    83    82   ar
    27    73    75   ar
    28    81    82    1
    29    85    86   ar
    30    43    42    2
    31    82    84   ar
    32    36    35    1
    33    40    41    1
    34    72    74   ar
    35    75    74   ar
    36    75    76    1
    37    45    44    1
    38    35    32    1
    39    86    84   ar
    40    34    33    2
    41    42    41    1
    42    42    46   am
    43    41    44    1
    44    33    32    1
    45    47    50    1
    46    47    46    1
    47    47    48    1
    48    32    31    1
    49    51    48   am
    50    51    52    1
    51    61    63   ar
    52    61    58   ar
    53    55    52    1
    54    55    56    1
    55    54    53    2
    56    63    64   ar
    57    48    49    2
    58   143   142    1
    59    31    29   am
    60    58    56   ar
    61    58    60   ar
    62    52    53    1
    63    56    57   ar
    64    64    62   ar
    65   142   141    1
    66    29    30    2
    67    29    28    1
    68    60    62   ar
    69    60    59   ar
    70    16    15    2
    71    57    59   ar
    72    15    14    1
    73   141   140    1
    74    14    13    1
    75    28    27    1
    76   140   139    1
    77   139   136    1
    78   136   135    1
    79   136   137    1
    80    27    19   am
    81   123   122    2
    82   137   138    2
    83   119   117    1
    84   133   132    1
    85   134   132    1
    86    19    20    2
    87    19    18    1
    88   129   132    1
    89   129   130    1
    90   129   128    1
    91   122   128   am
    92   122   121    1
    93   146   147    2
    94   146   145    1
    95   144   145    1
    96   130   131    2
    97   145   148    1
    98   120   121    1
    99   120   114   am
   100   113   112    1
   101   113   114    1
   102   113   116    1
   103   117   116    1
   104   117   118    1
   105    18    21    1
   106    18    17    1
   107   121   124    1
   108   124   125    1
   109   114   115    2
   110   150   152   ar
   111   150   149   ar
   112   126   125    2
   113    21    22    1
   114   152   154   ar
   115   125   127   am
   116   148   149    1
   117    23    22   ar
   118    23    25   ar
   119   158   157    2
   120   149   151   ar
   121    22    24   ar
   122   162   160   am
   123    25    26   ar
   124   154   153   ar
   125   159   160    1
   126   159   156    1
   127   155   156    1
   128   157   156    1
   129   160   161    2
   130   166   165    2
   131   151   153   ar
   132   167   168    1
   133   167   164    1
   134    24    26   ar
   135   163   164    1
   136   165   164    1
   137    12    11    1
   138   111   109   am
   139   189   188    1
   140   102   100   am
   141   109   110    2
   142   109   108    1
   143   101   100    2
   144   180   179    1
   145   188   187    1
   146    11    10   ar
   147    11     9   ar
   148   100    99    1
   149    10     8   ar
   150   178   179   ar
   151   178   176   ar
   152   108   107    1
   153   179   177   ar
   154     9     7   ar
   155    99    98    1
   156   187   186    1
   157   176   174   ar
   158     8     6   ar
   159   107   104    1
   160   177   175   ar
   161    98    95    1
   162   104   105    1
   163   104   103    1
   164   186   185    1
   165     7     6   ar
   166   174   175   ar
   167   174   173    1
   168     6     5    1
   169    95    96    1
   170    95    94    1
   171   105   106    2
   172   173   170    1
   173    96    97    2
   174     1     2    1
   175   185   182    1
   176     5     2    1
   177     2     3    1
   178   181   182    1
   179   182   183    1
   180   170   169    1
   181   170   171    1
   182   171   172    2
   183     3     4    2
   184   183   184    2
