@<TRIPOS>MOLECULE
tmp/4p8eB00.pdb
 130 119 0 0 0
SMALL
GASTEIGER

@<TRIPOS>ATOM
      1  N        -16.1770   11.3960    1.6260 N.3    40  ARG40      -0.1231
      2  CA       -16.0430   10.3220    0.6530 C.3    40  ARG40       0.1694
      3  C        -15.3210   10.8950   -0.5730 C.2    40  ARG40       0.2591
      4  O        -14.1360   11.2140   -0.4750 O.2    40  ARG40      -0.2718
      5  CB       -17.4080    9.7060    0.3540 C.3    40  ARG40       0.0321
      6  CG       -17.3550    8.4090   -0.4410 C.3    40  ARG40       0.0489
      7  CD       -18.7520    7.8400   -0.6140 C.3    40  ARG40       0.2205
      8  NE       -18.7370    6.6040   -1.3970 N.pl3  40  ARG40      -0.0865
      9  CZ       -18.7530    6.5320   -2.7230 C.cat  40  ARG40       0.5346
     10  NH1      -18.7870    7.6300   -3.4720 N.pl3  40  ARG40       0.1354
     11  NH2      -18.7320    5.3360   -3.3090 N.pl3  40  ARG40       0.1354
     12  N        -15.9880   11.0600   -1.7110 N.am   41  GLU41      -0.1979
     13  CA       -15.3230   11.6620   -2.8540 C.3    41  GLU41       0.1602
     14  C        -15.3980   13.1710   -2.8370 C.2    41  GLU41       0.2287
     15  O        -14.5480   13.8230   -3.4150 O.2    41  GLU41      -0.2864
     16  CB       -15.9370   11.1910   -4.1490 C.3    41  GLU41       0.0415
     17  CG       -15.8940    9.6960   -4.3330 C.3    41  GLU41       0.1163
     18  CD       -16.4620    9.3350   -5.6690 C.2    41  GLU41       0.3649
     19  OE1      -15.6610    9.1060   -6.5860 O.co2  41  GLU41      -0.2457
     20  OE2      -17.6960    9.3380   -5.8120 O.co2  41  GLU41      -0.2457
     21  N        -17.4540   14.9630   -4.4950 N.3    43  GLU43      -0.1245
     22  CA       -17.5510   15.2840   -5.9090 C.3    43  GLU43       0.1567
     23  C        -19.0070   15.3700   -6.3150 C.2    43  GLU43       0.2260
     24  O        -19.8480   14.6710   -5.7550 O.2    43  GLU43      -0.2867
     25  CB       -16.8610   14.2120   -6.7500 C.3    43  GLU43       0.0388
     26  CG       -15.3560   14.3670   -6.8380 C.3    43  GLU43       0.1160
     27  CD       -14.6930   13.2780   -7.6620 C.2    43  GLU43       0.3649
     28  OE1      -15.4080   12.3590   -8.1260 O.co2  43  GLU43      -0.2457
     29  OE2      -13.4530   13.3360   -7.8310 O.co2  43  GLU43      -0.2457
     30  N        -21.5530   14.8010   -9.4860 N.3    45  ASP45      -0.1239
     31  CA       -21.7600   14.1700  -10.7940 C.3    45  ASP45       0.1674
     32  C        -23.0460   14.6910  -11.4300 C.2    45  ASP45       0.2266
     33  O        -24.0900   14.7380  -10.7720 O.2    45  ASP45      -0.2867
     34  CB       -21.9070   12.6470  -10.6580 C.3    45  ASP45       0.1410
     35  CG       -20.6470   11.9580  -10.1540 C.2    45  ASP45       0.3668
     36  OD1      -19.7310   12.6460   -9.6740 O.co2  45  ASP45      -0.2456
     37  OD2      -20.5720   10.7040  -10.2480 O.co2  45  ASP45      -0.2456
     38  N        -15.7630   10.1650  -18.8590 N.3    68  ILE68      -0.1245
     39  CA       -15.9370    8.7570  -18.5940 C.3    68  ILE68       0.1561
     40  C        -17.4010    8.6280  -18.1720 C.2    68  ILE68       0.2260
     41  O        -17.7340    8.5940  -16.9910 O.2    68  ILE68      -0.2867
     42  CB       -14.9500    8.2850  -17.5240 C.3    68  ILE68       0.0252
     43  CG1      -13.5170    8.6170  -17.9690 C.3    68  ILE68       0.0019
     44  CG2      -15.1240    6.7960  -17.2350 C.3    68  ILE68       0.0019
     45  CD1      -12.4880    8.5170  -16.8680 C.3    68  ILE68       0.0001
     46  N        -20.7360    6.9760  -17.4150 N.3    70  CYS70      -0.1235
     47  CA       -21.0900    5.6610  -16.9050 C.3    70  CYS70       0.1677
     48  C        -22.5910    5.4240  -16.9660 C.2    70  CYS70       0.2270
     49  O        -23.3710    6.3510  -16.8160 O.2    70  CYS70      -0.2867
     50  CB       -20.6170    5.5200  -15.4640 C.3    70  CYS70       0.0956
     51  SG       -18.8240    5.6760  -15.2660 S.3    70  CYS70      -0.0801
     52  N        -13.2530    2.9620   -3.7130 N.3    94  ASN94      -0.1240
     53  CA       -14.6920    2.8690   -3.3810 C.3    94  ASN94       0.1653
     54  C        -15.3650    1.5650   -3.8960 C.2    94  ASN94       0.2266
     55  O        -16.5970    1.4230   -3.8630 O.2    94  ASN94      -0.2867
     56  CB       -15.4340    4.0840   -3.9590 C.3    94  ASN94       0.1155
     57  CG       -14.9230    5.4210   -3.4180 C.2    94  ASN94       0.2627
     58  OD1      -14.6860    6.3630   -4.1850 O.2    94  ASN94      -0.2716
     59  ND2      -14.7680    5.5170   -2.1030 N.am   94  ASN94      -0.0877
     60  N        -15.8940    0.7320   -6.8630 N.3    96  THR96      -0.1218
     61  CA       -16.8120    1.1960   -7.9000 C.3    96  THR96       0.1862
     62  C        -17.0830    0.0530   -8.8730 C.2    96  THR96       0.2287
     63  O        -16.1500   -0.5260   -9.4210 O.2    96  THR96      -0.2866
     64  CB       -16.2240    2.3960   -8.6670 C.3    96  THR96       0.1770
     65  OG1      -15.7960    3.3950   -7.7350 O.3    96  THR96      -0.2211
     66  CG2      -17.2470    2.9990   -9.6130 C.3    96  THR96       0.0375
     67  N        -17.5860   -1.2400  -11.7820 N.3    98  PHE98      -0.1241
     68  CA       -17.4610   -1.2190  -13.2370 C.3    98  PHE98       0.1605
     69  C        -17.6670   -2.6320  -13.7730 C.2    98  PHE98       0.2264
     70  O        -17.0620   -3.5700  -13.2800 O.2    98  PHE98      -0.2867
     71  CB       -16.0710   -0.7570  -13.6800 C.3    98  PHE98       0.0534
     72  CG       -15.8240    0.7200  -13.5240 C.ar   98  PHE98      -0.0203
     73  CD1      -16.2300    1.6140  -14.5130 C.ar   98  PHE98      -0.0042
     74  CD2      -15.1450    1.2120  -12.4180 C.ar   98  PHE98      -0.0042
     75  CE1      -15.9790    2.9670  -14.3940 C.ar   98  PHE98      -0.0003
     76  CE2      -14.8970    2.5740  -12.2900 C.ar   98  PHE98      -0.0003
     77  CZ       -15.3080    3.4490  -13.2850 C.ar   98  PHE98      -0.0000
     78  N        -22.2150    0.4520  -14.5900 N.3   143  LEU143     -0.1245
     79  CA       -21.9890    0.2740  -13.1610 C.3   143  LEU143      0.1561
     80  C        -23.1660   -0.4840  -12.5750 C.2   143  LEU143      0.2260
     81  O        -24.3310   -0.1780  -12.8810 O.2   143  LEU143     -0.2867
     82  CB       -21.8810    1.6230  -12.4410 C.3   143  LEU143      0.0270
     83  CG       -20.7720    2.5660  -12.9110 C.3   143  LEU143      0.0019
     84  CD1      -20.9280    3.9610  -12.3240 C.3   143  LEU143      0.0001
     85  CD2      -19.4260    1.9850  -12.5350 C.3   143  LEU143      0.0001
     86  N        -25.4140    1.5530    0.0570 N.3   153  ARG153     -0.1245
     87  CA       -24.1140    2.0930   -0.3600 C.3   153  ARG153      0.1563
     88  C        -24.3130    3.5380   -0.8070 C.2   153  ARG153      0.2260
     89  O        -25.1740    3.8220   -1.6270 O.2   153  ARG153     -0.2867
     90  CB       -23.5200    1.2780   -1.5070 C.3   153  ARG153      0.0307
     91  CG       -22.1570    1.7630   -2.0070 C.3   153  ARG153      0.0489
     92  CD       -21.6190    0.8600   -3.1100 C.3   153  ARG153      0.2205
     93  NE       -20.3110    1.2940   -3.6120 N.pl3 153  ARG153     -0.0865
     94  CZ       -20.1260    2.2230   -4.5510 C.cat 153  ARG153      0.5346
     95  NH1      -21.1660    2.8480   -5.1170 N.pl3 153  ARG153      0.1354
     96  NH2      -18.8940    2.5320   -4.9330 N.pl3 153  ARG153      0.1354
     97  N        -22.6040    7.6210   -5.9030 N.3   156  HIS156     -0.1226
     98  CA       -23.3610    8.2340   -7.0030 C.3   156  HIS156      0.1752
     99  C        -24.0810    7.1680   -7.8220 C.2   156  HIS156      0.2596
    100  O        -25.1360    7.4400   -8.3670 O.2   156  HIS156     -0.2718
    101  CB       -22.4730    9.0470   -7.9380 C.3   156  HIS156      0.0759
    102  CG       -21.8800   10.2700   -7.3160 C.ar  156  HIS156      0.0818
    103  ND1      -20.5780   10.3130   -6.8690 N.ar  156  HIS156     -0.2268
    104  CD2      -22.4020   11.4960   -7.0760 C.ar  156  HIS156      0.1154
    105  CE1      -20.3190   11.5150   -6.3850 C.ar  156  HIS156      0.1986
    106  NE2      -21.4100   12.2520   -6.4990 N.ar  156  HIS156     -0.2212
    107  N        -23.5120    5.9660   -7.9190 N.am  157  THR157     -0.1953
    108  CA       -24.1660    4.8550   -8.6330 C.3   157  THR157      0.1897
    109  C        -25.5610    4.5660   -8.0790 C.2   157  THR157      0.2313
    110  O        -26.5450    4.5310   -8.8320 O.2   157  THR157     -0.2863
    111  CB       -23.3450    3.5480   -8.5630 C.3   157  THR157      0.1794
    112  OG1      -22.0040    3.7820   -9.0190 O.3   157  THR157     -0.2208
    113  CG2      -23.9890    2.4600   -9.4410 C.3   157  THR157      0.0378
    114  N        -24.1650    8.9320  -15.4510 N.3   175  LEU175     -0.1245
    115  CA       -23.4650    9.8730  -14.5830 C.3   175  LEU175      0.1561
    116  C        -22.0960   10.2120  -15.1420 C.2   175  LEU175      0.2260
    117  O        -21.5040    9.4410  -15.9200 O.2   175  LEU175     -0.2867
    118  CB       -23.3500    9.3340  -13.1530 C.3   175  LEU175      0.0270
    119  CG       -22.5090    8.0860  -12.8470 C.3   175  LEU175      0.0019
    120  CD1      -21.0110    8.2870  -13.0640 C.3   175  LEU175      0.0001
    121  CD2      -22.7470    7.6230  -11.4170 C.3   175  LEU175      0.0001
    122  N        -18.5350   12.9370  -13.7600 N.3   177  GLU177     -0.1245
    123  CA       -18.0200   13.8420  -12.7280 C.3   177  GLU177      0.1567
    124  C        -17.7280   15.2320  -13.2840 C.2   177  GLU177      0.2260
    125  O        -16.9410   15.3800  -14.2120 O.2   177  GLU177     -0.2867
    126  CB       -16.7380   13.2960  -12.1000 C.3   177  GLU177      0.0388
    127  CG       -16.8210   11.8730  -11.5610 C.3   177  GLU177      0.1160
    128  CD       -16.3470   10.8170  -12.5530 C.2   177  GLU177      0.3649
    129  OE1      -16.4330   11.0370  -13.7900 O.co2 177  GLU177     -0.2457
    130  OE2      -15.9120    9.7430  -12.0840 O.co2 177  GLU177     -0.2457
@<TRIPOS>BOND
     1    38    39    1
     2    39    40    1
     3    39    42    1
     4    40    41    2
     5    43    42    1
     6    43    45    1
     7    42    44    1
     8    46    47    1
     9    48    47    1
    10    48    49    2
    11    47    50    1
    12   117   116    2
    13    50    51    1
    14   114   115    1
    15   116   115    1
    16    78    79    1
    17   115   118    1
    18    73    75   ar
    19    73    72   ar
    20    75    77   ar
    21   125   124    2
    22   129   128   ar
    23    69    70    2
    24    69    68    1
    25   122   123    1
    26    71    72    1
    27    71    68    1
    28    72    74   ar
    29    77    76   ar
    30   124   123    1
    31    68    67    1
    32    79    80    1
    33    79    82    1
    34   118   119    1
    35   120   119    1
    36    83    85    1
    37    83    82    1
    38    83    84    1
    39    81    80    2
    40   119   121    1
    41   123   126    1
    42   128   130   ar
    43   128   127    1
    44    74    76   ar
    45   126   127    1
    46    32    31    1
    47    32    33    2
    48    31    34    1
    49    31    30    1
    50    34    35    1
    51    37    35   ar
    52    35    36   ar
    53    66    64    1
    54   113   111    1
    55    63    62    2
    56   112   111    1
    57    62    61    1
    58   110   109    2
    59    64    61    1
    60    64    65    1
    61   108   111    1
    62   108   109    1
    63   108   107    1
    64   100    99    2
    65    28    27   ar
    66   101   102    1
    67   101    98    1
    68   107    99   am
    69    61    60    1
    70    29    27   ar
    71    99    98    1
    72    27    26    1
    73   102   104   ar
    74   102   103   ar
    75   104   106   ar
    76    98    97    1
    77   103   105   ar
    78    26    25    1
    79    25    22    1
    80    19    18   ar
    81   106   105   ar
    82    23    22    1
    83    23    24    2
    84    22    21    1
    85    20    18   ar
    86    18    17    1
    87    95    94    1
    88    96    94    1
    89    94    93    2
    90    17    16    1
    91    58    57    2
    92    16    13    1
    93    56    57    1
    94    56    53    1
    95    54    55    2
    96    54    53    1
    97    52    53    1
    98    93    92    1
    99    10     9    1
   100    57    59   am
   101    15    14    2
   102    11     9    1
   103    92    91    1
   104    13    14    1
   105    13    12    1
   106     9     8    2
   107    91    90    1
   108    12     3   am
   109    89    88    2
   110    90    87    1
   111     8     7    1
   112    88    87    1
   113     7     6    1
   114     3     4    2
   115     3     2    1
   116     6     5    1
   117    87    86    1
   118     5     2    1
   119     2     1    1
