@<TRIPOS>MOLECULE
tmp/4p8hB01.pdb
 128 121 0 0 0
SMALL
GASTEIGER

@<TRIPOS>ATOM
      1  N         12.6860  -18.0850   31.8650 N.3   110  PRO110     -0.2102
      2  CA        13.4920  -19.0540   32.5910 C.3   110  PRO110      0.1504
      3  C         13.5740  -20.3910   31.8590 C.2   110  PRO110      0.2576
      4  O         13.0030  -20.5340   30.7760 O.2   110  PRO110     -0.2718
      5  CB        12.7290  -19.2150   33.9130 C.3   110  PRO110      0.0282
      6  CG        11.3490  -18.6750   33.6680 C.3   110  PRO110      0.0208
      7  CD        11.2700  -18.1720   32.2560 C.3   110  PRO110      0.0893
      8  N         14.2820  -21.3520   32.4530 N.am  111  GLY111     -0.1943
      9  CA        14.4010  -22.7070   31.9110 C.3   111  GLY111      0.2014
     10  C         13.0820  -23.2900   31.4340 C.2   111  GLY111      0.2639
     11  O         13.0230  -23.9220   30.3800 O.2   111  GLY111     -0.2714
     12  N         12.0260  -23.0730   32.2150 N.am  112  THR112     -0.1950
     13  CA        10.6710  -23.4460   31.8120 C.3   112  THR112      0.1897
     14  C          9.7530  -22.2230   31.7320 C.2   112  THR112      0.2313
     15  O          9.8170  -21.3230   32.5750 O.2   112  THR112     -0.2863
     16  CB        10.0550  -24.5250   32.7350 C.3   112  THR112      0.1794
     17  OG1        8.6830  -24.7340   32.3790 O.3   112  THR112     -0.2208
     18  CG2       10.1340  -24.1200   34.2080 C.3   112  THR112      0.0378
     19  N         15.4960  -14.9970   36.5610 N.3   126  HIS126     -0.1226
     20  CA        16.5630  -14.6110   35.6560 C.3   126  HIS126      0.1752
     21  C         16.6910  -15.6250   34.5620 C.2   126  HIS126      0.2597
     22  O         16.3510  -16.7960   34.7450 O.2   126  HIS126     -0.2718
     23  CB        17.8730  -14.5140   36.4220 C.3   126  HIS126      0.0759
     24  CG        18.2410  -15.7840   37.1510 C.ar  126  HIS126      0.0818
     25  ND1       17.9030  -16.0050   38.4330 N.ar  126  HIS126     -0.2268
     26  CD2       18.9250  -16.9200   36.7230 C.ar  126  HIS126      0.1154
     27  CE1       18.3550  -17.2150   38.8120 C.ar  126  HIS126      0.1986
     28  NE2       18.9800  -17.7730   37.7630 N.ar  126  HIS126     -0.2212
     29  N         17.1930  -15.1830   33.4140 N.am  127  GLY127     -0.1942
     30  CA        17.3940  -16.0680   32.2750 C.3   127  GLY127      0.2014
     31  C         18.7660  -15.9250   31.6500 C.2   127  GLY127      0.2638
     32  O         19.7080  -15.4460   32.2880 O.2   127  GLY127     -0.2714
     33  N         18.8630  -16.3380   30.3890 N.am  128  LYS128     -0.1977
     34  CA        20.1130  -16.3200   29.6370 C.3   128  LYS128      0.1596
     35  C         20.5030  -14.9100   29.2010 C.2   128  LYS128      0.2287
     36  O         21.6410  -14.6740   28.7870 O.2   128  LYS128     -0.2864
     37  CB        19.9810  -17.2080   28.4030 C.3   128  LYS128      0.0298
     38  CG        19.8300  -18.6920   28.6960 C.3   128  LYS128      0.0038
     39  CD        18.8560  -19.3720   27.7400 C.3   128  LYS128      0.0206
     40  CE        19.0670  -18.9730   26.2830 C.3   128  LYS128      0.1093
     41  NZ        20.4180  -19.3170   25.7500 N.3   128  LYS128     -0.1314
     42  N         24.4830  -18.5840   27.5840 N.3   222  SER222     -0.1217
     43  CA        24.6200  -19.6550   28.5810 C.3   222  SER222      0.1889
     44  C         25.4170  -20.8170   27.9860 C.2   222  SER222      0.2288
     45  O         25.5380  -20.9280   26.7660 O.2   222  SER222     -0.2866
     46  CB        23.2570  -20.1400   29.0890 C.3   222  SER222      0.2089
     47  OG        22.5060  -20.7530   28.0580 O.3   222  SER222     -0.2183
     48  N         26.5220  -25.1830   28.3390 N.3   224  TRP224     -0.1241
     49  CA        26.5390  -26.5320   28.8990 C.3   224  TRP224      0.1605
     50  C         27.9210  -26.8110   29.3990 C.2   224  TRP224      0.2264
     51  O         28.8940  -26.7380   28.6470 O.2   224  TRP224     -0.2867
     52  CB        26.1190  -27.5800   27.8740 C.3   224  TRP224      0.0550
     53  CG        24.6470  -27.5530   27.5370 C.ar  224  TRP224      0.0003
     54  CD1       24.0650  -27.4430   26.2750 C.ar  224  TRP224      0.0946
     55  CD2       23.5130  -27.6330   28.4720 C.ar  224  TRP224      0.0152
     56  NE1       22.6960  -27.4530   26.3640 N.ar  224  TRP224     -0.2442
     57  CE2       22.2990  -27.5630   27.6500 C.ar  224  TRP224      0.0810
     58  CE3       23.3870  -27.7500   29.8530 C.ar  224  TRP224      0.0012
     59  CZ2       21.0330  -27.6080   28.2080 C.ar  224  TRP224      0.0191
     60  CZ3       22.1030  -27.7980   30.4030 C.ar  224  TRP224      0.0001
     61  CH2       20.9570  -27.7250   29.6000 C.ar  224  TRP224      0.0015
     62  N         22.1670  -24.3350   43.0960 N.3   291  GLN291     -0.1245
     63  CA        22.4990  -23.1350   42.3170 C.3   291  GLN291      0.1566
     64  C         23.1520  -22.0630   43.1900 C.2   291  GLN291      0.2260
     65  O         22.7090  -21.8160   44.3130 O.2   291  GLN291     -0.2867
     66  CB        21.2500  -22.5640   41.6290 C.3   291  GLN291      0.0367
     67  CG        21.5020  -21.2820   40.8420 C.3   291  GLN291      0.0905
     68  CD        20.3450  -20.8720   39.9500 C.2   291  GLN291      0.2608
     69  OE1       19.1960  -21.2540   40.1720 O.2   291  GLN291     -0.2717
     70  NE2       20.6470  -20.0760   38.9340 N.am  291  GLN291     -0.0878
     71  N         24.0060  -32.4410   34.1660 N.3   318  LEU318     -0.1245
     72  CA        23.3610  -31.1870   33.7750 C.3   318  LEU318      0.1561
     73  C         23.9440  -30.0130   34.5610 C.2   318  LEU318      0.2260
     74  O         23.6550  -29.8440   35.7490 O.2   318  LEU318     -0.2867
     75  CB        21.8380  -31.2780   33.9650 C.3   318  LEU318      0.0270
     76  CG        20.9290  -30.1960   33.3590 C.3   318  LEU318      0.0019
     77  CD1       19.6140  -30.8020   32.8880 C.3   318  LEU318      0.0001
     78  CD2       20.6740  -29.0460   34.3260 C.3   318  LEU318      0.0001
     79  N         24.5760  -25.7960   34.0570 N.3   320  VAL320     -0.1245
     80  CA        24.4110  -24.5640   33.2880 C.3   320  VAL320      0.1561
     81  C         25.3500  -23.4870   33.8190 C.2   320  VAL320      0.2260
     82  O         25.3420  -23.1760   35.0090 O.2   320  VAL320     -0.2867
     83  CB        22.9510  -24.0560   33.3060 C.3   320  VAL320      0.0252
     84  CG1       22.7910  -22.8450   32.3960 C.3   320  VAL320      0.0019
     85  CG2       21.9900  -25.1580   32.8820 C.3   320  VAL320      0.0019
     86  N         26.6900  -19.4810   33.3940 N.3   322  LYS322     -0.1245
     87  CA        26.4380  -18.1380   32.8740 C.3   322  LYS322      0.1561
     88  C         27.1070  -17.0580   33.7200 C.2   322  LYS322      0.2260
     89  O         27.1910  -17.1730   34.9430 O.2   322  LYS322     -0.2867
     90  CB        24.9340  -17.8570   32.7730 C.3   322  LYS322      0.0271
     91  CG        24.6180  -16.5020   32.1650 C.3   322  LYS322      0.0035
     92  CD        23.1500  -16.1350   32.2690 C.3   322  LYS322      0.0206
     93  CE        22.9540  -14.6500   32.0030 C.3   322  LYS322      0.1093
     94  NZ        23.5730  -14.2110   30.7220 N.3   322  LYS322     -0.1314
     95  N         26.5620  -13.4140   35.0530 N.3   324  PHE324     -0.1241
     96  CA        25.4910  -12.4480   35.2980 C.3   324  PHE324      0.1605
     97  C         25.9290  -11.0160   34.9990 C.2   324  PHE324      0.2264
     98  O         27.1140  -10.7480   34.7950 O.2   324  PHE324     -0.2867
     99  CB        25.0010  -12.5310   36.7490 C.3   324  PHE324      0.0534
    100  CG        23.9170  -13.5510   36.9840 C.ar  324  PHE324     -0.0203
    101  CD1       23.0800  -13.9720   35.9510 C.ar  324  PHE324     -0.0042
    102  CD2       23.7070  -14.0620   38.2600 C.ar  324  PHE324     -0.0042
    103  CE1       22.0760  -14.9010   36.1840 C.ar  324  PHE324     -0.0003
    104  CE2       22.7030  -14.9870   38.5000 C.ar  324  PHE324     -0.0003
    105  CZ        21.8880  -15.4080   37.4610 C.ar  324  PHE324     -0.0000
    106  N         27.3110  -17.2930   37.8430 N.3   340  ASN340     -0.1240
    107  CA        26.1830  -18.1150   38.2480 C.3   340  ASN340      0.1653
    108  C         26.2810  -19.5060   37.6470 C.2   340  ASN340      0.2266
    109  O         26.6500  -19.6640   36.4810 O.2   340  ASN340     -0.2867
    110  CB        24.8630  -17.4590   37.8490 C.3   340  ASN340      0.1155
    111  CG        23.6710  -18.3770   38.0470 C.2   340  ASN340      0.2627
    112  OD1       23.0000  -18.3350   39.0760 O.2   340  ASN340     -0.2716
    113  ND2       23.4170  -19.2280   37.0650 N.am  340  ASN340     -0.0877
    114  N         24.1250  -23.4910   38.1020 N.3   342  CYS342     -0.1235
    115  CA        23.2530  -24.4810   38.7200 C.3   342  CYS342      0.1677
    116  C         23.6550  -25.8720   38.3450 C.2   342  CYS342      0.2270
    117  O         24.0300  -26.1520   37.2030 O.2   342  CYS342     -0.2867
    118  CB        21.7780  -24.2920   38.3940 C.3   342  CYS342      0.0956
    119  SG        21.5670  -23.0000   37.2260 S.3   342  CYS342     -0.0801
    120  N         15.1870  -22.5310   45.0730 N.3   373  LYS373     -0.1245
    121  CA        15.7400  -23.8830   45.1150 C.3   373  LYS373      0.1561
    122  C         16.2640  -24.2090   46.5120 C.2   373  LYS373      0.2260
    123  O         17.3070  -24.8520   46.6590 O.2   373  LYS373     -0.2867
    124  CB        16.8620  -24.0290   44.0790 C.3   373  LYS373      0.0271
    125  CG        16.4760  -23.6240   42.6650 C.3   373  LYS373      0.0035
    126  CD        17.6210  -23.8440   41.6950 C.3   373  LYS373      0.0206
    127  CE        17.1350  -23.7690   40.2580 C.3   373  LYS373      0.1093
    128  NZ        18.2300  -24.0750   39.2970 N.3   373  LYS373     -0.1314
@<TRIPOS>BOND
     1    41    40    1
     2    54    56   ar
     3    54    53   ar
     4    40    39    1
     5    56    57   ar
     6    45    44    2
     7    53    52    1
     8    53    55   ar
     9    42    43    1
    10    57    59   ar
    11    57    55   ar
    12    39    38    1
    13    52    49    1
    14    44    43    1
    15    47    46    1
    16    59    61   ar
    17    48    49    1
    18    37    38    1
    19    37    34    1
    20    55    58   ar
    21    43    46    1
    22    51    50    2
    23    36    35    2
    24    49    50    1
    25    35    34    1
    26    61    60   ar
    27    34    33    1
    28    58    60   ar
    29    11    10    2
    30    33    31   am
    31    94    93    1
    32     4     3    2
    33    10     9    1
    34    10    12   am
    35    31    30    1
    36    31    32    2
    37    14    13    1
    38    14    15    2
    39    13    12    1
    40    13    16    1
    41     3     8   am
    42     3     2    1
    43     1     7    1
    44     1     2    1
    45     9     8    1
    46    93    92    1
    47    91    92    1
    48    91    90    1
    49     7     6    1
    50    30    29    1
    51    17    16    1
    52    84    83    1
    53     2     5    1
    54    16    18    1
    55    90    87    1
    56    87    86    1
    57    87    88    1
    58    85    83    1
    59    77    76    1
    60    80    83    1
    61    80    81    1
    62    80    79    1
    63    76    75    1
    64    76    78    1
    65    29    21   am
    66     6     5    1
    67    88    89    2
    68    72    75    1
    69    72    71    1
    70    72    73    1
    71    81    82    2
    72    73    74    2
    73    21    22    2
    74    21    20    1
    75    98    97    2
    76    97    96    1
    77    95    96    1
    78    96    99    1
    79    20    23    1
    80    20    19    1
    81   101   103   ar
    82   101   100   ar
    83   103   105   ar
    84    23    24    1
    85   109   108    2
    86    26    24   ar
    87    26    28   ar
    88    99   100    1
    89   100   102   ar
    90   113   111   am
    91    24    25   ar
    92   117   116    2
    93   119   118    1
    94   105   104   ar
    95   108   107    1
    96    28    27   ar
    97   106   107    1
    98   110   111    1
    99   110   107    1
   100   111   112    2
   101   114   115    1
   102   102   104   ar
   103   116   115    1
   104   118   115    1
   105    25    27   ar
   106    70    68   am
   107   128   127    1
   108    68    69    2
   109    68    67    1
   110   127   126    1
   111    67    66    1
   112    66    63    1
   113   126   125    1
   114    63    62    1
   115    63    64    1
   116   125   124    1
   117    64    65    2
   118   124   121    1
   119   120   121    1
   120   121   122    1
   121   122   123    2
