@<TRIPOS>MOLECULE
tmp/4p8kA01.pdb
 182 172 0 0 0
SMALL
GASTEIGER

@<TRIPOS>ATOM
      1  N         21.6230  -12.4420   -5.8990 N.3    56  TYR56      -0.1241
      2  CA        21.5420  -13.2150   -7.1350 C.3    56  TYR56       0.1605
      3  C         21.6560  -12.3660   -8.3950 C.2    56  TYR56       0.2264
      4  O         22.1750  -12.8270   -9.4150 O.2    56  TYR56      -0.2867
      5  CB        20.2490  -14.0330   -7.1610 C.3    56  TYR56       0.0534
      6  CG        20.2500  -15.1940   -6.1900 C.ar   56  TYR56      -0.0201
      7  CD1       20.4400  -16.5030   -6.6390 C.ar   56  TYR56      -0.0009
      8  CD2       20.0680  -14.9860   -4.8210 C.ar   56  TYR56      -0.0009
      9  CE1       20.4400  -17.5720   -5.7530 C.ar   56  TYR56       0.0417
     10  CE2       20.0680  -16.0450   -3.9280 C.ar   56  TYR56       0.0417
     11  CZ        20.2520  -17.3360   -4.3950 C.ar   56  TYR56       0.1957
     12  OH        20.2520  -18.3870   -3.5050 O.3    56  TYR56      -0.2866
     13  N         19.8760  -14.9200    7.6710 N.3   112  PRO112     -0.2102
     14  CA        19.3830  -15.4000    6.3870 C.3   112  PRO112      0.1504
     15  C         19.7150  -16.8780    6.1740 C.2   112  PRO112      0.2576
     16  O         20.3400  -17.4970    7.0340 O.2   112  PRO112     -0.2718
     17  CB        20.1430  -14.5320    5.3850 C.3   112  PRO112      0.0282
     18  CG        21.4200  -14.1810    6.0730 C.3   112  PRO112      0.0208
     19  CD        21.2140  -14.3110    7.5550 C.3   112  PRO112      0.0893
     20  N         19.3070  -17.4250    5.0290 N.am  113  GLY113     -0.1943
     21  CA        19.5410  -18.8330    4.6870 C.3   113  GLY113      0.2014
     22  C         21.0020  -19.2390    4.5800 C.2   113  GLY113      0.2639
     23  O         21.3310  -20.4240    4.6520 O.2   113  GLY113     -0.2714
     24  N         21.8750  -18.2550    4.3890 N.am  114  THR114     -0.1950
     25  CA        23.3160  -18.4710    4.3900 C.3   114  THR114      0.1897
     26  C         23.9440  -17.4620    5.3430 C.2   114  THR114      0.2313
     27  O         23.4070  -16.3730    5.5400 O.2   114  THR114     -0.2863
     28  CB        23.9240  -18.3390    2.9720 C.3   114  THR114      0.1794
     29  OG1       25.3320  -18.5990    3.0240 O.3   114  THR114     -0.2208
     30  CG2       23.6950  -16.9440    2.3920 C.3   114  THR114      0.0378
     31  N         15.7230  -10.6730    5.6530 N.3   128  HIS128     -0.1226
     32  CA        14.7970  -11.3430    6.5560 C.3   128  HIS128      0.1752
     33  C         15.2460  -12.7530    6.8250 C.2   128  HIS128      0.2597
     34  O         16.1240  -13.2760    6.1380 O.2   128  HIS128     -0.2718
     35  CB        13.3950  -11.3410    5.9630 C.3   128  HIS128      0.0759
     36  CG        13.3130  -11.9860    4.6020 C.ar  128  HIS128      0.0818
     37  ND1       13.3390  -11.2740    3.4640 N.ar  128  HIS128     -0.2268
     38  CD2       13.2130  -13.3240    4.2270 C.ar  128  HIS128      0.1154
     39  CE1       13.2490  -12.1080    2.4120 C.ar  128  HIS128      0.1986
     40  NE2       13.1720  -13.3630    2.8820 N.ar  128  HIS128     -0.2212
     41  N         14.6380  -13.3810    7.8280 N.am  129  GLY129     -0.1942
     42  CA        14.9670  -14.7540    8.2000 C.3   129  GLY129      0.2014
     43  C         13.7590  -15.4970    8.7230 C.2   129  GLY129      0.2638
     44  O         12.6280  -15.0090    8.6190 O.2   129  GLY129     -0.2714
     45  N         14.0020  -16.6780    9.2900 N.am  130  LYS130     -0.1977
     46  CA        12.9410  -17.5260    9.8430 C.3   130  LYS130      0.1596
     47  C         12.1160  -16.8360   10.9310 C.2   130  LYS130      0.2287
     48  O         10.9720  -17.2140   11.1790 O.2   130  LYS130     -0.2864
     49  CB        13.5290  -18.8280   10.4010 C.3   130  LYS130      0.0298
     50  CG        13.9430  -19.8420    9.3490 C.3   130  LYS130      0.0038
     51  CD        14.2900  -21.1910    9.9670 C.3   130  LYS130      0.0206
     52  CE        13.1000  -21.8090   10.6980 C.3   130  LYS130      0.1093
     53  NZ        13.1580  -23.2960   10.7190 N.3   130  LYS130     -0.1314
     54  N          9.4740  -21.5610    9.3570 N.3   224  SER224     -0.1217
     55  CA         9.6120  -21.6540    7.9010 C.3   224  SER224      0.1889
     56  C          9.2170  -23.0590    7.4560 C.2   224  SER224      0.2288
     57  O          9.0640  -23.9560    8.2870 O.2   224  SER224     -0.2866
     58  CB        11.0410  -21.3320    7.4530 C.3   224  SER224      0.2089
     59  OG        11.9400  -22.3670    7.8060 O.3   224  SER224     -0.2183
     60  N          9.3070  -26.1240    3.9250 N.3   226  TRP226     -0.1241
     61  CA         9.5610  -26.5740    2.5660 C.3   226  TRP226      0.1605
     62  C          8.2940  -27.1420    1.9950 C.2   226  TRP226      0.2264
     63  O          7.6660  -28.0050    2.6090 O.2   226  TRP226     -0.2867
     64  CB        10.6850  -27.6040    2.5430 C.3   226  TRP226      0.0550
     65  CG        12.0510  -26.9880    2.7350 C.ar  226  TRP226      0.0003
     66  CD1       13.0200  -26.7540    1.7640 C.ar  226  TRP226      0.0946
     67  CD2       12.6380  -26.4850    3.9870 C.ar  226  TRP226      0.0152
     68  NE1       14.1320  -26.1680    2.3130 N.ar  226  TRP226     -0.2442
     69  CE2       13.9690  -25.9790    3.6410 C.ar  226  TRP226      0.0810
     70  CE3       12.2140  -26.4110    5.3070 C.ar  226  TRP226      0.0012
     71  CZ2       14.8140  -25.4290    4.5890 C.ar  226  TRP226      0.0191
     72  CZ3       13.0750  -25.8520    6.2530 C.ar  226  TRP226      0.0001
     73  CH2       14.3430  -25.3740    5.9010 C.ar  226  TRP226      0.0015
     74  N         18.2390  -24.6470   11.4080 N.3   310  TYR310     -0.1241
     75  CA        18.2920  -23.4900   10.5150 C.3   310  TYR310      0.1605
     76  C         18.8880  -23.7490    9.1300 C.2   310  TYR310      0.2264
     77  O         18.4280  -23.1620    8.1480 O.2   310  TYR310     -0.2867
     78  CB        19.0330  -22.3290   11.1870 C.3   310  TYR310      0.0534
     79  CG        18.4770  -20.9780   10.8220 C.ar  310  TYR310     -0.0201
     80  CD1       18.7900  -20.3760    9.6030 C.ar  310  TYR310     -0.0009
     81  CD2       17.6270  -20.3020   11.6910 C.ar  310  TYR310     -0.0009
     82  CE1       18.2690  -19.1410    9.2620 C.ar  310  TYR310      0.0417
     83  CE2       17.1030  -19.0640   11.3620 C.ar  310  TYR310      0.0417
     84  CZ        17.4270  -18.4900   10.1470 C.ar  310  TYR310      0.1957
     85  OH        16.9030  -17.2620    9.8230 O.3   310  TYR310     -0.2866
     86  N         19.3360  -26.7190    6.8590 N.3   312  PRO312     -0.2116
     87  CA        19.2580  -28.0470    6.2580 C.3   312  PRO312      0.1372
     88  C         19.2050  -27.9880    4.7300 C.2   312  PRO312      0.2244
     89  O         20.0970  -28.5100    4.0580 O.2   312  PRO312     -0.2868
     90  CB        17.9390  -28.5970    6.8140 C.3   312  PRO312      0.0268
     91  CG        17.1350  -27.3940    7.2250 C.3   312  PRO312      0.0207
     92  CD        17.9860  -26.1620    7.0540 C.3   312  PRO312      0.0892
     93  N         20.8880  -27.6280   -5.0500 N.3   313  ALA313     -0.1245
     94  CA        20.3260  -27.5730   -6.3940 C.3   313  ALA313      0.1562
     95  C         21.3810  -27.1680   -7.4190 C.2   313  ALA313      0.2260
     96  O         21.8740  -26.0350   -7.4090 O.2   313  ALA313     -0.2867
     97  CB        19.1370  -26.6230   -6.4400 C.3   313  ALA313      0.0290
     98  N         16.4490  -17.9200   -9.3930 N.3   321  GLN321     -0.1245
     99  CA        15.8670  -17.7610   -8.0700 C.3   321  GLN321      0.1566
    100  C         14.7830  -16.6960   -8.1530 C.2   321  GLN321      0.2260
    101  O         15.0040  -15.6120   -8.7010 O.2   321  GLN321     -0.2867
    102  CB        16.9380  -17.3660   -7.0500 C.3   321  GLN321      0.0367
    103  CG        16.9030  -18.1680   -5.7520 C.3   321  GLN321      0.0905
    104  CD        15.7690  -17.7790   -4.8160 C.2   321  GLN321      0.2608
    105  OE1       15.2290  -18.6190   -4.0980 O.2   321  GLN321     -0.2717
    106  NE2       15.4090  -16.5030   -4.8140 N.am  321  GLN321     -0.0878
    107  N         11.7190  -14.9480   -5.7810 N.3   323  GLN323     -0.1245
    108  CA        11.1090  -14.7590   -4.4790 C.3   323  GLN323      0.1566
    109  C         10.0910  -13.6230   -4.4800 C.2   323  GLN323      0.2260
    110  O         10.3620  -12.5370   -4.9870 O.2   323  GLN323     -0.2867
    111  CB        12.1840  -14.5280   -3.4160 C.3   323  GLN323      0.0367
    112  CG        11.6220  -14.3100   -2.0210 C.3   323  GLN323      0.0905
    113  CD        12.6780  -14.3080   -0.9430 C.2   323  GLN323      0.2608
    114  OE1       13.8740  -14.3270   -1.2200 O.2   323  GLN323     -0.2717
    115  NE2       12.2350  -14.2970    0.3030 N.am  323  GLN323     -0.0878
    116  N         13.5340  -26.8550   -4.5480 N.3   350  LEU350     -0.1245
    117  CA        13.8380  -26.1460   -3.3090 C.3   350  LEU350      0.1561
    118  C         12.8780  -24.9750   -3.1320 C.2   350  LEU350      0.2260
    119  O         13.0490  -23.9160   -3.7390 O.2   350  LEU350     -0.2867
    120  CB        15.2920  -25.6600   -3.2880 C.3   350  LEU350      0.0270
    121  CG        16.4530  -26.6500   -3.4530 C.3   350  LEU350      0.0019
    122  CD1       17.7560  -25.9460   -3.1090 C.3   350  LEU350      0.0001
    123  CD2       16.2910  -27.9050   -2.6020 C.3   350  LEU350      0.0001
    124  N         10.9530  -22.4450   -0.4650 N.3   352  VAL352     -0.1245
    125  CA        10.8150  -21.8540    0.8610 C.3   352  VAL352      0.1561
    126  C          9.4370  -21.2100    1.0230 C.2   352  VAL352      0.2260
    127  O          9.0090  -20.4150    0.1880 O.2   352  VAL352     -0.2867
    128  CB        11.9460  -20.8440    1.1550 C.3   352  VAL352      0.0252
    129  CG1       11.5860  -19.9400    2.3260 C.3   352  VAL352      0.0019
    130  CG2       13.2500  -21.5780    1.4330 C.3   352  VAL352      0.0019
    131  N          7.1410  -19.1610    3.9780 N.3   354  LYS354     -0.1245
    132  CA         7.1380  -18.4660    5.2570 C.3   354  LYS354      0.1561
    133  C          6.0600  -17.3800    5.2950 C.2   354  LYS354      0.2260
    134  O          5.8510  -16.6770    4.3080 O.2   354  LYS354     -0.2867
    135  CB         8.5290  -17.8800    5.5420 C.3   354  LYS354      0.0271
    136  CG         8.5240  -16.6350    6.4090 C.3   354  LYS354      0.0035
    137  CD         9.7190  -16.5800    7.3360 C.3   354  LYS354      0.0206
    138  CE         9.3510  -15.8370    8.6080 C.3   354  LYS354      0.1093
    139  NZ         8.4370  -16.6360    9.4740 N.3   354  LYS354     -0.1314
    140  N          5.3290  -15.5150    1.8860 N.3   372  ASN372     -0.1240
    141  CA         6.6020  -15.4090    1.1920 C.3   372  ASN372      0.1653
    142  C          7.0260  -16.7470    0.5930 C.2   372  ASN372      0.2266
    143  O          6.9480  -17.7860    1.2610 O.2   372  ASN372     -0.2867
    144  CB         7.6810  -14.8920    2.1430 C.3   372  ASN372      0.1155
    145  CG         9.0260  -14.7310    1.4670 C.2   372  ASN372      0.2627
    146  OD1        9.2510  -13.7780    0.7260 O.2   372  ASN372     -0.2716
    147  ND2        9.9330  -15.6650    1.7310 N.am  372  ASN372     -0.0877
    148  N         10.0760  -18.6300   -2.1220 N.3   374  CYS374     -0.1235
    149  CA        11.2190  -18.6750   -3.0320 C.3   374  CYS374      0.1677
    150  C         11.1550  -19.9550   -3.8440 C.2   374  CYS374      0.2270
    151  O         10.9850  -21.0410   -3.2870 O.2   374  CYS374     -0.2867
    152  CB        12.5440  -18.6450   -2.2800 C.3   374  CYS374      0.0956
    153  SG        12.5620  -17.5870   -0.8300 S.3   374  CYS374     -0.0801
    154  N         13.1360  -22.1090   -7.2000 N.3   376  ASP376     -0.1239
    155  CA        14.3170  -22.2430   -8.0450 C.3   376  ASP376      0.1674
    156  C         13.9370  -22.8810   -9.3680 C.2   376  ASP376      0.2266
    157  O         13.6170  -24.0710   -9.4220 O.2   376  ASP376     -0.2867
    158  CB        15.3860  -23.0910   -7.3500 C.3   376  ASP376      0.1410
    159  CG        16.5720  -22.2750   -6.8910 C.2   376  ASP376      0.3668
    160  OD1       17.1830  -21.5710   -7.7300 O.co2 376  ASP376     -0.2456
    161  OD2       16.9070  -22.3540   -5.6910 O.co2 376  ASP376     -0.2456
    162  N         11.8050   -9.3880   -4.6130 N.3   402  TYR402     -0.1241
    163  CA        12.8830   -9.0560   -3.6990 C.3   402  TYR402      0.1605
    164  C         14.1430   -8.7650   -4.5160 C.2   402  TYR402      0.2264
    165  O         14.5950   -9.6100   -5.2930 O.2   402  TYR402     -0.2867
    166  CB        13.0840  -10.2380   -2.7420 C.3   402  TYR402      0.0534
    167  CG        14.0770  -10.0760   -1.6060 C.ar  402  TYR402     -0.0201
    168  CD1       14.5220   -8.8220   -1.1860 C.ar  402  TYR402     -0.0009
    169  CD2       14.5390  -11.2000   -0.9190 C.ar  402  TYR402     -0.0009
    170  CE1       15.4210   -8.7000   -0.1330 C.ar  402  TYR402      0.0417
    171  CE2       15.4340  -11.0900    0.1330 C.ar  402  TYR402      0.0417
    172  CZ        15.8710   -9.8420    0.5230 C.ar  402  TYR402      0.1957
    173  OH        16.7560   -9.7420    1.5690 O.3   402  TYR402     -0.2866
    174  N         17.2070  -11.0080   -5.0170 N.3   405  LYS405     -0.1245
    175  CA        17.0110  -12.1920   -5.8530 C.3   405  LYS405      0.1561
    176  C         16.8280  -11.8540   -7.3340 C.2   405  LYS405      0.2260
    177  O         17.1160  -12.6840   -8.1980 O.2   405  LYS405     -0.2867
    178  CB        15.8050  -13.0150   -5.3620 C.3   405  LYS405      0.0271
    179  CG        15.7930  -13.3460   -3.8730 C.3   405  LYS405      0.0035
    180  CD        17.0390  -14.1080   -3.4470 C.3   405  LYS405      0.0206
    181  CE        17.0730  -14.3760   -1.9500 C.3   405  LYS405      0.1093
    182  NZ        16.2530  -15.5620   -1.5770 N.3   405  LYS405     -0.1314
@<TRIPOS>BOND
     1   157   156    2
     2     4     3    2
     3    98    99    1
     4   156   155    1
     5   101   100    2
     6     3     2    1
     7   177   176    2
     8   100    99    1
     9    99   102    1
    10   155   158    1
    11   155   154    1
    12   160   159   ar
    13    95    96    2
    14    95    94    1
    15   158   159    1
    16   176   175    1
    17     5     2    1
    18     5     6    1
    19     2     1    1
    20   102   103    1
    21   159   161   ar
    22     7     6   ar
    23     7     9   ar
    24    97    94    1
    25    94    93    1
    26     6     8   ar
    27   175   178    1
    28   175   174    1
    29   107   108    1
    30     9    11   ar
    31   103   104    1
    32   178   179    1
    33   165   164    2
    34   110   109    2
    35     8    10   ar
    36   104   106   am
    37   104   105    2
    38   162   163    1
    39   116   117    1
    40   164   163    1
    41   109   108    1
    42   108   111    1
    43    11    10   ar
    44    11    12    1
    45   179   180    1
    46   150   151    2
    47   150   149    1
    48   119   118    2
    49   163   166    1
    50   121   120    1
    51   121   122    1
    52   121   123    1
    53   180   181    1
    54   111   112    1
    55   117   120    1
    56   117   118    1
    57   149   152    1
    58   149   148    1
    59   166   167    1
    60   152   153    1
    61   112   113    1
    62   181   182    1
    63   167   168   ar
    64   167   169   ar
    65   114   113    2
    66   168   170   ar
    67   113   115   am
    68   169   171   ar
    69   124   125    1
    70   170   172   ar
    71   171   172   ar
    72   127   126    2
    73   172   173    1
    74   142   141    1
    75   142   143    2
    76   146   145    2
    77   125   126    1
    78   125   128    1
    79   128   130    1
    80   128   129    1
    81   141   140    1
    82   141   144    1
    83   145   147   am
    84   145   144    1
    85    66    68   ar
    86    66    65   ar
    87    62    61    1
    88    62    63    2
    89    68    69   ar
    90    30    28    1
    91    39    40   ar
    92    39    37   ar
    93    64    61    1
    94    64    65    1
    95    61    60    1
    96    65    67   ar
    97    40    38   ar
    98    28    29    1
    99    28    25    1
   100    37    36   ar
   101    69    67   ar
   102    69    71   ar
   103   131   132    1
   104    67    70   ar
   105    89    88    2
   106    38    36   ar
   107   134   133    2
   108    24    25    1
   109    24    22   am
   110    25    26    1
   111    22    23    2
   112    22    21    1
   113    71    73   ar
   114    36    35    1
   115    21    20    1
   116    88    87    1
   117    20    15   am
   118   132   133    1
   119   132   135    1
   120    70    72   ar
   121    26    27    2
   122    17    18    1
   123    17    14    1
   124   135   136    1
   125    31    32    1
   126    73    72   ar
   127    35    32    1
   128    18    19    1
   129    34    33    2
   130    15    14    1
   131    15    16    2
   132    87    90    1
   133    87    86    1
   134    14    13    1
   135   136   137    1
   136    32    33    1
   137    90    91    1
   138    33    41   am
   139    86    92    1
   140    92    91    1
   141   137   138    1
   142    58    59    1
   143    58    55    1
   144    56    55    1
   145    56    57    2
   146    19    13    1
   147    41    42    1
   148    55    54    1
   149    77    76    2
   150    42    43    1
   151   138   139    1
   152    44    43    2
   153    43    45   am
   154    76    75    1
   155    82    80   ar
   156    82    84   ar
   157    45    46    1
   158    50    51    1
   159    50    49    1
   160    80    79   ar
   161    85    84    1
   162    46    49    1
   163    46    47    1
   164    51    52    1
   165    84    83   ar
   166    75    78    1
   167    75    74    1
   168    52    53    1
   169    79    78    1
   170    79    81   ar
   171    47    48    2
   172    83    81   ar
