@<TRIPOS>MOLECULE
tmp/4p8lB01.pdb
 170 163 0 0 0
SMALL
GASTEIGER

@<TRIPOS>ATOM
      1  N          9.5320  -25.7010   44.4150 N.3    54  TYR54      -0.1241
      2  CA         9.8260  -27.0100   45.0170 C.3    54  TYR54       0.1605
      3  C          9.6310  -27.0430   46.5360 C.2    54  TYR54       0.2264
      4  O          9.3660  -28.1020   47.1070 O.2    54  TYR54      -0.2867
      5  CB        11.2630  -27.4320   44.6990 C.3    54  TYR54       0.0534
      6  CG        11.5160  -27.8310   43.2650 C.ar   54  TYR54      -0.0201
      7  CD1       11.8240  -29.1530   42.9380 C.ar   54  TYR54      -0.0009
      8  CD2       11.4600  -26.8900   42.2290 C.ar   54  TYR54      -0.0009
      9  CE1       12.0680  -29.5260   41.6260 C.ar   54  TYR54       0.0417
     10  CE2       11.7050  -27.2510   40.9090 C.ar   54  TYR54       0.0417
     11  CZ        12.0070  -28.5700   40.6140 C.ar   54  TYR54       0.1957
     12  OH        12.2480  -28.9440   39.3080 O.3    54  TYR54      -0.2866
     13  N         10.8890  -19.3720   32.1160 N.3   110  PRO110     -0.2102
     14  CA        11.6710  -20.3390   32.8750 C.3   110  PRO110      0.1504
     15  C         11.6760  -21.6950   32.1500 C.2   110  PRO110      0.2576
     16  O         11.1190  -21.8010   31.0540 O.2   110  PRO110     -0.2718
     17  CB        10.9080  -20.4240   34.1960 C.3   110  PRO110      0.0282
     18  CG         9.4810  -20.1650   33.8180 C.3   110  PRO110      0.0208
     19  CD         9.4720  -19.3790   32.5270 C.3   110  PRO110      0.0893
     20  N         12.2890  -22.7150   32.7500 N.am  111  GLY111     -0.1957
     21  CA        12.3610  -24.0530   32.1320 C.3   111  GLY111      0.1869
     22  C         11.0390  -24.8090   32.0040 C.2   111  GLY111      0.2309
     23  O         11.0140  -25.9330   31.5080 O.2   111  GLY111     -0.2863
     24  N         13.9270  -16.2720   36.6060 N.3   126  HIS126     -0.1226
     25  CA        14.9410  -16.0190   35.6030 C.3   126  HIS126      0.1752
     26  C         14.8500  -17.0780   34.5530 C.2   126  HIS126      0.2597
     27  O         14.1200  -18.0610   34.7080 O.2   126  HIS126     -0.2718
     28  CB        16.3300  -16.0270   36.2250 C.3   126  HIS126      0.0759
     29  CG        16.6320  -17.2700   37.0380 C.ar  126  HIS126      0.0818
     30  ND1       17.1780  -18.3880   36.4950 N.ar  126  HIS126     -0.2268
     31  CD2       16.4600  -17.5340   38.3820 C.ar  126  HIS126      0.1154
     32  CE1       17.3240  -19.3190   37.4530 C.ar  126  HIS126      0.1986
     33  NE2       16.8880  -18.7950   38.6060 N.ar  126  HIS126     -0.2212
     34  N         15.5840  -16.8910   33.4650 N.am  127  GLY127     -0.1942
     35  CA        15.5460  -17.8500   32.3820 C.3   127  GLY127      0.2014
     36  C         16.8430  -17.8520   31.6140 C.2   127  GLY127      0.2638
     37  O         17.8190  -17.2290   32.0250 O.2   127  GLY127     -0.2714
     38  N         16.8070  -18.5340   30.4760 N.am  128  LYS128     -0.1977
     39  CA        17.9550  -18.7590   29.6090 C.3   128  LYS128      0.1596
     40  C         18.5040  -17.4340   29.0500 C.2   128  LYS128      0.2287
     41  O         19.6600  -17.3450   28.6350 O.2   128  LYS128     -0.2864
     42  CB        17.5040  -19.7130   28.4950 C.3   128  LYS128      0.0298
     43  CG        18.6050  -20.4570   27.7660 C.3   128  LYS128      0.0038
     44  CD        18.0140  -21.4320   26.7540 C.3   128  LYS128      0.0206
     45  CE        19.0870  -21.9960   25.8130 C.3   128  LYS128      0.1093
     46  NZ        18.4680  -22.9460   24.8390 N.3   128  LYS128     -0.1314
     47  N         22.2610  -21.4100   27.7680 N.3   222  SER222     -0.1217
     48  CA        22.3320  -22.3280   28.9070 C.3   222  SER222      0.1889
     49  C         23.0370  -23.6240   28.5160 C.2   222  SER222      0.2288
     50  O         23.2000  -23.9160   27.3260 O.2   222  SER222     -0.2866
     51  CB        20.9510  -22.6310   29.4780 C.3   222  SER222      0.2089
     52  OG        20.1690  -23.3190   28.5360 O.3   222  SER222     -0.2183
     53  N         23.9820  -27.9670   29.7320 N.3   224  TRP224     -0.1241
     54  CA        23.9850  -29.1290   30.6160 C.3   224  TRP224      0.1605
     55  C         25.4160  -29.3790   30.9490 C.2   224  TRP224      0.2264
     56  O         26.2870  -29.1330   30.1180 O.2   224  TRP224     -0.2867
     57  CB        23.3730  -30.3630   29.9530 C.3   224  TRP224      0.0550
     58  CG        23.5370  -31.6200   30.7950 C.ar  224  TRP224      0.0003
     59  CD1       22.6790  -32.0960   31.7920 C.ar  224  TRP224      0.0946
     60  CD2       24.6570  -32.5890   30.7650 C.ar  224  TRP224      0.0152
     61  NE1       23.1690  -33.2520   32.3520 N.ar  224  TRP224     -0.2442
     62  CE2       24.3460  -33.6060   31.7840 C.ar  224  TRP224      0.0810
     63  CE3       25.8370  -32.7120   30.0250 C.ar  224  TRP224      0.0012
     64  CZ2       25.1900  -34.6880   32.0270 C.ar  224  TRP224      0.0191
     65  CZ3       26.6790  -33.8020   30.2850 C.ar  224  TRP224      0.0001
     66  CH2       26.3610  -34.7660   31.2610 C.ar  224  TRP224      0.0015
     67  N         14.0960  -24.9620   24.0010 N.3   286  TYR286     -0.1241
     68  CA        13.9960  -24.6230   25.4250 C.3   286  TYR286      0.1605
     69  C         13.2460  -25.6550   26.2730 C.2   286  TYR286      0.2264
     70  O         13.6990  -25.9880   27.3690 O.2   286  TYR286     -0.2867
     71  CB        13.3320  -23.2410   25.5940 C.3   286  TYR286      0.0534
     72  CG        13.6630  -22.5000   26.8810 C.ar  286  TYR286     -0.0201
     73  CD1       14.2650  -23.1540   27.9640 C.ar  286  TYR286     -0.0009
     74  CD2       13.3580  -21.1440   27.0220 C.ar  286  TYR286     -0.0009
     75  CE1       14.5630  -22.4840   29.1410 C.ar  286  TYR286      0.0417
     76  CE2       13.6500  -20.4610   28.1990 C.ar  286  TYR286      0.0417
     77  CZ        14.2500  -21.1350   29.2560 C.ar  286  TYR286      0.1957
     78  OH        14.5530  -20.4780   30.4350 O.3   286  TYR286     -0.2866
     79  N         11.9630  -29.3210   26.0440 N.3   288  PRO288     -0.2116
     80  CA        13.2900  -29.2420   26.6460 C.3   288  PRO288      0.1372
     81  C         14.3470  -28.8130   25.6270 C.2   288  PRO288      0.2244
     82  O         15.5490  -28.8730   25.9060 O.2   288  PRO288     -0.2868
     83  CB        13.5540  -30.6870   27.1160 C.3   288  PRO288      0.0268
     84  CG        12.3310  -31.4830   26.7580 C.3   288  PRO288      0.0207
     85  CD        11.6410  -30.7100   25.6800 C.3   288  PRO288      0.0892
     86  N         16.0760  -31.0130   44.6730 N.3   292  GLN292     -0.1245
     87  CA        16.6030  -30.0280   43.7380 C.3   292  GLN292      0.1566
     88  C         17.4130  -28.9920   44.5220 C.2   292  GLN292      0.2260
     89  O         16.9500  -28.4650   45.5340 O.2   292  GLN292     -0.2867
     90  CB        15.4600  -29.3840   42.9420 C.3   292  GLN292      0.0367
     91  CG        15.8490  -28.2210   42.0260 C.3   292  GLN292      0.0905
     92  CD        16.6150  -28.6360   40.7760 C.2   292  GLN292      0.2608
     93  OE1       16.5700  -29.7940   40.3510 O.2   292  GLN292     -0.2717
     94  NE2       17.3200  -27.6790   40.1730 N.am  292  GLN292     -0.0878
     95  N         19.6480  -25.4970   43.9150 N.3   294  GLN294     -0.1245
     96  CA        20.1080  -24.4270   43.0270 C.3   294  GLN294      0.1566
     97  C         20.8330  -23.3250   43.7870 C.2   294  GLN294      0.2260
     98  O         20.3380  -22.8270   44.8000 O.2   294  GLN294     -0.2867
     99  CB        18.9510  -23.8410   42.2010 C.3   294  GLN294      0.0367
    100  CG        19.3650  -22.7200   41.2500 C.3   294  GLN294      0.0905
    101  CD        18.2690  -22.3170   40.2670 C.2   294  GLN294      0.2608
    102  OE1       17.1430  -22.8400   40.2980 O.2   294  GLN294     -0.2717
    103  NE2       18.5980  -21.3830   39.3810 N.am  294  GLN294     -0.0878
    104  N         20.5600  -34.4150   35.9220 N.3   321  LEU321     -0.1231
    105  CA        19.8070  -33.2700   35.4220 C.3   321  LEU321      0.1693
    106  C         20.4260  -31.9740   35.9380 C.2   321  LEU321      0.2592
    107  O         20.0080  -31.4380   36.9630 O.2   321  LEU321     -0.2718
    108  CB        18.3340  -33.3820   35.8430 C.3   321  LEU321      0.0284
    109  CG        17.5580  -34.5960   35.3070 C.3   321  LEU321      0.0019
    110  CD1       16.4280  -34.9970   36.2470 C.3   321  LEU321      0.0001
    111  CD2       17.0310  -34.3450   33.9000 C.3   321  LEU321      0.0001
    112  N         21.4280  -31.4940   35.2100 N.am  322  ASN322     -0.1960
    113  CA        22.2710  -30.3870   35.6410 C.3   322  ASN322      0.1819
    114  C         22.1460  -29.1650   34.7280 C.2   322  ASN322      0.2621
    115  O         22.1960  -29.2930   33.5040 O.2   322  ASN322     -0.2715
    116  CB        23.7340  -30.8450   35.7110 C.3   322  ASN322      0.1195
    117  CG        23.9140  -32.1130   36.5350 C.2   322  ASN322      0.2630
    118  OD1       23.4040  -32.2210   37.6510 O.2   322  ASN322     -0.2716
    119  ND2       24.6440  -33.0810   35.9840 N.am  322  ASN322     -0.0877
    120  N         21.9680  -27.9910   35.3300 N.am  323  VAL323     -0.1977
    121  CA        21.8770  -26.7320   34.5850 C.3   323  VAL323      0.1596
    122  C         23.0790  -25.8620   34.9150 C.2   323  VAL323      0.2287
    123  O         23.4890  -25.7700   36.0780 O.2   323  VAL323     -0.2864
    124  CB        20.5600  -25.9820   34.9030 C.3   323  VAL323      0.0276
    125  CG1       20.6220  -24.5190   34.4740 C.3   323  VAL323      0.0022
    126  CG2       19.3850  -26.6720   34.2340 C.3   323  VAL323      0.0022
    127  N         24.6150  -21.9080   33.8540 N.3   325  LYS325     -0.1245
    128  CA        24.3140  -20.6430   33.2090 C.3   325  LYS325      0.1561
    129  C         25.0180  -19.4610   33.8740 C.2   325  LYS325      0.2260
    130  O         25.0560  -19.3560   35.0930 O.2   325  LYS325     -0.2867
    131  CB        22.7930  -20.4350   33.1360 C.3   325  LYS325      0.0271
    132  CG        22.3700  -18.9830   33.1630 C.3   325  LYS325      0.0035
    133  CD        21.5660  -18.6280   31.9510 C.3   325  LYS325      0.0206
    134  CE        21.8020  -17.1730   31.6230 C.3   325  LYS325      0.1093
    135  NZ        21.9710  -17.0220   30.1600 N.3   325  LYS325     -0.1314
    136  N         25.5810  -19.9090   37.9420 N.3   343  ASN343     -0.1240
    137  CA        24.3430  -20.5180   38.4050 C.3   343  ASN343      0.1653
    138  C         24.2710  -22.0140   38.0770 C.2   343  ASN343      0.2266
    139  O         24.5010  -22.4220   36.9280 O.2   343  ASN343     -0.2867
    140  CB        23.1520  -19.7740   37.7960 C.3   343  ASN343      0.1155
    141  CG        21.8270  -20.4490   38.0780 C.2   343  ASN343      0.2627
    142  OD1       21.2700  -20.3360   39.1780 O.2   343  ASN343     -0.2716
    143  ND2       21.3030  -21.1530   37.0760 N.am  343  ASN343     -0.0877
    144  N         21.9580  -25.7380   38.7980 N.3   345  CYS345     -0.1235
    145  CA        20.9270  -26.6230   39.3280 C.3   345  CYS345      0.1677
    146  C         21.4080  -28.0520   39.2740 C.2   345  CYS345      0.2270
    147  O         21.8880  -28.5110   38.2360 O.2   345  CYS345     -0.2867
    148  CB        19.6380  -26.5270   38.5290 C.3   345  CYS345      0.0956
    149  SG        19.0080  -24.8600   38.4000 S.3   345  CYS345     -0.0801
    150  N         18.0200  -20.2560   46.3250 N.3   373  TYR373     -0.1241
    151  CA        16.8540  -19.6770   45.6560 C.3   373  TYR373      0.1605
    152  C         15.6260  -20.1780   46.4010 C.2   373  TYR373      0.2264
    153  O         15.4710  -21.3870   46.5850 O.2   373  TYR373     -0.2867
    154  CB        16.8650  -20.1720   44.1870 C.3   373  TYR373      0.0534
    155  CG        15.7830  -19.6690   43.2310 C.ar  373  TYR373     -0.0201
    156  CD1       15.0170  -18.5320   43.5130 C.ar  373  TYR373     -0.0009
    157  CD2       15.5660  -20.3220   42.0050 C.ar  373  TYR373     -0.0009
    158  CE1       14.0590  -18.0730   42.6170 C.ar  373  TYR373      0.0417
    159  CE2       14.6070  -19.8750   41.1070 C.ar  373  TYR373      0.0417
    160  CZ        13.8500  -18.7510   41.4200 C.ar  373  TYR373      0.1957
    161  OH        12.9010  -18.2950   40.5320 O.3   373  TYR373     -0.2866
    162  N         13.3740  -23.0300   44.9980 N.3   376  LYS376     -0.1245
    163  CA        13.8700  -24.4030   45.0280 C.3   376  LYS376      0.1561
    164  C         14.0420  -24.9410   46.4540 C.2   376  LYS376      0.2260
    165  O         13.9400  -26.1450   46.6800 O.2   376  LYS376     -0.2867
    166  CB        15.1940  -24.5230   44.2520 C.3   376  LYS376      0.0271
    167  CG        15.1520  -24.0210   42.8080 C.3   376  LYS376      0.0035
    168  CD        14.1120  -24.7540   41.9710 C.3   376  LYS376      0.0206
    169  CE        14.1180  -24.3000   40.5190 C.3   376  LYS376      0.1093
    170  NZ        15.2680  -24.8830   39.7690 N.3   376  LYS376     -0.1314
@<TRIPOS>BOND
     1    67    68    1
     2    46    45    1
     3    68    71    1
     4    68    69    1
     5    71    72    1
     6    81    82    2
     7    81    80    1
     8    85    79    1
     9    85    84    1
    10    45    44    1
    11    79    80    1
    12    69    70    2
    13    80    83    1
    14    44    43    1
    15    84    83    1
    16    72    74   ar
    17    72    73   ar
    18    74    76   ar
    19    50    49    2
    20    43    42    1
    21    47    48    1
    22    73    75   ar
    23    76    77   ar
    24    42    39    1
    25    49    48    1
    26    52    51    1
    27    41    40    2
    28    48    51    1
    29    40    39    1
    30    75    77   ar
    31    77    78    1
    32    39    38    1
    33    53    54    1
    34    57    54    1
    35    57    58    1
    36    63    65   ar
    37    63    60   ar
    38    56    55    2
    39   135   134    1
    40    65    66   ar
    41    38    36   am
    42    54    55    1
    43    60    58   ar
    44    60    62   ar
    45    58    59   ar
    46    16    15    2
    47    66    64   ar
    48    23    22    2
    49    36    37    2
    50    36    35    1
    51   134   133    1
    52    62    64   ar
    53    62    61   ar
    54    59    61   ar
    55   133   132    1
    56    22    21    1
    57    13    19    1
    58    13    14    1
    59    21    20    1
    60    15    20   am
    61    15    14    1
    62    35    34    1
    63    19    18    1
    64    14    17    1
    65   131   132    1
    66   131   128    1
    67   128   127    1
    68   128   129    1
    69    34    26   am
    70   115   114    2
    71    18    17    1
    72   129   130    2
    73   111   109    1
    74   126   124    1
    75   125   124    1
    76    26    27    2
    77    26    25    1
    78   121   124    1
    79   121   122    1
    80   121   120    1
    81   114   120   am
    82   114   113    1
    83   122   123    2
    84   112   113    1
    85   112   106   am
    86   109   108    1
    87   109   110    1
    88   105   108    1
    89   105   104    1
    90   105   106    1
    91    25    28    1
    92    25    24    1
    93   113   116    1
    94   116   117    1
    95   106   107    2
    96   119   117   am
    97    28    29    1
    98    30    29   ar
    99    30    32   ar
   100   117   118    2
   101   139   138    2
   102    29    31   ar
   103   143   141   am
   104    32    33   ar
   105   140   141    1
   106   140   137    1
   107   136   137    1
   108   138   137    1
   109   141   142    2
   110   147   146    2
   111    31    33   ar
   112   149   148    1
   113   148   145    1
   114   144   145    1
   115   146   145    1
   116    12    11    1
   117   103   101   am
   118   170   169    1
   119    94    92   am
   120   101   102    2
   121   101   100    1
   122    93    92    2
   123   169   168    1
   124   161   160    1
   125    11    10   ar
   126    11     9   ar
   127    92    91    1
   128    10     8   ar
   129   159   160   ar
   130   159   157   ar
   131   100    99    1
   132   160   158   ar
   133     9     7   ar
   134   168   167    1
   135   157   155   ar
   136    91    90    1
   137    99    96    1
   138     8     6   ar
   139   158   156   ar
   140   167   166    1
   141     7     6   ar
   142    90    87    1
   143    96    97    1
   144    96    95    1
   145   155   156   ar
   146   155   154    1
   147     6     5    1
   148    87    88    1
   149    87    86    1
   150    97    98    2
   151   154   151    1
   152   166   163    1
   153     1     2    1
   154    88    89    2
   155     5     2    1
   156   162   163    1
   157     2     3    1
   158   163   164    1
   159   151   150    1
   160   151   152    1
   161   152   153    2
   162   164   165    2
   163     3     4    2
