@<TRIPOS>MOLECULE
tmp/4p8lA01.pdb
 176 167 0 0 0
SMALL
GASTEIGER

@<TRIPOS>ATOM
      1  N        -16.9120  -12.8350   -5.9130 N.3    56  TYR56      -0.1241
      2  CA       -16.9490  -13.5990   -7.1550 C.3    56  TYR56       0.1605
      3  C        -16.8450  -12.7340   -8.3990 C.2    56  TYR56       0.2264
      4  O        -16.3900  -13.2050   -9.4310 O.2    56  TYR56      -0.2867
      5  CB       -18.2200  -14.4480   -7.2450 C.3    56  TYR56       0.0534
      6  CG       -18.2770  -15.5990   -6.2770 C.ar   56  TYR56      -0.0201
      7  CD1      -18.0870  -16.9240   -6.7100 C.ar   56  TYR56      -0.0009
      8  CD2      -18.5300  -15.3770   -4.9190 C.ar   56  TYR56      -0.0009
      9  CE1      -18.1530  -17.9860   -5.8110 C.ar   56  TYR56       0.0417
     10  CE2      -18.5930  -16.4230   -4.0220 C.ar   56  TYR56       0.0417
     11  CZ       -18.4110  -17.7220   -4.4630 C.ar   56  TYR56       0.1957
     12  OH       -18.4750  -18.7330   -3.5340 O.3    56  TYR56      -0.2866
     13  N        -18.7210  -15.1900    7.6350 N.3   112  PRO112     -0.2102
     14  CA       -19.2340  -15.6990    6.3710 C.3   112  PRO112      0.1504
     15  C        -18.8370  -17.1680    6.2080 C.2   112  PRO112      0.2576
     16  O        -18.1550  -17.7180    7.0740 O.2   112  PRO112     -0.2718
     17  CB       -18.5000  -14.8370    5.3410 C.3   112  PRO112      0.0282
     18  CG       -17.1710  -14.5810    5.9780 C.3   112  PRO112      0.0208
     19  CD       -17.4460  -14.4650    7.4590 C.3   112  PRO112      0.0893
     20  N        -19.2370  -17.7820    5.0990 N.am  113  GLY113     -0.1943
     21  CA       -18.9850  -19.2090    4.8480 C.3   113  GLY113      0.2014
     22  C        -17.5460  -19.5860    4.5210 C.2   113  GLY113      0.2639
     23  O        -17.2470  -20.7540    4.3140 O.2   113  GLY113     -0.2714
     24  N        -16.6600  -18.6000    4.4690 N.am  114  THR114     -0.1950
     25  CA       -15.2170  -18.8370    4.3590 C.3   114  THR114      0.1897
     26  C        -14.4730  -17.8610    5.2640 C.2   114  THR114      0.2313
     27  O        -14.8880  -16.7100    5.4070 O.2   114  THR114     -0.2863
     28  CB       -14.7070  -18.6910    2.9130 C.3   114  THR114      0.1794
     29  OG1      -13.2920  -18.9410    2.8890 O.3   114  THR114     -0.2208
     30  CG2      -14.9730  -17.2840    2.3660 C.3   114  THR114      0.0378
     31  N        -22.6580  -10.9740    5.6100 N.3   128  HIS128     -0.1226
     32  CA       -23.6070  -11.5650    6.5510 C.3   128  HIS128      0.1752
     33  C        -23.2120  -12.9830    6.8410 C.2   128  HIS128      0.2597
     34  O        -22.3370  -13.5520    6.1790 O.2   128  HIS128     -0.2718
     35  CB       -25.0140  -11.4960    5.9750 C.3   128  HIS128      0.0759
     36  CG       -25.1220  -12.0790    4.5940 C.ar  128  HIS128      0.0818
     37  ND1      -25.2800  -13.4060    4.3730 N.ar  128  HIS128     -0.2268
     38  CD2      -25.0530  -11.4780    3.3470 C.ar  128  HIS128      0.1154
     39  CE1      -25.3270  -13.6330    3.0500 C.ar  128  HIS128      0.1986
     40  NE2      -25.1830  -12.4530    2.4220 N.ar  128  HIS128     -0.2212
     41  N        -23.8520  -13.5800    7.8310 N.am  129  GLY129     -0.1942
     42  CA       -23.5660  -14.9530    8.1850 C.3   129  GLY129      0.2014
     43  C        -24.7890  -15.6790    8.7010 C.2   129  GLY129      0.2638
     44  O        -25.9150  -15.1510    8.6780 O.2   129  GLY129     -0.2714
     45  N        -24.5270  -16.8840    9.1870 N.am  130  LYS130     -0.1977
     46  CA       -25.5220  -17.7960    9.7380 C.3   130  LYS130      0.1596
     47  C        -26.3140  -17.1780   10.9050 C.2   130  LYS130      0.2287
     48  O        -27.4190  -17.6080   11.2020 O.2   130  LYS130     -0.2864
     49  CB       -24.8080  -19.0760   10.1880 C.3   130  LYS130      0.0298
     50  CG       -25.7230  -20.2400   10.5140 C.3   130  LYS130      0.0038
     51  CD       -24.9370  -21.5340   10.7100 C.3   130  LYS130      0.0206
     52  CE       -25.8900  -22.7150   10.8480 C.3   130  LYS130      0.1093
     53  NZ       -25.1170  -23.9740   10.9770 N.3   130  LYS130     -0.1314
     54  N        -28.9250  -21.8670    9.3610 N.3   224  SER224     -0.1217
     55  CA       -28.8460  -21.9590    7.9000 C.3   224  SER224      0.1889
     56  C        -29.2390  -23.3660    7.4570 C.2   224  SER224      0.2288
     57  O        -29.3580  -24.2730    8.2830 O.2   224  SER224     -0.2866
     58  CB       -27.4400  -21.6220    7.3760 C.3   224  SER224      0.2089
     59  OG       -26.4960  -22.5430    7.8670 O.3   224  SER224     -0.2183
     60  N        -18.6250  -24.8990    8.9200 N.3   311  HIS311     -0.1227
     61  CA       -18.0690  -25.2310    7.6200 C.3   311  HIS311      0.1737
     62  C        -18.3200  -26.6830    7.2620 C.2   311  HIS311      0.2438
     63  O        -17.3810  -27.3960    6.9130 O.2   311  HIS311     -0.2733
     64  CB       -16.5790  -24.8630    7.5810 C.3   311  HIS311      0.0758
     65  CG       -16.2930  -23.4110    7.9380 C.ar  311  HIS311      0.0818
     66  ND1      -16.6090  -22.3850    7.1210 N.ar  311  HIS311     -0.2268
     67  CD2      -15.6980  -22.8420    9.0660 C.ar  311  HIS311      0.1154
     68  CE1      -16.2370  -21.2230    7.6920 C.ar  311  HIS311      0.1986
     69  NE2      -15.6800  -21.5040    8.8810 N.ar  311  HIS311     -0.2212
     70  N        -19.6040  -27.1360    7.3130 N.am  312  PRO312     -0.2718
     71  CA       -19.8850  -28.5780    7.1860 C.3   312  PRO312      0.1535
     72  C        -19.5350  -29.1600    5.8100 C.2   312  PRO312      0.2598
     73  O        -19.4170  -30.3790    5.6680 O.2   312  PRO312     -0.2715
     74  CB       -21.3980  -28.6680    7.4380 C.3   312  PRO312      0.0310
     75  CG       -21.9300  -27.3480    6.9990 C.3   312  PRO312      0.0237
     76  CD       -20.8520  -26.3420    7.3190 C.3   312  PRO312      0.0939
     77  N        -19.3640  -28.2890    4.8180 N.am  313  LEU313     -0.1964
     78  CA       -19.0110  -28.7090    3.4640 C.3   313  LEU313      0.1728
     79  C        -17.4960  -28.8970    3.2600 C.2   313  LEU313      0.2616
     80  O        -17.0740  -29.3860    2.2100 O.2   313  LEU313     -0.2715
     81  CB       -19.5980  -27.7380    2.4260 C.3   313  LEU313      0.0311
     82  CG       -21.0550  -27.8910    1.9420 C.3   313  LEU313      0.0022
     83  CD1      -21.1600  -28.9380    0.8410 C.3   313  LEU313      0.0001
     84  CD2      -22.0500  -28.1980    3.0600 C.3   313  LEU313      0.0001
     85  N        -16.6950  -28.5180    4.2610 N.am  314  ASP314     -0.1971
     86  CA       -15.2360  -28.7230    4.2370 C.3   314  ASP314      0.1709
     87  C        -14.8380  -30.2000    4.1170 C.2   314  ASP314      0.2293
     88  O        -13.8440  -30.5300    3.4650 O.2   314  ASP314     -0.2864
     89  CB       -14.5710  -28.1040    5.4740 C.3   314  ASP314      0.1436
     90  CG       -14.3310  -26.6030    5.3310 C.2   314  ASP314      0.3671
     91  OD1      -14.6830  -26.0220    4.2820 O.co2 314  ASP314     -0.2456
     92  OD2      -13.7820  -26.0030    6.2750 O.co2 314  ASP314     -0.2456
     93  N        -16.8280  -30.5160   -3.9930 N.3   320  ASN320     -0.1225
     94  CA       -17.6210  -29.2990   -4.1900 C.3   320  ASN320      0.1785
     95  C        -17.0290  -28.3720   -5.2570 C.2   320  ASN320      0.2597
     96  O        -15.8180  -28.1210   -5.2700 O.2   320  ASN320     -0.2718
     97  CB       -17.8870  -28.5630   -2.8630 C.3   320  ASN320      0.1169
     98  CG       -16.6580  -28.4640   -1.9770 C.2   320  ASN320      0.2627
     99  OD1      -15.6310  -27.9050   -2.3690 O.2   320  ASN320     -0.2716
    100  ND2      -16.7690  -28.9800   -0.7600 N.am  320  ASN320     -0.0877
    101  N        -17.8970  -27.8880   -6.1510 N.am  321  ARG321     -0.1979
    102  CA       -17.5050  -27.0660   -7.3090 C.3   321  ARG321      0.1597
    103  C        -16.4510  -27.7580   -8.1850 C.2   321  ARG321      0.2287
    104  O        -15.4390  -27.1610   -8.5660 O.2   321  ARG321     -0.2864
    105  CB       -17.0450  -25.6680   -6.8650 C.3   321  ARG321      0.0334
    106  CG       -18.1970  -24.7190   -6.5820 C.3   321  ARG321      0.0492
    107  CD       -17.8650  -23.7190   -5.4860 C.3   321  ARG321      0.2205
    108  NE       -19.0950  -23.2070   -4.8840 N.pl3 321  ARG321     -0.0865
    109  CZ       -19.1660  -22.1980   -4.0190 C.cat 321  ARG321      0.5346
    110  NH1      -18.0680  -21.5590   -3.6320 N.pl3 321  ARG321      0.1354
    111  NH2      -20.3510  -21.8260   -3.5450 N.pl3 321  ARG321      0.1354
    112  N        -22.0710  -18.2180   -9.5500 N.3   330  GLN330     -0.1245
    113  CA       -22.6790  -18.0850   -8.2230 C.3   330  GLN330      0.1566
    114  C        -23.7710  -17.0000   -8.2480 C.2   330  GLN330      0.2260
    115  O        -23.5390  -15.8740   -8.6880 O.2   330  GLN330     -0.2867
    116  CB       -21.5860  -17.8110   -7.1640 C.3   330  GLN330      0.0367
    117  CG       -22.0440  -17.2330   -5.8270 C.3   330  GLN330      0.0905
    118  CD       -22.7570  -18.2300   -4.9190 C.2   330  GLN330      0.2608
    119  OE1      -23.5370  -17.8420   -4.0440 O.2   330  GLN330     -0.2717
    120  NE2      -22.4930  -19.5120   -5.1200 N.am  330  GLN330     -0.0878
    121  N        -26.7830  -15.2380   -5.8520 N.3   332  GLN332     -0.1245
    122  CA       -27.3610  -15.0760   -4.5250 C.3   332  GLN332      0.1566
    123  C        -28.3850  -13.9340   -4.5070 C.2   332  GLN332      0.2260
    124  O        -28.0980  -12.8250   -4.9410 O.2   332  GLN332     -0.2867
    125  CB       -26.2800  -14.8540   -3.4530 C.3   332  GLN332      0.0367
    126  CG       -26.8470  -14.5670   -2.0620 C.3   332  GLN332      0.0905
    127  CD       -25.8140  -14.6000   -0.9460 C.2   332  GLN332      0.2608
    128  OE1      -24.6100  -14.7200   -1.1840 O.2   332  GLN332     -0.2717
    129  NE2      -26.2890  -14.5180    0.2880 N.am  332  GLN332     -0.0878
    130  N        -25.1110  -27.0140   -4.8500 N.3   359  LEU359     -0.1245
    131  CA       -24.6710  -26.3160   -3.6480 C.3   359  LEU359      0.1561
    132  C        -25.6160  -25.1670   -3.3250 C.2   359  LEU359      0.2260
    133  O        -25.4820  -24.0740   -3.8690 O.2   359  LEU359     -0.2867
    134  CB       -23.2350  -25.8050   -3.8140 C.3   359  LEU359      0.0270
    135  CG       -22.0970  -26.8150   -4.0020 C.3   359  LEU359      0.0019
    136  CD1      -20.7640  -26.1000   -3.8270 C.3   359  LEU359      0.0001
    137  CD2      -22.1780  -27.9970   -3.0440 C.3   359  LEU359      0.0001
    138  N        -27.6070  -22.7290   -0.5470 N.3   361  VAL361     -0.1245
    139  CA       -27.7190  -22.1300    0.7710 C.3   361  VAL361      0.1561
    140  C        -29.1090  -21.5230    0.9220 C.2   361  VAL361      0.2260
    141  O        -29.6380  -20.8870   -0.0030 O.2   361  VAL361     -0.2867
    142  CB       -26.6270  -21.0710    0.9970 C.3   361  VAL361      0.0252
    143  CG1      -26.9820  -20.1380    2.1560 C.3   361  VAL361      0.0019
    144  CG2      -25.2890  -21.7510    1.2410 C.3   361  VAL361      0.0019
    145  N        -31.2980  -19.3690    3.9660 N.3   363  LYS363     -0.1245
    146  CA       -31.3270  -18.7470    5.2790 C.3   363  LYS363      0.1561
    147  C        -32.4220  -17.6800    5.3540 C.2   363  LYS363      0.2260
    148  O        -32.6960  -16.9930    4.3750 O.2   363  LYS363     -0.2867
    149  CB       -29.9420  -18.2130    5.6770 C.3   363  LYS363      0.0271
    150  CG       -29.9650  -16.8990    6.4340 C.3   363  LYS363      0.0035
    151  CD       -28.9170  -16.8120    7.5120 C.3   363  LYS363      0.0206
    152  CE       -29.5140  -16.1170    8.7290 C.3   363  LYS363      0.1093
    153  NZ       -30.1230  -17.1230    9.6340 N.3   363  LYS363     -0.1314
    154  N        -33.2910  -15.7690    1.8450 N.3   381  ASN381     -0.1240
    155  CA       -32.0020  -15.6220    1.1610 C.3   381  ASN381      0.1653
    156  C        -31.5430  -16.9710    0.6050 C.2   381  ASN381      0.2266
    157  O        -31.5590  -17.9780    1.3160 O.2   381  ASN381     -0.2867
    158  CB       -30.9470  -15.0500    2.1140 C.3   381  ASN381      0.1155
    159  CG       -29.5410  -15.1030    1.5400 C.2   381  ASN381      0.2627
    160  OD1      -29.1300  -14.2270    0.7730 O.2   381  ASN381     -0.2716
    161  ND2      -28.7870  -16.1330    1.9200 N.am  381  ASN381     -0.0877
    162  N        -28.5610  -18.9460   -2.0400 N.3   383  CYS383     -0.1235
    163  CA       -27.3840  -19.0200   -2.9290 C.3   383  CYS383      0.1677
    164  C        -27.4420  -20.2780   -3.7430 C.2   383  CYS383      0.2270
    165  O        -27.6760  -21.3590   -3.1980 O.2   383  CYS383     -0.2867
    166  CB       -26.0770  -19.0720   -2.1600 C.3   383  CYS383      0.0956
    167  SG       -25.9180  -17.7840   -0.9460 S.3   383  CYS383     -0.0801
    168  N        -21.2670  -11.3500   -5.0140 N.3   414  LYS414     -0.1245
    169  CA       -21.4580  -12.5120   -5.8670 C.3   414  LYS414      0.1561
    170  C        -21.6410  -12.1430   -7.3460 C.2   414  LYS414      0.2260
    171  O        -21.3530  -12.9560   -8.2130 O.2   414  LYS414     -0.2867
    172  CB       -22.6340  -13.3910   -5.3810 C.3   414  LYS414      0.0271
    173  CG       -22.6810  -13.6850   -3.8750 C.3   414  LYS414      0.0035
    174  CD       -21.4200  -14.3660   -3.3430 C.3   414  LYS414      0.0206
    175  CE       -21.5980  -14.8940   -1.9220 C.3   414  LYS414      0.1093
    176  NZ       -22.5010  -16.0860   -1.9170 N.3   414  LYS414     -0.1314
@<TRIPOS>BOND
     1   112   113    1
     2     4     3    2
     3   115   114    2
     4   104   103    2
     5     3     2    1
     6   114   113    1
     7   113   116    1
     8   171   170    2
     9   103   102    1
    10   170   169    1
    11   102   105    1
    12   102   101    1
    13     5     2    1
    14     5     6    1
    15   116   117    1
    16     2     1    1
    17   105   106    1
    18     7     6   ar
    19     7     9   ar
    20   106   107    1
    21     6     8   ar
    22   101    95   am
    23   169   172    1
    24   169   168    1
    25   121   122    1
    26   117   118    1
    27     9    11   ar
    28   107   108    1
    29   172   173    1
    30    96    95    2
    31    95    94    1
    32   120   118   am
    33   124   123    2
    34     8    10   ar
    35   118   119    2
    36   108   109    2
    37   130   131    1
    38   122   123    1
    39   122   125    1
    40    11    10   ar
    41    11    12    1
    42    94    93    1
    43    94    97    1
    44   109   110    1
    45   109   111    1
    46   135   136    1
    47   135   134    1
    48   135   137    1
    49   173   174    1
    50   133   132    2
    51   134   131    1
    52   164   165    2
    53   164   163    1
    54   131   132    1
    55   125   126    1
    56   174   175    1
    57   163   166    1
    58   163   162    1
    59    97    98    1
    60    99    98    2
    61   166   167    1
    62   126   127    1
    63    98   100   am
    64   175   176    1
    65   128   127    2
    66   127   129   am
    67   138   139    1
    68   141   140    2
    69   156   155    1
    70   156   157    2
    71   139   140    1
    72   139   142    1
    73   160   159    2
    74    83    82    1
    75   142   144    1
    76   142   143    1
    77   155   154    1
    78   155   158    1
    79   159   161   am
    80   159   158    1
    81    82    81    1
    82    82    84    1
    83    80    79    2
    84    30    28    1
    85    40    39   ar
    86    40    38   ar
    87    81    78    1
    88    29    28    1
    89    28    25    1
    90    39    37   ar
    91    79    78    1
    92    79    85   am
    93    38    36   ar
    94    78    77    1
    95    88    87    2
    96   145   146    1
    97    87    86    1
    98    86    85    1
    99    86    89    1
   100    91    90   ar
   101    23    22    2
   102    25    24    1
   103    25    26    1
   104    37    36   ar
   105   148   147    2
   106    24    22   am
   107    22    21    1
   108    36    35    1
   109    77    72   am
   110    21    20    1
   111    20    15   am
   112    26    27    2
   113   146   147    1
   114   146   149    1
   115    90    89    1
   116    90    92   ar
   117    17    18    1
   118    17    14    1
   119    31    32    1
   120    73    72    2
   121   149   150    1
   122    72    71    1
   123    35    32    1
   124    18    19    1
   125    34    33    2
   126    15    14    1
   127    15    16    2
   128    14    13    1
   129   150   151    1
   130    32    33    1
   131    33    41   am
   132    63    62    2
   133    75    76    1
   134    75    74    1
   135    66    68   ar
   136    66    65   ar
   137    71    70    1
   138    71    74    1
   139    62    70   am
   140    62    61    1
   141    70    76    1
   142    58    59    1
   143    58    55    1
   144    56    55    1
   145    56    57    2
   146    19    13    1
   147   151   152    1
   148    64    61    1
   149    64    65    1
   150    61    60    1
   151    68    69   ar
   152    41    42    1
   153    55    54    1
   154    65    67   ar
   155    42    43    1
   156    44    43    2
   157    43    45   am
   158   152   153    1
   159    69    67   ar
   160    45    46    1
   161    46    49    1
   162    46    47    1
   163    49    50    1
   164    50    51    1
   165    51    52    1
   166    52    53    1
   167    47    48    2
