@<TRIPOS>MOLECULE
tmp/4p8mB01.pdb
 162 156 0 0 0
SMALL
GASTEIGER

@<TRIPOS>ATOM
      1  N          9.0440   13.9280   31.2960 N.3    54  TYR54      -0.1241
      2  CA         9.0800   12.6540   30.5820 C.3    54  TYR54       0.1605
      3  C          9.6200   12.7700   29.1580 C.2    54  TYR54       0.2264
      4  O         10.2720   11.8430   28.6730 O.2    54  TYR54      -0.2867
      5  CB         7.6990   11.9950   30.5750 C.3    54  TYR54       0.0534
      6  CG         7.3230   11.3590   31.8960 C.ar   54  TYR54      -0.0201
      7  CD1        6.7250   12.1110   32.9050 C.ar   54  TYR54      -0.0009
      8  CD2        7.5680   10.0040   32.1380 C.ar   54  TYR54      -0.0009
      9  CE1        6.3660   11.5350   34.1170 C.ar   54  TYR54       0.0417
     10  CE2        7.2200    9.4230   33.3490 C.ar   54  TYR54       0.0417
     11  CZ         6.6160   10.1960   34.3320 C.ar   54  TYR54       0.1957
     12  OH         6.2520    9.6320   35.5330 O.3    54  TYR54      -0.2866
     13  N          4.2330   18.4220   43.3770 N.3   110  PRO110     -0.2102
     14  CA         3.8510   17.4290   42.3820 C.3   110  PRO110      0.1504
     15  C          3.9490   16.0170   42.9820 C.2   110  PRO110      0.2576
     16  O          4.2210   15.8840   44.1750 O.2   110  PRO110     -0.2718
     17  CB         4.8920   17.6380   41.2800 C.3   110  PRO110      0.0282
     18  CG         6.1130   18.1350   41.9940 C.3   110  PRO110      0.0208
     19  CD         5.6660   18.7590   43.2930 C.3   110  PRO110      0.0893
     20  N          3.7290   14.9860   42.1650 N.am  111  GLY111     -0.1957
     21  CA         3.8010   13.5830   42.6160 C.3   111  GLY111      0.1869
     22  C          5.1990   13.0410   42.8980 C.2   111  GLY111      0.2309
     23  O          5.3460   11.9330   43.4040 O.2   111  GLY111     -0.2863
     24  N          1.5960   21.4730   38.7200 N.3   126  HIS126     -0.1226
     25  CA         0.3630   21.4130   39.4850 C.3   126  HIS126      0.1752
     26  C          0.3830   20.2490   40.4540 C.2   126  HIS126      0.2597
     27  O          1.2000   19.3290   40.3480 O.2   126  HIS126     -0.2718
     28  CB        -0.8290   21.2900   38.5380 C.3   126  HIS126      0.0759
     29  CG        -0.7630   20.0750   37.6550 C.ar  126  HIS126      0.0818
     30  ND1       -0.3170   20.1240   36.3870 N.ar  126  HIS126     -0.2268
     31  CD2       -1.0710   18.7350   37.9160 C.ar  126  HIS126      0.1154
     32  CE1       -0.3460   18.8800   35.8610 C.ar  126  HIS126      0.1986
     33  NE2       -0.8110   18.0370   36.7990 N.ar  126  HIS126     -0.2212
     34  N         -0.5200   20.2810   41.4210 N.am  127  GLY127     -0.1942
     35  CA        -0.5760   19.2210   42.4020 C.3   127  GLY127      0.2014
     36  C         -1.9870   18.9310   42.8500 C.2   127  GLY127      0.2638
     37  O         -2.9600   19.4110   42.2610 O.2   127  GLY127     -0.2714
     38  N         -2.0710   18.1540   43.9230 N.am  128  LYS128     -0.1977
     39  CA        -3.3130   17.6690   44.4930 C.3   128  LYS128      0.1596
     40  C         -4.1870   18.8350   44.9730 C.2   128  LYS128      0.2287
     41  O         -5.4040   18.6900   45.1050 O.2   128  LYS128     -0.2864
     42  CB        -2.9500   16.7310   45.6500 C.3   128  LYS128      0.0298
     43  CG        -3.9700   15.6860   46.0340 C.3   128  LYS128      0.0038
     44  CD        -3.2920   14.6080   46.8790 C.3   128  LYS128      0.0206
     45  CE        -4.2760   13.8820   47.7870 C.3   128  LYS128      0.1093
     46  NZ        -5.1840   12.9570   47.0650 N.3   128  LYS128     -0.1314
     47  N         -7.2970   14.2020   45.1160 N.3   222  SER222     -0.1217
     48  CA        -7.0590   13.4310   43.8910 C.3   222  SER222      0.1889
     49  C         -7.5780   12.0050   44.0530 C.2   222  SER222      0.2288
     50  O         -7.8850   11.5730   45.1690 O.2   222  SER222     -0.2866
     51  CB        -5.5740   13.4040   43.5010 C.3   222  SER222      0.2089
     52  OG        -4.8130   12.7740   44.5000 O.3   222  SER222     -0.2183
     53  N         -7.3590    7.7010   42.4660 N.3   224  TRP224     -0.1241
     54  CA        -6.9960    6.6380   41.5320 C.3   224  TRP224      0.1605
     55  C         -8.2660    6.1420   40.9410 C.2   224  TRP224      0.2264
     56  O         -9.2500    5.9650   41.6470 O.2   224  TRP224     -0.2867
     57  CB        -6.2880    5.4740   42.2110 C.3   224  TRP224      0.0550
     58  CG        -6.1100    4.2850   41.2790 C.ar  224  TRP224      0.0003
     59  CD1       -5.0790    4.0690   40.3710 C.ar  224  TRP224      0.0946
     60  CD2       -7.0060    3.1220   41.1130 C.ar  224  TRP224      0.0152
     61  NE1       -5.2590    2.8910   39.6950 N.ar  224  TRP224     -0.2442
     62  CE2       -6.3930    2.2760   40.0900 C.ar  224  TRP224      0.0810
     63  CE3       -8.1970    2.7150   41.6930 C.ar  224  TRP224      0.0012
     64  CZ2       -6.9670    1.0790   39.6840 C.ar  224  TRP224      0.0191
     65  CZ3       -8.7660    1.5090   41.2750 C.ar  224  TRP224      0.0001
     66  CH2       -8.1640    0.7130   40.2940 C.ar  224  TRP224      0.0015
     67  N          3.5340    7.5970   29.2890 N.3   279  GLN279     -0.1245
     68  CA         2.7740    8.4510   30.1820 C.3   279  GLN279      0.1566
     69  C          1.9630    9.4340   29.3640 C.2   279  GLN279      0.2260
     70  O          2.5100   10.1750   28.5440 O.2   279  GLN279     -0.2867
     71  CB         3.7060    9.1920   31.1380 C.3   279  GLN279      0.0367
     72  CG         4.3370    8.2870   32.1860 C.3   279  GLN279      0.0905
     73  CD         3.5000    8.1560   33.4460 C.2   279  GLN279      0.2608
     74  OE1        2.5570    8.9190   33.6700 O.2   279  GLN279     -0.2717
     75  NE2        3.8540    7.1910   34.2870 N.am  279  GLN279     -0.0878
     76  N         -1.1190   12.3990   29.7080 N.3   281  GLN281     -0.1245
     77  CA        -1.9150   13.2560   30.5830 C.3   281  GLN281      0.1566
     78  C         -2.6720   14.3000   29.7750 C.2   281  GLN281      0.2260
     79  O         -2.0910   14.9640   28.9210 O.2   281  GLN281     -0.2867
     80  CB        -1.0440   13.9460   31.6410 C.3   281  GLN281      0.0367
     81  CG        -1.8460   14.8340   32.5940 C.3   281  GLN281      0.0905
     82  CD        -1.0510   15.2950   33.7940 C.2   281  GLN281      0.2608
     83  OE1        0.1500   15.0640   33.8740 O.2   281  GLN281     -0.2717
     84  NE2       -1.7270   15.9320   34.7510 N.am  281  GLN281     -0.0878
     85  N         -2.8260    0.8090   34.7380 N.3   307  PHE307     -0.1227
     86  CA        -3.0440    0.6110   36.1720 C.3   307  PHE307      0.1736
     87  C         -2.8020    1.9010   36.9570 C.2   307  PHE307      0.2595
     88  O         -3.5280    2.1890   37.9020 O.2   307  PHE307     -0.2718
     89  CB        -2.1310   -0.4950   36.7240 C.3   307  PHE307      0.0547
     90  CG        -2.4740   -1.8810   36.2420 C.ar  307  PHE307     -0.0202
     91  CD1       -3.5920   -2.5580   36.7390 C.ar  307  PHE307     -0.0042
     92  CD2       -1.6600   -2.5320   35.3090 C.ar  307  PHE307     -0.0042
     93  CE1       -3.9010   -3.8450   36.3010 C.ar  307  PHE307     -0.0003
     94  CE2       -1.9650   -3.8180   34.8700 C.ar  307  PHE307     -0.0003
     95  CZ        -3.0870   -4.4730   35.3660 C.ar  307  PHE307     -0.0000
     96  N         -1.7710    2.6550   36.5680 N.am  308  LEU308     -0.1966
     97  CA        -1.3630    3.8870   37.2570 C.3   308  LEU308      0.1728
     98  C         -2.1550    5.0840   36.7610 C.2   308  LEU308      0.2616
     99  O         -1.7460    5.7800   35.8360 O.2   308  LEU308     -0.2715
    100  CB         0.1390    4.1490   37.0860 C.3   308  LEU308      0.0311
    101  CG         1.1270    3.0840   37.5670 C.3   308  LEU308      0.0022
    102  CD1        2.5290    3.3900   37.0510 C.3   308  LEU308      0.0001
    103  CD2        1.1160    2.9710   39.0840 C.3   308  LEU308      0.0001
    104  N         -3.2940    5.3180   37.3960 N.am  309  ASN309     -0.1958
    105  CA        -4.2260    6.3300   36.9530 C.3   309  ASN309      0.1819
    106  C         -4.3940    7.4140   38.0040 C.2   309  ASN309      0.2621
    107  O         -4.5030    7.1150   39.1960 O.2   309  ASN309     -0.2715
    108  CB        -5.5670    5.6720   36.6260 C.3   309  ASN309      0.1195
    109  CG        -5.4110    4.4340   35.7520 C.2   309  ASN309      0.2630
    110  OD1       -4.6670    4.4430   34.7710 O.2   309  ASN309     -0.2716
    111  ND2       -6.1020    3.3600   36.1150 N.am  309  ASN309     -0.0877
    112  N         -4.3730    8.6710   37.5700 N.am  310  VAL310     -0.1977
    113  CA        -4.6810    9.7930   38.4600 C.3   310  VAL310      0.1596
    114  C         -5.8140   10.6220   37.8570 C.2   310  VAL310      0.2287
    115  O         -5.8090   10.9380   36.6720 O.2   310  VAL310     -0.2864
    116  CB        -3.4580   10.6910   38.7670 C.3   310  VAL310      0.0276
    117  CG1       -3.8020   11.7030   39.8570 C.3   310  VAL310      0.0022
    118  CG2       -2.2670    9.8560   39.2110 C.3   310  VAL310      0.0022
    119  N         -8.1490   14.0920   38.6560 N.3   312  LYS312     -0.1245
    120  CA        -8.2620   15.3170   39.4330 C.3   312  LYS312      0.1561
    121  C         -9.1500   16.3350   38.7130 C.2   312  LYS312      0.2260
    122  O         -9.1670   16.4020   37.4840 O.2   312  LYS312     -0.2867
    123  CB        -6.8780   15.8910   39.7640 C.3   312  LYS312      0.0271
    124  CG        -6.9070   17.3380   40.2170 C.3   312  LYS312      0.0035
    125  CD        -5.8610   17.6740   41.2530 C.3   312  LYS312      0.0206
    126  CE        -6.3350   18.8810   42.0470 C.3   312  LYS312      0.1093
    127  NZ        -7.5290   18.5550   42.8950 N.3   312  LYS312     -0.1314
    128  N         -8.8710   16.3460   34.7160 N.3   330  ASN330     -0.1240
    129  CA        -7.4950   16.0050   34.4750 C.3   330  ASN330      0.1653
    130  C         -7.2620   14.5200   34.7110 C.2   330  ASN330      0.2266
    131  O         -7.6500   13.9770   35.7480 O.2   330  ASN330     -0.2867
    132  CB        -6.5830   16.7950   35.3990 C.3   330  ASN330      0.1155
    133  CG        -5.1420   16.3580   35.2900 C.2   330  ASN330      0.2627
    134  OD1       -4.4380   16.7330   34.3590 O.2   330  ASN330     -0.2716
    135  ND2       -4.7010   15.5430   36.2360 N.am  330  ASN330     -0.0877
    136  N         -4.1650   11.3470   34.2630 N.3   332  CYS332     -0.1235
    137  CA        -2.8930   10.7600   33.8670 C.3   332  CYS332      0.1677
    138  C         -3.0400    9.2490   33.7950 C.2   332  CYS332      0.2270
    139  O         -3.6060    8.6230   34.6950 O.2   332  CYS332     -0.2867
    140  CB        -1.7570   11.1490   34.8200 C.3   332  CYS332      0.0956
    141  SG        -0.1080   10.6850   34.2190 S.3   332  CYS332     -0.0801
    142  N         -0.0090   18.0280   28.2090 N.3   360  TYR360     -0.1241
    143  CA         0.9690   18.6710   29.0970 C.3   360  TYR360      0.1605
    144  C          2.3800   18.4750   28.5380 C.2   360  TYR360      0.2264
    145  O          2.7870   17.3450   28.3290 O.2   360  TYR360     -0.2867
    146  CB         0.8330   18.0080   30.4830 C.3   360  TYR360      0.0534
    147  CG         1.6270   18.5960   31.6380 C.ar  360  TYR360     -0.0201
    148  CD1        2.1670   19.8850   31.5800 C.ar  360  TYR360     -0.0009
    149  CD2        1.7980   17.8640   32.8140 C.ar  360  TYR360     -0.0009
    150  CE1        2.8710   20.4160   32.6550 C.ar  360  TYR360      0.0417
    151  CE2        2.5070   18.3770   33.8880 C.ar  360  TYR360      0.0417
    152  CZ         3.0390   19.6610   33.8040 C.ar  360  TYR360      0.1957
    153  OH         3.7370   20.1860   34.8650 O.3   360  TYR360     -0.2866
    154  N          4.8480   15.8070   29.8850 N.3   363  LYS363     -0.1245
    155  CA         4.5390   14.4010   29.5990 C.3   363  LYS363      0.1561
    156  C          4.5710   14.1100   28.1010 C.2   363  LYS363      0.2260
    157  O          4.0940   13.0590   27.6750 O.2   363  LYS363     -0.2867
    158  CB         3.1380   14.0220   30.1060 C.3   363  LYS363      0.0271
    159  CG         2.8300   14.3160   31.5660 C.3   363  LYS363      0.0035
    160  CD         3.4140   13.2670   32.4900 C.3   363  LYS363      0.0206
    161  CE         3.0140   13.5300   33.9330 C.3   363  LYS363      0.1093
    162  NZ         1.8390   12.7020   34.3280 N.3   363  LYS363     -0.1314
@<TRIPOS>BOND
     1   157   156    2
     2   156   155    1
     3   142   143    1
     4   145   144    2
     5   144   143    1
     6    70    69    2
     7     4     3    2
     8    79    78    2
     9   143   146    1
    10     3     2    1
    11    67    68    1
    12    69    68    1
    13   155   154    1
    14   155   158    1
    15    76    77    1
    16    78    77    1
    17   158   159    1
    18    68    71    1
    19   146   147    1
    20     5     2    1
    21     5     6    1
    22     2     1    1
    23    77    80    1
    24    71    72    1
    25   159   160    1
    26   148   147   ar
    27   148   150   ar
    28   147   149   ar
    29    80    81    1
    30     6     8   ar
    31     6     7   ar
    32     8    10   ar
    33    72    73    1
    34   160   161    1
    35    81    82    1
    36   150   152   ar
    37   149   151   ar
    38     7     9   ar
    39    10    11   ar
    40    73    74    2
    41    73    75   am
    42    82    83    2
    43    82    84   am
    44   138   137    1
    45   138   139    2
    46   152   151   ar
    47   152   153    1
    48   137   136    1
    49   137   140    1
    50   161   162    1
    51     9    11   ar
    52   141   140    1
    53    11    12    1
    54   134   133    2
    55   129   130    1
    56   129   128    1
    57   129   132    1
    58   130   131    2
    59    85    86    1
    60   110   109    2
    61    94    92   ar
    62    94    95   ar
    63   133   132    1
    64   133   135   am
    65    92    90   ar
    66    95    93   ar
    67   109   111   am
    68   109   108    1
    69    99    98    2
    70    32    30   ar
    71    32    33   ar
    72    86    89    1
    73    86    87    1
    74    90    89    1
    75    90    91   ar
    76    93    91   ar
    77    30    29   ar
    78    96    87   am
    79    96    97    1
    80   108   105    1
    81   115   114    2
    82    98    97    1
    83    98   104   am
    84    33    31   ar
    85   105   104    1
    86   105   106    1
    87    87    88    2
    88   102   101    1
    89   100    97    1
    90   100   101    1
    91   122   121    2
    92   101   103    1
    93   112   106   am
    94   112   113    1
    95    29    31   ar
    96    29    28    1
    97   114   113    1
    98   106   107    2
    99   113   116    1
   100    28    25    1
   101   119   120    1
   102   121   120    1
   103    24    25    1
   104   116   118    1
   105   116   117    1
   106   120   123    1
   107    25    26    1
   108    64    62   ar
   109    64    66   ar
   110    61    62   ar
   111    61    59   ar
   112   123   124    1
   113    62    60   ar
   114   124   125    1
   115    66    65   ar
   116    27    26    2
   117    59    58   ar
   118    26    34   am
   119    55    54    1
   120    55    56    2
   121    60    58   ar
   122    60    63   ar
   123   125   126    1
   124    65    63   ar
   125    58    57    1
   126    17    18    1
   127    17    14    1
   128    34    35    1
   129    54    57    1
   130    54    53    1
   131    18    19    1
   132   126   127    1
   133    20    21    1
   134    20    15   am
   135    37    36    2
   136    14    15    1
   137    14    13    1
   138    35    36    1
   139    21    22    1
   140    36    38   am
   141    22    23    2
   142    15    16    2
   143    19    13    1
   144    51    48    1
   145    51    52    1
   146    48    49    1
   147    48    47    1
   148    38    39    1
   149    49    50    2
   150    39    40    1
   151    39    42    1
   152    40    41    2
   153    42    43    1
   154    43    44    1
   155    44    45    1
   156    46    45    1
