@<TRIPOS>MOLECULE
tmp/4p8mA02.pdb
 97 93 0 0 0
SMALL
GASTEIGER

@<TRIPOS>ATOM
      1  N         -1.3670  -10.7300    3.1510 N.3   306  PRO306     -0.2116
      2  CA        -2.1220  -10.0430    4.2050 C.3   306  PRO306      0.1372
      3  C         -3.2750  -10.8950    4.7570 C.2   306  PRO306      0.2244
      4  O         -3.9360  -11.6210    3.9960 O.2   306  PRO306     -0.2868
      5  CB        -2.6710   -8.7990    3.4920 C.3   306  PRO306      0.0268
      6  CG        -1.7120   -8.5520    2.3740 C.3   306  PRO306      0.0207
      7  CD        -1.2090   -9.8990    1.9420 C.3   306  PRO306      0.0892
      8  N         -6.2840  -10.4310    5.5930 N.3   308  GLU308     -0.1245
      9  CA        -7.5910  -10.2230    4.9430 C.3   308  GLU308      0.1567
     10  C         -7.7060  -10.8930    3.5750 C.2   308  GLU308      0.2260
     11  O         -8.8040  -11.1810    3.1200 O.2   308  GLU308     -0.2867
     12  CB        -7.8930   -8.7210    4.7610 C.3   308  GLU308      0.0388
     13  CG        -7.3420   -7.8080    5.8480 C.3   308  GLU308      0.1160
     14  CD        -5.8760   -7.4490    5.6300 C.2   308  GLU308      0.3649
     15  OE1       -5.5630   -6.7290    4.6470 O.co2 308  GLU308     -0.2457
     16  OE2       -5.0380   -7.8940    6.4440 O.co2 308  GLU308     -0.2457
     17  N          1.6310   -7.8910   13.9720 N.3   337  PRO337     -0.2102
     18  CA         1.9180   -6.5310   13.5080 C.3   337  PRO337      0.1504
     19  C          3.3450   -6.3360   12.9990 C.2   337  PRO337      0.2575
     20  O          4.2950   -6.9470   13.5100 O.2   337  PRO337     -0.2718
     21  CB         1.7090   -5.6780   14.7650 C.3   337  PRO337      0.0282
     22  CG         0.7300   -6.4470   15.5800 C.3   337  PRO337      0.0208
     23  CD         1.0760   -7.8930   15.3410 C.3   337  PRO337      0.0893
     24  N          3.4790   -5.4920   11.9870 N.am  338  ARG338     -0.1980
     25  CA         4.7790   -5.1660   11.4390 C.3   338  ARG338      0.1597
     26  C          5.4620   -4.1130   12.3150 C.2   338  ARG338      0.2287
     27  O          4.8420   -3.5660   13.2380 O.2   338  ARG338     -0.2864
     28  CB         4.6370   -4.6780    9.9970 C.3   338  ARG338      0.0334
     29  CG         4.0640   -3.2820    9.8510 C.3   338  ARG338      0.0492
     30  CD         4.2680   -2.7760    8.4370 C.3   338  ARG338      0.2205
     31  NE         5.5980   -2.1990    8.2660 N.pl3 338  ARG338     -0.0865
     32  CZ         6.6200   -2.7680    7.6220 C.cat 338  ARG338      0.5346
     33  NH1        6.5020   -3.9660    7.0450 N.pl3 338  ARG338      0.1354
     34  NH2        7.7750   -2.1200    7.5550 N.pl3 338  ARG338      0.1354
     35  N         11.3330    0.2520    6.9300 N.3   342  PRO342     -0.2116
     36  CA        10.7800    0.2860    5.5670 C.3   342  PRO342      0.1372
     37  C         10.9190   -1.0320    4.7870 C.2   342  PRO342      0.2244
     38  O         10.0180   -1.3870    4.0280 O.2   342  PRO342     -0.2868
     39  CB        11.5940    1.3880    4.8790 C.3   342  PRO342      0.0268
     40  CG        12.0850    2.2570    5.9850 C.3   342  PRO342      0.0207
     41  CD        12.2600    1.3760    7.1810 C.3   342  PRO342      0.0892
     42  N          4.6330   -8.7320    7.5640 N.3   347  ILE347     -0.1231
     43  CA         3.3940   -7.9630    7.7660 C.3   347  ILE347      0.1678
     44  C          2.3640   -8.9230    8.3810 C.2   347  ILE347      0.2434
     45  O          2.5550  -10.1520    8.2980 O.2   347  ILE347     -0.2733
     46  CB         2.8690   -7.3440    6.4350 C.3   347  ILE347      0.0265
     47  CG1        2.3950   -8.4310    5.4560 C.3   347  ILE347      0.0019
     48  CG2        3.9390   -6.4650    5.7980 C.3   347  ILE347      0.0020
     49  CD1        1.8060   -7.8980    4.1590 C.3   347  ILE347      0.0001
     50  N          1.2750   -8.4010    9.0050 N.am  348  PRO348     -0.2729
     51  CA         0.3100   -9.3870    9.5260 C.3   348  PRO348      0.1401
     52  C         -0.2550  -10.2030    8.3900 C.2   348  PRO348      0.2269
     53  O         -0.5960   -9.6500    7.3580 O.2   348  PRO348     -0.2865
     54  CB        -0.7980   -8.5360   10.1690 C.3   348  PRO348      0.0296
     55  CG        -0.2520   -7.1470   10.2630 C.3   348  PRO348      0.0237
     56  CD         0.8340   -7.0110    9.2290 C.3   348  PRO348      0.0939
     57  N         -1.1510   -8.1950   -2.4070 N.3   377  GLY377     -0.1225
     58  CA        -0.6540   -7.2990   -1.3630 C.3   377  GLY377      0.1811
     59  C          0.4920   -7.8560   -0.5340 C.2   377  GLY377      0.2280
     60  O          0.9150   -7.2430    0.4420 O.2   377  GLY377     -0.2866
     61  N          4.4460   -9.9980   -0.1060 N.3   379  ARG379     -0.1245
     62  CA         5.8240   -9.7890   -0.4900 C.3   379  ARG379      0.1563
     63  C          6.6230  -11.0550   -0.2370 C.2   379  ARG379      0.2260
     64  O          6.2010  -11.9390    0.5190 O.2   379  ARG379     -0.2867
     65  CB         6.4370   -8.6190    0.2930 C.3   379  ARG379      0.0307
     66  CG         6.4620   -8.8140    1.8090 C.3   379  ARG379      0.0489
     67  CD         5.3410   -8.0570    2.5080 C.3   379  ARG379      0.2205
     68  NE         5.4590   -6.6200    2.2780 N.pl3 379  ARG379     -0.0865
     69  CZ         6.2420   -5.7970    2.9720 C.cat 379  ARG379      0.5346
     70  NH1        6.9830   -6.2410    3.9950 N.pl3 379  ARG379      0.1354
     71  NH2        6.2700   -4.5100    2.6480 N.pl3 379  ARG379      0.1354
     72  N          6.4950   -4.6880   -4.2610 N.3   396  MET396     -0.1245
     73  CA         6.2000   -5.4170   -3.0290 C.3   396  MET396      0.1570
     74  C          6.5060   -4.5940   -1.7750 C.2   396  MET396      0.2261
     75  O          5.9210   -4.8180   -0.7030 O.2   396  MET396     -0.2867
     76  CB         6.9960   -6.7210   -2.9940 C.3   396  MET396      0.0387
     77  CG         6.3680   -7.8400   -3.8180 C.3   396  MET396      0.0595
     78  SD         7.4410   -9.2820   -3.8860 S.3   396  MET396     -0.1393
     79  CE         6.3610  -10.4410   -4.7290 C.3   396  MET396      0.0692
     80  N          6.3070   -0.9020   -0.6630 N.3   398  PRO398     -0.2102
     81  CA         5.8560    0.4700   -0.9470 C.3   398  PRO398      0.1504
     82  C          6.7350    1.5650   -0.3380 C.2   398  PRO398      0.2575
     83  O          6.6690    2.7090   -0.7780 O.2   398  PRO398     -0.2718
     84  CB         4.4490    0.5210   -0.3210 C.3   398  PRO398      0.0282
     85  CG         4.0110   -0.9010   -0.2180 C.3   398  PRO398      0.0208
     86  CD         5.2720   -1.6770    0.0460 C.3   398  PRO398      0.0893
     87  N          7.5400    1.2230    0.6630 N.am  399  ARG399     -0.1980
     88  CA         8.4120    2.2020    1.3160 C.3   399  ARG399      0.1597
     89  C          9.8580    2.1020    0.8190 C.2   399  ARG399      0.2287
     90  O         10.7750    2.6310    1.4360 O.2   399  ARG399     -0.2864
     91  CB         8.3340    2.0580    2.8400 C.3   399  ARG399      0.0334
     92  CG         6.9390    2.2760    3.4180 C.3   399  ARG399      0.0492
     93  CD         6.9140    2.0710    4.9290 C.3   399  ARG399      0.2205
     94  NE         7.8180    2.9930    5.6260 N.pl3 399  ARG399     -0.0865
     95  CZ         8.2000    2.8690    6.8950 C.cat 399  ARG399      0.5346
     96  NH1        7.7710    1.8610    7.6390 N.pl3 399  ARG399      0.1354
     97  NH2        9.0260    3.7630    7.4190 N.pl3 399  ARG399      0.1354
@<TRIPOS>BOND
     1    79    78    1
     2    72    73    1
     3    78    77    1
     4    77    76    1
     5    73    76    1
     6    73    74    1
     7    57    58    1
     8    74    75    2
     9    58    59    1
    10    81    80    1
    11    81    82    1
    12    81    84    1
    13    83    82    2
    14    80    86    1
    15    59    60    2
    16    62    63    1
    17    62    61    1
    18    62    65    1
    19    82    87   am
    20    84    85    1
    21    63    64    2
    22    85    86    1
    23    65    66    1
    24    87    88    1
    25    89    88    1
    26    89    90    2
    27    88    91    1
    28    66    67    1
    29     7     6    1
    30     7     1    1
    31    68    67    1
    32    68    69    2
    33     6     5    1
    34    71    69    1
    35    91    92    1
    36    69    70    1
    37    11    10    2
    38     1     2    1
    39    92    93    1
    40     5     2    1
    41    10     9    1
    42     4     3    2
    43    38    37    2
    44    49    47    1
    45     2     3    1
    46    15    14   ar
    47    12     9    1
    48    12    13    1
    49    37    36    1
    50    39    36    1
    51    39    40    1
    52    93    94    1
    53     9     8    1
    54    47    46    1
    55    36    35    1
    56    94    95    2
    57    14    13    1
    58    14    16   ar
    59    48    46    1
    60    40    41    1
    61    46    43    1
    62    95    97    1
    63    95    96    1
    64    35    41    1
    65    33    32    1
    66    53    52    2
    67    34    32    1
    68    42    43    1
    69    32    31    2
    70    43    44    1
    71    31    30    1
    72    45    44    2
    73    44    50   am
    74    52    51    1
    75    30    29    1
    76    50    56    1
    77    50    51    1
    78    56    55    1
    79    51    54    1
    80    29    28    1
    81    28    25    1
    82    54    55    1
    83    25    24    1
    84    25    26    1
    85    24    19   am
    86    26    27    2
    87    19    18    1
    88    19    20    2
    89    18    17    1
    90    18    21    1
    91    17    23    1
    92    21    22    1
    93    23    22    1
