@<TRIPOS>MOLECULE
tmp/4p8mA01.pdb
 169 161 0 0 0
SMALL
GASTEIGER

@<TRIPOS>ATOM
      1  N         19.8210  -17.6860    1.9300 N.3    53  TYR53      -0.1241
      2  CA        19.8590  -18.5290    0.7430 C.3    53  TYR53       0.1605
      3  C         20.3220  -17.7690   -0.4860 C.2    53  TYR53       0.2264
      4  O         20.9460  -18.3410   -1.3730 O.2    53  TYR53      -0.2867
      5  CB        18.4840  -19.1360    0.4880 C.3    53  TYR53       0.0534
      6  CG        18.0680  -20.1120    1.5580 C.ar   53  TYR53      -0.0201
      7  CD1       17.5370  -19.6630    2.7740 C.ar   53  TYR53      -0.0009
      8  CD2       18.2260  -21.4900    1.3730 C.ar   53  TYR53      -0.0009
      9  CE1       17.1580  -20.5540    3.7670 C.ar   53  TYR53       0.0417
     10  CE2       17.8520  -22.3890    2.3650 C.ar   53  TYR53       0.0417
     11  CZ        17.3170  -21.9120    3.5560 C.ar   53  TYR53       0.1957
     12  OH        16.9420  -22.7910    4.5420 O.3    53  TYR53      -0.2866
     13  N         15.2500  -17.7980   15.0720 N.3   109  PRO109     -0.2102
     14  CA        14.8380  -18.3660   13.7930 C.3   109  PRO109      0.1504
     15  C         15.0150  -19.8920   13.8180 C.2   109  PRO109      0.2576
     16  O         15.3720  -20.4470   14.8640 O.2   109  PRO109     -0.2718
     17  CB        15.8070  -17.7150   12.8060 C.3   109  PRO109      0.0282
     18  CG        17.0590  -17.4810   13.6050 C.3   109  PRO109      0.0208
     19  CD        16.6770  -17.4270   15.0710 C.3   109  PRO109      0.0893
     20  N         14.7920  -20.5480   12.6800 N.am  110  GLY110     -0.1943
     21  CA        14.8050  -22.0120   12.5860 C.3   110  GLY110      0.2014
     22  C         16.1730  -22.6680   12.6430 C.2   110  GLY110      0.2639
     23  O         16.2640  -23.8850   12.6900 O.2   110  GLY110     -0.2714
     24  N         17.2310  -21.8610   12.5950 N.am  111  THR111     -0.1950
     25  CA        18.5950  -22.3010   12.9230 C.3   111  THR111      0.1897
     26  C         19.2010  -21.2940   13.8990 C.2   111  THR111      0.2313
     27  O         18.8990  -20.0910   13.8290 O.2   111  THR111     -0.2863
     28  CB        19.5090  -22.4410   11.6760 C.3   111  THR111      0.1794
     29  OG1       20.8760  -22.5620   12.0860 O.3   111  THR111     -0.2208
     30  CG2       19.4040  -21.2420   10.7510 C.3   111  THR111      0.0378
     31  N         12.5800  -13.2090   11.8680 N.3   125  HIS125     -0.1226
     32  CA        11.3710  -13.5010   12.6050 C.3   125  HIS125      0.1752
     33  C         11.4270  -14.9390   13.0270 C.2   125  HIS125      0.2597
     34  O         12.2360  -15.7250   12.5110 O.2   125  HIS125     -0.2718
     35  CB        10.1560  -13.2520   11.7170 C.3   125  HIS125      0.0759
     36  CG        10.1400  -14.1030   10.4760 C.ar  125  HIS125      0.0818
     37  ND1       10.6420  -13.6780    9.3020 N.ar  125  HIS125     -0.2268
     38  CD2        9.6750  -15.4050   10.2620 C.ar  125  HIS125      0.1154
     39  CE1       10.5040  -14.6550    8.3820 C.ar  125  HIS125      0.1986
     40  NE2        9.9080  -15.7080    8.9750 N.ar  125  HIS125     -0.2212
     41  N         10.5770  -15.3030   13.9790 N.am  126  GLY126     -0.1942
     42  CA        10.5300  -16.6740   14.4780 C.3   126  GLY126      0.2014
     43  C          9.1130  -17.1180   14.7810 C.2   126  GLY126      0.2638
     44  O          8.1440  -16.4210   14.4360 O.2   126  GLY126     -0.2714
     45  N          9.0000  -18.2750   15.4390 N.am  127  LYS127     -0.1977
     46  CA         7.7230  -18.8230   15.8970 C.3   127  LYS127      0.1596
     47  C          6.8770  -17.8670   16.7380 C.2   127  LYS127      0.2287
     48  O          5.6670  -18.0180   16.8100 O.2   127  LYS127     -0.2864
     49  CB         7.9560  -20.0850   16.7290 C.3   127  LYS127      0.0298
     50  CG         8.1950  -21.3430   15.9240 C.3   127  LYS127      0.0038
     51  CD         8.2010  -22.5880   16.8110 C.3   127  LYS127      0.0206
     52  CE         6.7960  -22.9840   17.2680 C.3   127  LYS127      0.1093
     53  NZ         6.7180  -24.4250   17.6400 N.3   127  LYS127     -0.1314
     54  N          3.8460  -22.3000   15.1640 N.3   221  SER221     -0.1217
     55  CA         4.0890  -22.5870   13.7470 C.3   221  SER221      0.1889
     56  C          3.5940  -23.9890   13.4190 C.2   221  SER221      0.2288
     57  O          3.2250  -24.7580   14.3200 O.2   221  SER221     -0.2866
     58  CB         5.5630  -22.4290   13.3640 C.3   221  SER221      0.2089
     59  OG         6.3780  -23.3130   14.1060 O.3   221  SER221     -0.2183
     60  N          3.8500  -27.3710   10.2470 N.3   223  TRP223     -0.1241
     61  CA         4.2100  -27.9670    8.9740 C.3   223  TRP223      0.1605
     62  C          2.9160  -28.1970    8.2380 C.2   223  TRP223      0.2264
     63  O          1.9300  -28.6110    8.8410 O.2   223  TRP223     -0.2867
     64  CB         4.9360  -29.3010    9.1750 C.3   223  TRP223      0.0550
     65  CG         6.1620  -29.2750   10.0700 C.ar  223  TRP223      0.0003
     66  CD1        6.2290  -29.5820   11.4280 C.ar  223  TRP223      0.0946
     67  CD2        7.5530  -28.9630    9.6840 C.ar  223  TRP223      0.0152
     68  NE1        7.5160  -29.4660   11.8960 N.ar  223  TRP223     -0.2442
     69  CE2        8.3570  -29.0980   10.9030 C.ar  223  TRP223      0.0810
     70  CE3        8.1780  -28.5850    8.5050 C.ar  223  TRP223      0.0012
     71  CZ2        9.7200  -28.8630   10.9120 C.ar  223  TRP223      0.0191
     72  CZ3        9.5560  -28.3550    8.5250 C.ar  223  TRP223      0.0001
     73  CH2       10.3070  -28.4920    9.7000 C.ar  223  TRP223      0.0015
     74  N         11.5060  -26.9690   18.8210 N.3   288  TYR288     -0.1241
     75  CA        11.9060  -26.0350   17.7640 C.3   288  TYR288      0.1605
     76  C         13.0240  -26.5600   16.8470 C.2   288  TYR288      0.2264
     77  O         12.8440  -26.6110   15.6290 O.2   288  TYR288     -0.2867
     78  CB        12.3120  -24.6800   18.3790 C.3   288  TYR288      0.0534
     79  CG        12.1220  -23.4600   17.4950 C.ar  288  TYR288     -0.0201
     80  CD1       12.1280  -23.5600   16.0970 C.ar  288  TYR288     -0.0009
     81  CD2       11.9660  -22.1940   18.0630 C.ar  288  TYR288     -0.0009
     82  CE1       11.9580  -22.4410   15.2960 C.ar  288  TYR288      0.0417
     83  CE2       11.7980  -21.0640   17.2720 C.ar  288  TYR288      0.0417
     84  CZ        11.7970  -21.1900   15.8900 C.ar  288  TYR288      0.1957
     85  OH        11.6260  -20.0710   15.1010 O.3   288  TYR288     -0.2866
     86  N         15.1610  -29.4920   15.7070 N.3   290  PRO290     -0.2116
     87  CA        15.8430  -30.7620   15.4210 C.3   290  PRO290      0.1372
     88  C         17.1520  -30.5110   14.6500 C.2   290  PRO290      0.2244
     89  O         17.1260  -30.0340   13.5120 O.2   290  PRO290     -0.2868
     90  CB        14.8210  -31.5420   14.5730 C.3   290  PRO290      0.0268
     91  CG        13.8290  -30.5290   14.1020 C.3   290  PRO290      0.0207
     92  CD        13.7870  -29.4770   15.1710 C.3   290  PRO290      0.0892
     93  N         14.4190  -22.1770   -2.3750 N.3   300  GLN300     -0.1245
     94  CA        13.6810  -21.7460   -1.1980 C.3   300  GLN300      0.1566
     95  C         12.8130  -20.5540   -1.5810 C.2   300  GLN300      0.2260
     96  O         13.3020  -19.5890   -2.1640 O.2   300  GLN300     -0.2867
     97  CB        14.6640  -21.3390   -0.0950 C.3   300  GLN300      0.0367
     98  CG        14.1350  -21.4660    1.3240 C.3   300  GLN300      0.0905
     99  CD        14.0890  -22.9050    1.8080 C.2   300  GLN300      0.2608
    100  OE1       14.9940  -23.6980    1.5400 O.2   300  GLN300     -0.2717
    101  NE2       13.0290  -23.2480    2.5280 N.am  300  GLN300     -0.0878
    102  N          9.7660  -17.9890    0.1120 N.3   302  GLN302     -0.1245
    103  CA         8.9870  -17.5760    1.2840 C.3   302  GLN302      0.1566
    104  C          8.2380  -16.2730    1.0090 C.2   302  GLN302      0.2260
    105  O          8.8250  -15.2860    0.5570 O.2   302  GLN302     -0.2867
    106  CB         9.8590  -17.4470    2.5480 C.3   302  GLN302      0.0367
    107  CG         9.0780  -17.0050    3.7860 C.3   302  GLN302      0.0905
    108  CD         9.8350  -17.1650    5.0960 C.2   302  GLN302      0.2608
    109  OE1       11.0420  -17.4300    5.1140 O.2   302  GLN302     -0.2717
    110  NE2        9.1200  -17.0060    6.2080 N.am  302  GLN302     -0.0878
    111  N          9.0030  -29.8540    2.6550 N.3   329  LEU329     -0.1245
    112  CA         9.3640  -29.0200    3.8020 C.3   329  LEU329      0.1561
    113  C          8.6600  -27.6650    3.7450 C.2   329  LEU329      0.2260
    114  O          9.1130  -26.7420    3.0630 O.2   329  LEU329     -0.2867
    115  CB        10.8890  -28.8430    3.8910 C.3   329  LEU329      0.0270
    116  CG        11.7260  -30.0800    4.2490 C.3   329  LEU329      0.0019
    117  CD1       13.1760  -29.8980    3.8110 C.3   329  LEU329      0.0001
    118  CD2       11.6390  -30.3890    5.7380 C.3   329  LEU329      0.0001
    119  N          6.7610  -24.5800    5.9980 N.3   331  VAL331     -0.1245
    120  CA         6.4500  -23.9200    7.2640 C.3   331  VAL331      0.1561
    121  C          5.3050  -22.9350    7.0720 C.2   331  VAL331      0.2260
    122  O          5.2060  -22.2620    6.0480 O.2   331  VAL331     -0.2867
    123  CB         7.6720  -23.2180    7.9070 C.3   331  VAL331      0.0252
    124  CG1        7.3660  -22.8370    9.3510 C.3   331  VAL331      0.0019
    125  CG2        8.8980  -24.1190    7.8780 C.3   331  VAL331      0.0019
    126  N          2.9030  -20.0320    9.3170 N.3   333  LYS333     -0.1245
    127  CA         2.6900  -19.2600   10.5200 C.3   333  LYS333      0.1561
    128  C          1.8370  -18.0320   10.1930 C.2   333  LYS333      0.2260
    129  O          1.8550  -17.5380    9.0590 O.2   333  LYS333     -0.2867
    130  CB         4.0420  -18.8860   11.1550 C.3   333  LYS333      0.0271
    131  CG         4.1110  -17.4820   11.7310 C.3   333  LYS333      0.0035
    132  CD         5.1370  -17.3720   12.8310 C.3   333  LYS333      0.0206
    133  CE         4.5480  -16.5740   13.9750 C.3   333  LYS333      0.1093
    134  NZ         3.5700  -17.3930   14.7370 N.3   333  LYS333     -0.1314
    135  N          2.0670  -16.5520    6.3720 N.3   351  ASN351     -0.1240
    136  CA         3.4520  -16.7140    5.9880 C.3   351  ASN351      0.1653
    137  C          3.7450  -18.1680    5.6590 C.2   351  ASN351      0.2266
    138  O          3.3960  -19.0750    6.4200 O.2   351  ASN351     -0.2867
    139  CB         4.3760  -16.2130    7.1010 C.3   351  ASN351      0.1155
    140  CG         5.8240  -16.5920    6.8670 C.2   351  ASN351      0.2627
    141  OD1        6.5310  -15.9670    6.0680 O.2   351  ASN351     -0.2716
    142  ND2        6.2770  -17.6200    7.5740 N.am  351  ASN351     -0.0877
    143  N          6.8230  -20.7960    3.8350 N.3   353  CYS353     -0.1235
    144  CA         8.0790  -21.1360    3.1710 C.3   353  CYS353      0.1677
    145  C          7.9630  -22.5330    2.5680 C.2   353  CYS353      0.2270
    146  O          7.6080  -23.4830    3.2600 O.2   353  CYS353     -0.2867
    147  CB         9.2760  -21.0530    4.1240 C.3   353  CYS353      0.0956
    148  SG        10.8840  -21.2890    3.3150 S.3   353  CYS353     -0.0801
    149  N         10.6300  -12.5900    0.8850 N.3   381  TYR381     -0.1241
    150  CA        11.6660  -12.3260    1.8770 C.3   381  TYR381      0.1605
    151  C         13.0440  -12.3300    1.2220 C.2   381  TYR381      0.2264
    152  O         13.4250  -13.3240    0.6150 O.2   381  TYR381     -0.2867
    153  CB        11.5690  -13.4330    2.9300 C.3   381  TYR381      0.0534
    154  CG        12.3940  -13.2910    4.1900 C.ar  381  TYR381     -0.0201
    155  CD1       12.9570  -12.0720    4.5790 C.ar  381  TYR381     -0.0009
    156  CD2       12.5760  -14.3980    5.0250 C.ar  381  TYR381     -0.0009
    157  CE1       13.7000  -11.9710    5.7500 C.ar  381  TYR381      0.0417
    158  CE2       13.3200  -14.3110    6.1900 C.ar  381  TYR381      0.0417
    159  CZ        13.8780  -13.1010    6.5550 C.ar  381  TYR381      0.1957
    160  OH        14.5940  -13.0400    7.7310 O.3   381  TYR381     -0.2866
    161  N         15.6860  -15.1770    1.5680 N.3   384  LYS384     -0.1245
    162  CA        15.4450  -16.4320    0.8640 C.3   384  LYS384      0.1561
    163  C         15.5340  -16.2880   -0.6540 C.2   384  LYS384      0.2260
    164  O         15.4100  -17.2790   -1.3810 O.2   384  LYS384     -0.2867
    165  CB        14.0690  -17.0090    1.2260 C.3   384  LYS384      0.0271
    166  CG        13.7730  -17.1390    2.7140 C.3   384  LYS384      0.0035
    167  CD        14.5840  -18.2380    3.3770 C.3   384  LYS384      0.0206
    168  CE        13.9940  -18.6460    4.7230 C.3   384  LYS384      0.1093
    169  NZ        12.8240  -19.5600    4.5660 N.3   384  LYS384     -0.1314
@<TRIPOS>BOND
     1    93    94    1
     2    96    95    2
     3    95    94    1
     4   164   163    2
     5     4     3    2
     6    94    97    1
     7   163   162    1
     8     3     2    1
     9    97    98    1
    10   102   103    1
    11     5     2    1
    12     5     6    1
    13   105   104    2
    14   152   151    2
    15     2     1    1
    16   162   165    1
    17   162   161    1
    18   149   150    1
    19   104   103    1
    20   151   150    1
    21   165   166    1
    22   103   106    1
    23    98    99    1
    24     8     6   ar
    25     8    10   ar
    26   100    99    2
    27     6     7   ar
    28    99   101   am
    29   150   153    1
    30    10    11   ar
    31   106   107    1
    32   145   144    1
    33   145   146    2
    34   111   112    1
    35   166   167    1
    36     7     9   ar
    37   153   154    1
    38   114   113    2
    39   144   143    1
    40   144   147    1
    41   148   147    1
    42   167   168    1
    43    11     9   ar
    44    11    12    1
    45   113   112    1
    46   107   108    1
    47   112   115    1
    48   117   116    1
    49   115   116    1
    50   154   155   ar
    51   154   156   ar
    52   116   118    1
    53   169   168    1
    54   155   157   ar
    55   156   158   ar
    56   108   109    2
    57   108   110   am
    58   137   136    1
    59   137   138    2
    60   157   159   ar
    61   136   135    1
    62   136   139    1
    63   119   120    1
    64   122   121    2
    65   141   140    2
    66   158   159   ar
    67   159   160    1
    68   140   139    1
    69   140   142   am
    70   121   120    1
    71   120   123    1
    72   125   123    1
    73   123   124    1
    74    62    63    2
    75    62    61    1
    76    39    40   ar
    77    39    37   ar
    78    70    72   ar
    79    70    67   ar
    80    72    73   ar
    81    61    64    1
    82    61    60    1
    83    40    38   ar
    84   129   128    2
    85    64    65    1
    86    37    36   ar
    87   126   127    1
    88    67    65   ar
    89    67    69   ar
    90    73    71   ar
    91    65    66   ar
    92   128   127    1
    93    38    36   ar
    94    36    35    1
    95   127   130    1
    96    30    28    1
    97    69    71   ar
    98    69    68   ar
    99   130   131    1
   100    66    68   ar
   101    28    29    1
   102    28    25    1
   103    35    32    1
   104   131   132    1
   105    31    32    1
   106    34    33    2
   107    21    22    1
   108    21    20    1
   109    24    22   am
   110    24    25    1
   111    32    33    1
   112    22    23    2
   113    20    15   am
   114    17    18    1
   115    17    14    1
   116   132   133    1
   117    25    26    1
   118    33    41   am
   119    58    55    1
   120    58    59    1
   121    56    55    1
   122    56    57    2
   123    89    88    2
   124    18    19    1
   125    55    54    1
   126    14    15    1
   127    14    13    1
   128    15    16    2
   129    27    26    2
   130   133   134    1
   131    41    42    1
   132    91    90    1
   133    91    92    1
   134    44    43    2
   135    42    43    1
   136    90    87    1
   137    88    87    1
   138    43    45   am
   139    19    13    1
   140    85    84    1
   141    92    86    1
   142    82    84   ar
   143    82    80   ar
   144    87    86    1
   145    45    46    1
   146    77    76    2
   147    84    83   ar
   148    46    49    1
   149    46    47    1
   150    50    49    1
   151    50    51    1
   152    80    79   ar
   153    47    48    2
   154    51    52    1
   155    76    75    1
   156    52    53    1
   157    83    81   ar
   158    79    81   ar
   159    79    78    1
   160    75    78    1
   161    75    74    1
