@<TRIPOS>MOLECULE
tmp/4p8oA00.pdb
 117 109 0 0 0
SMALL
GASTEIGER

@<TRIPOS>ATOM
      1  N         44.6200    5.2710   21.1750 N.3    28  ILE28      -0.1245
      2  CA        44.2970    3.8780   20.8570 C.3    28  ILE28       0.1561
      3  C         44.3120    3.6920   19.3070 C.2    28  ILE28       0.2260
      4  O         45.0040    2.8060   18.8160 O.2    28  ILE28      -0.2867
      5  CB        42.9630    3.4220   21.5080 C.3    28  ILE28       0.0252
      6  CG1       43.0050    3.5370   23.0590 C.3    28  ILE28       0.0019
      7  CG2       42.5930    2.0110   21.0780 C.3    28  ILE28       0.0019
      8  CD1       44.2250    2.7750   23.8150 C.3    28  ILE28       0.0001
      9  N         47.6860    3.2720   17.5610 N.3    31  ASN31      -0.1225
     10  CA        48.2730    1.9300   17.6480 C.3    31  ASN31       0.1785
     11  C         47.8370    1.0520   16.4950 C.2    31  ASN31       0.2597
     12  O         48.6670    0.3570   15.9230 O.2    31  ASN31      -0.2718
     13  CB        47.9820    1.2830   18.9980 C.3    31  ASN31       0.1169
     14  CG        48.7010    1.9660   20.1500 C.2    31  ASN31       0.2627
     15  OD1       49.6920    2.6890   19.9960 O.2    31  ASN31      -0.2716
     16  ND2       48.2020    1.7680   21.3250 N.am   31  ASN31      -0.0877
     17  N         46.5470    1.1330   16.1200 N.am   32  SER32      -0.1952
     18  CA        45.9670    0.4410   14.9750 C.3    32  SER32       0.1924
     19  C         46.5750    0.9950   13.6880 C.2    32  SER32       0.2314
     20  O         46.9190    0.2110   12.8140 O.2    32  SER32      -0.2863
     21  CB        44.4600    0.6100   14.9780 C.3    32  SER32       0.2116
     22  OG        43.9380   -0.0260   16.1270 O.3    32  SER32      -0.2180
     23  N         49.9950   -0.4260   13.3420 N.3    35  GLU35      -0.1245
     24  CA        49.8310   -1.8170   12.8820 C.3    35  GLU35       0.1567
     25  C         49.4890   -1.8860   11.3680 C.2    35  GLU35       0.2260
     26  O         49.9270   -2.8150   10.6830 O.2    35  GLU35      -0.2867
     27  CB        48.8360   -2.5880   13.7630 C.3    35  GLU35       0.0388
     28  CG        48.7690   -4.1040   13.5180 C.3    35  GLU35       0.1160
     29  CD        50.0080   -4.9650   13.7110 C.2    35  GLU35       0.3649
     30  OE1       51.0760   -4.4410   14.1050 O.co2  35  GLU35      -0.2457
     31  OE2       49.9100   -6.1820   13.4500 O.co2  35  GLU35      -0.2457
     32  N         37.7910    0.2280   20.0210 N.3    56  VAL56      -0.1231
     33  CA        38.6640    0.3310   18.8600 C.3    56  VAL56       0.1692
     34  C         39.0900   -1.1040   18.4660 C.2    56  VAL56       0.2593
     35  O         39.5210   -1.8780   19.3190 O.2    56  VAL56      -0.2718
     36  CB        39.8350    1.3380   19.0030 C.3    56  VAL56       0.0266
     37  CG1       40.6390    1.4430   17.7050 C.3    56  VAL56       0.0020
     38  CG2       39.3420    2.7200   19.4050 C.3    56  VAL56       0.0020
     39  N         38.9090   -1.4520   17.1850 N.am   57  THR57      -0.1939
     40  CA        39.2060   -2.7630   16.6250 C.3    57  THR57       0.2028
     41  C         40.0580   -2.6380   15.3730 C.2    57  THR57       0.2642
     42  O         39.7680   -1.8260   14.4890 O.2    57  THR57      -0.2714
     43  CB        37.8890   -3.5140   16.2800 C.3    57  THR57       0.1808
     44  OG1       37.0640   -3.5910   17.4390 O.3    57  THR57      -0.2208
     45  CG2       38.1240   -4.9150   15.7520 C.3    57  THR57       0.0379
     46  N         41.0880   -3.4930   15.2780 N.am   58  ASP58      -0.1971
     47  CA        41.8710   -3.6160   14.0740 C.3    58  ASP58       0.1709
     48  C         42.0150   -5.0910   13.6830 C.2    58  ASP58       0.2293
     49  O         41.7340   -5.9830   14.5020 O.2    58  ASP58      -0.2864
     50  CB        43.2060   -2.8740   14.1640 C.3    58  ASP58       0.1436
     51  CG        44.2400   -3.4980   15.0500 C.2    58  ASP58       0.3671
     52  OD1       44.5650   -4.7080   14.8430 O.co2  58  ASP58      -0.2456
     53  OD2       44.7950   -2.7760   15.8840 O.co2  58  ASP58      -0.2456
     54  N         48.0310   -8.1990   13.5520 N.3    61  ARG61      -0.1231
     55  CA        48.5420   -9.4390   14.1450 C.3    61  ARG61       0.1694
     56  C         47.9850   -9.7870   15.5350 C.2    61  ARG61       0.2593
     57  O         48.0990  -10.9390   15.9490 O.2    61  ARG61      -0.2718
     58  CB        50.0520   -9.3670   14.2250 C.3    61  ARG61       0.0321
     59  CG        50.7540   -9.4460   12.8760 C.3    61  ARG61       0.0489
     60  CD        52.2090   -9.0630   13.0370 C.3    61  ARG61       0.2205
     61  NE        52.3390   -7.6440   13.3820 N.pl3  61  ARG61      -0.0865
     62  CZ        53.4950   -7.0260   13.5850 C.cat  61  ARG61       0.5346
     63  NH1       53.5210   -5.7280   13.8390 N.pl3  61  ARG61       0.1354
     64  NH2       54.6380   -7.6890   13.4830 N.pl3  61  ARG61       0.1354
     65  N         47.4220   -8.8100   16.2380 N.am   62  GLY62      -0.1942
     66  CA        46.9700   -8.9790   17.6180 C.3    62  GLY62       0.2014
     67  C         48.1580   -8.6680   18.5290 C.2    62  GLY62       0.2639
     68  O         49.2870   -9.0950   18.2260 O.2    62  GLY62      -0.2714
     69  N         47.9560   -7.8270   19.5940 N.am   63  ILE63      -0.1963
     70  CA        49.0580   -7.4990   20.5440 C.3    63  ILE63       0.1712
     71  C         49.6800   -8.8520   21.0640 C.2    63  ILE63       0.2458
     72  O         48.9110   -9.7510   21.4480 O.2    63  ILE63      -0.2730
     73  CB        48.6110   -6.5880   21.7190 C.3    63  ILE63       0.0289
     74  CG1       48.0730   -5.2330   21.2250 C.3    63  ILE63       0.0022
     75  CG2       49.7490   -6.3890   22.7310 C.3    63  ILE63       0.0023
     76  CD1       47.5300   -4.2710   22.3310 C.3    63  ILE63       0.0001
     77  N         51.0340   -9.0120   21.0960 N.am   64  PRO64      -0.2727
     78  CA        51.6030  -10.2880   21.5640 C.3    64  PRO64       0.1402
     79  C         51.1680  -10.6700   22.9740 C.2    64  PRO64       0.2269
     80  O         50.9240   -9.7880   23.8020 O.2    64  PRO64      -0.2865
     81  CB        53.1160  -10.0850   21.4150 C.3    64  PRO64       0.0296
     82  CG        53.2720   -8.9720   20.4380 C.3    64  PRO64       0.0237
     83  CD        52.1080   -8.0670   20.7050 C.3    64  PRO64       0.0939
     84  N         52.3090   -4.1510   28.2420 N.3    79  ILE79      -0.1245
     85  CA        51.9540   -3.0180   27.3760 C.3    79  ILE79       0.1561
     86  C         50.8070   -2.2020   27.9710 C.2    79  ILE79       0.2260
     87  O         50.9140   -0.9900   28.0370 O.2    79  ILE79      -0.2867
     88  CB        51.6560   -3.5090   25.9130 C.3    79  ILE79       0.0252
     89  CG1       52.9800   -3.9280   25.2020 C.3    79  ILE79       0.0019
     90  CG2       50.8730   -2.4490   25.0790 C.3    79  ILE79       0.0019
     91  CD1       52.7900   -4.9300   24.0390 C.3    79  ILE79       0.0001
     92  N         44.6500  -14.1060   18.2140 N.3    98  ARG98      -0.1245
     93  CA        46.0110  -14.4800   17.8240 C.3    98  ARG98       0.1563
     94  C         46.2060  -15.9470   18.1400 C.2    98  ARG98       0.2260
     95  O         45.6910  -16.4130   19.1610 O.2    98  ARG98      -0.2867
     96  CB        47.0240  -13.6240   18.6220 C.3    98  ARG98       0.0307
     97  CG        48.4530  -13.6330   18.1010 C.3    98  ARG98       0.0489
     98  CD        49.3210  -12.6770   18.9060 C.3    98  ARG98       0.2205
     99  NE        50.7360  -12.9540   18.6980 N.pl3  98  ARG98      -0.0865
    100  CZ        51.5560  -12.2040   17.9730 C.cat  98  ARG98       0.5346
    101  NH1       51.1150  -11.0990   17.3870 N.pl3  98  ARG98       0.1354
    102  NH2       52.8270  -12.5450   17.8420 N.pl3  98  ARG98       0.1354
    103  N         43.2810   -6.9230   17.4060 N.3   127  THR127     -0.1218
    104  CA        43.1440   -6.4120   18.7680 C.3   127  THR127      0.1862
    105  C         41.8450   -5.6120   18.8810 C.2   127  THR127      0.2287
    106  O         41.4790   -4.8870   17.9540 O.2   127  THR127     -0.2866
    107  CB        44.3180   -5.4860   19.0870 C.3   127  THR127      0.1770
    108  OG1       45.5300   -6.1630   18.7870 O.3   127  THR127     -0.2211
    109  CG2       44.3170   -4.9940   20.5290 C.3   127  THR127      0.0375
    110  N         40.1500   -3.0450   21.9170 N.3   129  ILE129     -0.1245
    111  CA        40.3200   -2.2700   23.1310 C.3   129  ILE129      0.1561
    112  C         39.0180   -1.4820   23.3940 C.2   129  ILE129      0.2260
    113  O         38.5870   -0.7100   22.5490 O.2   129  ILE129     -0.2867
    114  CB        41.6100   -1.4120   23.1050 C.3   129  ILE129      0.0252
    115  CG1       42.8470   -2.3350   23.3240 C.3   129  ILE129      0.0019
    116  CG2       41.5530   -0.3090   24.1820 C.3   129  ILE129      0.0019
    117  CD1       44.1690   -1.6840   23.2980 C.3   129  ILE129      0.0001
@<TRIPOS>BOND
     1    26    25    2
     2    25    24    1
     3    20    19    2
     4    59    60    1
     5    59    58    1
     6    24    23    1
     7    24    27    1
     8    60    61    1
     9    61    62    2
    10    31    29   ar
    11    64    62    1
    12    28    29    1
    13    28    27    1
    14    54    55    1
    15    62    63    1
    16    48    47    1
    17    48    49    2
    18    19    18    1
    19    29    30   ar
    20    47    50    1
    21    47    46    1
    22    55    58    1
    23    55    56    1
    24    50    51    1
    25    42    41    2
    26    52    51   ar
    27    18    21    1
    28    18    17    1
    29    21    22    1
    30    51    53   ar
    31    46    41   am
    32    41    40    1
    33    56    57    2
    34    56    65   am
    35    45    43    1
    36    12    11    2
    37    17    11   am
    38    65    66    1
    39    43    40    1
    40    43    44    1
    41    11    10    1
    42    40    39    1
    43    39    34   am
    44   101   100    1
    45   103   104    1
    46     9    10    1
    47    66    67    1
    48    10    13    1
    49    37    36    1
    50    93    94    1
    51    93    92    1
    52    93    96    1
    53   102   100    1
    54   106   105    2
    55   100    99    2
    56    97    96    1
    57    97    98    1
    58    94    95    2
    59    68    67    2
    60    34    33    1
    61    34    35    2
    62    67    69   am
    63    99    98    1
    64   104   105    1
    65   104   107    1
    66   108   107    1
    67     4     3    2
    68    33    36    1
    69    33    32    1
    70    13    14    1
    71    36    38    1
    72   107   109    1
    73     3     2    1
    74    69    70    1
    75    15    14    2
    76    14    16   am
    77    82    83    1
    78    82    81    1
    79    70    71    1
    80    70    73    1
    81    83    77    1
    82     2     1    1
    83     2     5    1
    84    71    77   am
    85    71    72    2
    86     7     5    1
    87    77    78    1
    88    74    73    1
    89    74    76    1
    90    81    78    1
    91     5     6    1
    92    78    79    1
    93    73    75    1
    94   110   111    1
    95   113   112    2
    96    79    80    2
    97     6     8    1
    98   114   111    1
    99   114   115    1
   100   114   116    1
   101   111   112    1
   102   117   115    1
   103    91    89    1
   104    90    88    1
   105    89    88    1
   106    88    85    1
   107    85    86    1
   108    85    84    1
   109    86    87    2
