@<TRIPOS>MOLECULE
tmp/4p8qA00.pdb
 96 95 0 0 0
SMALL
GASTEIGER

@<TRIPOS>ATOM
      1  N         66.0250   18.3290   30.5660 N.3    24  HIS24      -0.1227
      2  CA        67.4480   18.3250   30.8700 C.3    24  HIS24       0.1737
      3  C         67.9610   16.8730   30.8740 C.2    24  HIS24       0.2438
      4  O         68.0300   16.2340   31.9370 O.2    24  HIS24      -0.2733
      5  CB        67.8080   19.0780   32.1540 C.3    24  HIS24       0.0758
      6  CG        69.2710   19.3870   32.2700 C.ar   24  HIS24       0.0818
      7  ND1       69.7330   20.3070   33.1840 N.ar   24  HIS24      -0.2268
      8  CD2       70.3270   18.9050   31.5670 C.ar   24  HIS24       0.1154
      9  CE1       71.0450   20.3490   33.0210 C.ar   24  HIS24       0.1986
     10  NE2       71.4460   19.5210   32.0570 N.ar   24  HIS24      -0.2212
     11  N         68.3290   16.3330   29.6830 N.am   25  PRO25      -0.2718
     12  CA        68.8110   14.9530   29.6420 C.3    25  PRO25       0.1535
     13  C         70.3050   14.8150   29.9040 C.2    25  PRO25       0.2599
     14  O         71.1190   15.5110   29.2800 O.2    25  PRO25      -0.2715
     15  CB        68.4170   14.4820   28.2330 C.3    25  PRO25       0.0310
     16  CG        68.2990   15.7300   27.4130 C.3    25  PRO25       0.0237
     17  CD        68.3030   16.9270   28.3280 C.3    25  PRO25       0.0939
     18  N         70.6570   13.9160   30.8410 N.am   26  ASN26      -0.1959
     19  CA        72.0410   13.5760   31.1140 C.3    26  ASN26       0.1819
     20  C         72.3080   12.2610   30.3940 C.2    26  ASN26       0.2621
     21  O         71.9280   11.1830   30.8660 O.2    26  ASN26      -0.2715
     22  CB        72.3940   13.5140   32.6070 C.3    26  ASN26       0.1195
     23  CG        73.8890   13.5860   32.7650 C.2    26  ASN26       0.2630
     24  OD1       74.5720   12.5590   32.8550 O.2    26  ASN26      -0.2716
     25  ND2       74.4120   14.8170   32.7260 N.am   26  ASN26      -0.0877
     26  N         72.8920   12.3900   29.1880 N.am   27  LEU27      -0.1963
     27  CA        73.2230   11.3090   28.2570 C.3    27  LEU27       0.1728
     28  C         74.2380   10.3260   28.8520 C.2    27  LEU27       0.2616
     29  O         74.1340    9.1250   28.5970 O.2    27  LEU27      -0.2715
     30  CB        73.7050   11.9010   26.9120 C.3    27  LEU27       0.0311
     31  CG        72.6380   12.1660   25.8090 C.3    27  LEU27       0.0022
     32  CD1       71.5650   13.1830   26.2450 C.3    27  LEU27       0.0001
     33  CD2       73.2920   12.6280   24.5020 C.3    27  LEU27       0.0001
     34  N         75.1820   10.8270   29.6790 N.am   28  THR28      -0.1951
     35  CA        76.1770    9.9880   30.3480 C.3    28  THR28       0.1897
     36  C         75.5150    9.1630   31.4600 C.2    28  THR28       0.2313
     37  O         75.9380    8.0370   31.6980 O.2    28  THR28      -0.2863
     38  CB        77.3910   10.8030   30.8410 C.3    28  THR28       0.1794
     39  OG1       77.0180   11.5990   31.9640 O.3    28  THR28      -0.2208
     40  CG2       78.0120   11.6830   29.7480 C.3    28  THR28       0.0378
     41  N         68.1980   21.4310   27.3720 N.3   162  ILE162     -0.1231
     42  CA        69.4630   21.7900   28.0090 C.3   162  ILE162      0.1692
     43  C         70.4690   20.6850   27.6650 C.2   162  ILE162      0.2592
     44  O         70.2620   19.5220   28.0120 O.2   162  ILE162     -0.2718
     45  CB        69.3020   22.0120   29.5360 C.3   162  ILE162      0.0266
     46  CG1       68.2630   23.1080   29.8410 C.3   162  ILE162      0.0019
     47  CG2       70.6360   22.3590   30.1810 C.3   162  ILE162      0.0020
     48  CD1       66.8680   22.5940   30.3110 C.3   162  ILE162      0.0001
     49  N         71.5340   21.0570   26.9550 N.am  163  ARG163     -0.1966
     50  CA        72.5790   20.1470   26.4860 C.3   163  ARG163      0.1729
     51  C         73.9780   20.6730   26.7720 C.2   163  ARG163      0.2616
     52  O         74.1320   21.8510   27.0900 O.2   163  ARG163     -0.2715
     53  CB        72.4220   19.8990   24.9690 C.3   163  ARG163      0.0348
     54  CG        72.1000   21.1440   24.1240 C.3   163  ARG163      0.0492
     55  CD        73.2910   21.6200   23.3250 C.3   163  ARG163      0.2205
     56  NE        73.0180   22.8810   22.6340 N.pl3 163  ARG163     -0.0865
     57  CZ        73.8740   23.4990   21.8210 C.cat 163  ARG163      0.5346
     58  NH1       73.5390   24.6440   21.2430 N.pl3 163  ARG163      0.1354
     59  NH2       75.0710   22.9760   21.5820 N.pl3 163  ARG163      0.1354
     60  N         74.9970   19.8010   26.6360 N.am  164  ASP164     -0.1971
     61  CA        76.4110   20.1620   26.7750 C.3   164  ASP164      0.1709
     62  C         76.8250   20.8690   25.5060 C.2   164  ASP164      0.2293
     63  O         76.3250   20.5320   24.4350 O.2   164  ASP164     -0.2864
     64  CB        77.2900   18.9270   27.0020 C.3   164  ASP164      0.1436
     65  CG        77.5660   18.5770   28.4530 C.2   164  ASP164      0.3671
     66  OD1       78.1290   19.4320   29.1750 O.co2 164  ASP164     -0.2456
     67  OD2       77.2910   17.4180   28.8480 O.co2 164  ASP164     -0.2456
     68  N         79.2490   20.7780   23.3760 N.3   166  GLN166     -0.1231
     69  CA        79.7510   19.9440   22.2700 C.3   166  GLN166      0.1698
     70  C         78.6680   19.2320   21.4340 C.2   166  GLN166      0.2592
     71  O         78.9260   18.9170   20.2680 O.2   166  GLN166     -0.2718
     72  CB        80.8200   18.9410   22.7690 C.3   166  GLN166      0.0381
     73  CG        80.3100   17.8020   23.6840 C.3   166  GLN166      0.0905
     74  CD        80.1770   18.1540   25.1580 C.2   166  GLN166      0.2608
     75  OE1       80.1080   19.3290   25.5640 O.2   166  GLN166     -0.2717
     76  NE2       80.1060   17.1230   25.9970 N.am  166  GLN166     -0.0878
     77  N         77.4830   18.9450   22.0340 N.am  167  TYR167     -0.1976
     78  CA        76.3810   18.2700   21.3400 C.3   167  TYR167      0.1639
     79  C         75.5440   19.2450   20.5260 C.2   167  TYR167      0.2290
     80  O         75.2600   20.3540   20.9880 O.2   167  TYR167     -0.2864
     81  CB        75.4470   17.5300   22.3110 C.3   167  TYR167      0.0560
     82  CG        76.1010   16.4770   23.1750 C.ar  167  TYR167     -0.0198
     83  CD1       76.3190   15.1900   22.6950 C.ar  167  TYR167     -0.0009
     84  CD2       76.4050   16.7340   24.5060 C.ar  167  TYR167     -0.0009
     85  CE1       76.9050   14.2080   23.4950 C.ar  167  TYR167      0.0417
     86  CE2       76.9830   15.7600   25.3190 C.ar  167  TYR167      0.0417
     87  CZ        77.2340   14.4980   24.8090 C.ar  167  TYR167      0.1957
     88  OH        77.7960   13.5350   25.6150 O.3   167  TYR167     -0.2866
     89  N         76.4920   24.8210   30.2640 N.3   185  LEU185     -0.1245
     90  CA        75.5140   24.0760   29.4900 C.3   185  LEU185      0.1561
     91  C         74.7540   25.0860   28.6400 C.2   185  LEU185      0.2260
     92  O         74.7730   26.2840   28.9460 O.2   185  LEU185     -0.2867
     93  CB        74.5340   23.3340   30.4180 C.3   185  LEU185      0.0270
     94  CG        75.0560   22.1070   31.1480 C.3   185  LEU185      0.0019
     95  CD1       74.1790   21.7800   32.3340 C.3   185  LEU185      0.0001
     96  CD2       75.1460   20.9130   30.2260 C.3   185  LEU185      0.0001
@<TRIPOS>BOND
     1    71    70    2
     2    79    80    2
     3    79    78    1
     4    58    57    1
     5    78    77    1
     6    78    81    1
     7    70    77   am
     8    70    69    1
     9    59    57    1
    10    57    56    2
    11    69    72    1
    12    69    68    1
    13    81    82    1
    14    56    55    1
    15    83    82   ar
    16    83    85   ar
    17    72    73    1
    18    82    84   ar
    19    55    54    1
    20    85    87   ar
    21    73    74    1
    22    54    53    1
    23    63    62    2
    24    33    31    1
    25    84    86   ar
    26    87    86   ar
    27    87    88    1
    28    53    50    1
    29    74    75    2
    30    74    76   am
    31    62    61    1
    32    31    32    1
    33    31    30    1
    34    50    51    1
    35    50    49    1
    36    60    51   am
    37    60    61    1
    38    51    52    2
    39    61    64    1
    40    30    27    1
    41    49    43   am
    42    64    65    1
    43    41    42    1
    44    16    15    1
    45    16    17    1
    46    43    42    1
    47    43    44    2
    48    42    45    1
    49    15    12    1
    50    27    28    1
    51    27    26    1
    52    17    11    1
    53    65    67   ar
    54    65    66   ar
    55    29    28    2
    56    91    92    2
    57    91    90    1
    58    28    34   am
    59    26    20   am
    60    14    13    2
    61    90    89    1
    62    90    93    1
    63    45    46    1
    64    45    47    1
    65    12    11    1
    66    12    13    1
    67    34    35    1
    68    11     3   am
    69    40    38    1
    70    46    48    1
    71    13    18   am
    72    96    94    1
    73    35    38    1
    74    35    36    1
    75    20    21    2
    76    20    19    1
    77    93    94    1
    78     1     2    1
    79    18    19    1
    80    38    39    1
    81     2     3    1
    82     2     5    1
    83     3     4    2
    84    19    22    1
    85    94    95    1
    86    36    37    2
    87     8    10   ar
    88     8     6   ar
    89    10     9   ar
    90     5     6    1
    91     6     7   ar
    92    22    23    1
    93    25    23   am
    94    23    24    2
    95     9     7   ar
