@<TRIPOS>MOLECULE
tmp/4p8tB01.pdb
 173 167 0 0 0
SMALL
GASTEIGER

@<TRIPOS>ATOM
      1  N         47.8730  -25.9680   44.5730 N.3    53  TYR53      -0.1241
      2  CA        48.1850  -27.2090   45.2830 C.3    53  TYR53       0.1605
      3  C         48.0410  -27.0500   46.7910 C.2    53  TYR53       0.2264
      4  O         47.7880  -28.0210   47.5000 O.2    53  TYR53      -0.2867
      5  CB        49.6050  -27.6710   44.9540 C.3    53  TYR53       0.0534
      6  CG        49.8020  -28.1220   43.5240 C.ar   53  TYR53      -0.0201
      7  CD1       49.7340  -29.4710   43.1870 C.ar   53  TYR53      -0.0009
      8  CD2       50.0600  -27.1960   42.5030 C.ar   53  TYR53      -0.0009
      9  CE1       49.9170  -29.8890   41.8770 C.ar   53  TYR53       0.0417
     10  CE2       50.2460  -27.6010   41.1900 C.ar   53  TYR53       0.0417
     11  CZ        50.1750  -28.9480   40.8820 C.ar   53  TYR53       0.1957
     12  OH        50.3550  -29.3650   39.5820 O.3    53  TYR53      -0.2866
     13  N         49.4320  -19.6880   32.3520 N.3   109  PRO109     -0.2102
     14  CA        50.1530  -20.6840   33.1340 C.3   109  PRO109      0.1504
     15  C         50.1620  -22.0590   32.4370 C.2   109  PRO109      0.2576
     16  O         49.6530  -22.1930   31.3200 O.2   109  PRO109     -0.2718
     17  CB        49.3460  -20.7400   34.4300 C.3   109  PRO109      0.0282
     18  CG        47.9560  -20.3870   34.0260 C.3   109  PRO109      0.0208
     19  CD        48.0060  -19.6400   32.7180 C.3   109  PRO109      0.0893
     20  N         50.7150  -23.0700   33.1010 N.am  110  GLY110     -0.1957
     21  CA        50.8170  -24.4160   32.5200 C.3   110  GLY110      0.1869
     22  C         49.5070  -25.1690   32.3730 C.2   110  GLY110      0.2309
     23  O         49.4800  -26.2900   31.8590 O.2   110  GLY110     -0.2863
     24  N         52.4860  -16.4440   36.7560 N.3   125  HIS125     -0.1226
     25  CA        53.5230  -16.2150   35.7680 C.3   125  HIS125      0.1752
     26  C         53.4520  -17.2990   34.7280 C.2   125  HIS125      0.2597
     27  O         52.7840  -18.3120   34.9330 O.2   125  HIS125     -0.2718
     28  CB        54.8730  -16.2410   36.4500 C.3   125  HIS125      0.0759
     29  CG        55.1430  -17.5330   37.1810 C.ar  125  HIS125      0.0818
     30  ND1       54.8640  -17.6950   38.4800 N.ar  125  HIS125     -0.2268
     31  CD2       55.6630  -18.7440   36.7360 C.ar  125  HIS125      0.1154
     32  CE1       55.1950  -18.9390   38.8560 C.ar  125  HIS125      0.1986
     33  NE2       55.6800  -19.5800   37.7870 N.ar  125  HIS125     -0.2212
     34  N         54.1380  -17.1050   33.6050 N.am  126  GLY126     -0.1942
     35  CA        54.1490  -18.0930   32.5400 C.3   126  GLY126      0.2014
     36  C         55.4140  -18.1090   31.7020 C.2   126  GLY126      0.2638
     37  O         56.4060  -17.4360   32.0090 O.2   126  GLY126     -0.2714
     38  N         55.3550  -18.8780   30.6230 N.am  127  LYS127     -0.1977
     39  CA        56.4780  -19.0940   29.7250 C.3   127  LYS127      0.1596
     40  C         57.0680  -17.7690   29.1800 C.2   127  LYS127      0.2287
     41  O         58.2070  -17.7240   28.7290 O.2   127  LYS127     -0.2864
     42  CB        56.0050  -20.0170   28.6030 C.3   127  LYS127      0.0298
     43  CG        57.0890  -20.7830   27.8960 C.3   127  LYS127      0.0038
     44  CD        56.5000  -21.7590   26.9010 C.3   127  LYS127      0.0206
     45  CE        57.5860  -22.2980   25.9820 C.3   127  LYS127      0.1093
     46  NZ        57.0360  -23.3140   25.0360 N.3   127  LYS127     -0.1314
     47  N         60.9050  -21.7220   27.9480 N.3   221  SER221     -0.1217
     48  CA        60.9270  -22.6580   29.0770 C.3   221  SER221      0.1889
     49  C         61.6390  -23.9450   28.6760 C.2   221  SER221      0.2288
     50  O         61.8140  -24.2320   27.4860 O.2   221  SER221     -0.2866
     51  CB        59.5180  -22.9660   29.5940 C.3   221  SER221      0.2089
     52  OG        58.7680  -23.6310   28.6090 O.3   221  SER221     -0.2183
     53  N         62.6220  -28.2830   29.8870 N.3   223  TRP223     -0.1241
     54  CA        62.6610  -29.4510   30.7470 C.3   223  TRP223      0.1605
     55  C         64.1060  -29.7190   31.0540 C.2   223  TRP223      0.2264
     56  O         64.9560  -29.5840   30.1750 O.2   223  TRP223     -0.2867
     57  CB        62.0350  -30.6460   30.0440 C.3   223  TRP223      0.0550
     58  CG        62.1850  -31.9390   30.8140 C.ar  223  TRP223      0.0003
     59  CD1       61.2770  -32.5100   31.7100 C.ar  223  TRP223      0.0946
     60  CD2       63.3400  -32.8500   30.8060 C.ar  223  TRP223      0.0152
     61  NE1       61.7740  -33.6800   32.2340 N.ar  223  TRP223     -0.2442
     62  CE2       63.0060  -33.9450   31.7320 C.ar  223  TRP223      0.0810
     63  CE3       64.5700  -32.8710   30.1470 C.ar  223  TRP223      0.0012
     64  CZ2       63.8810  -35.0070   31.9630 C.ar  223  TRP223      0.0191
     65  CZ3       65.4410  -33.9400   30.3890 C.ar  223  TRP223      0.0001
     66  CH2       65.1050  -34.9820   31.2750 C.ar  223  TRP223      0.0015
     67  N         52.6430  -25.0970   24.4210 N.3   287  TYR287     -0.1227
     68  CA        52.4650  -25.2250   25.8780 C.3   287  TYR287      0.1736
     69  C         52.0720  -26.6900   26.1970 C.2   287  TYR287      0.2595
     70  O         50.9180  -26.9670   26.5790 O.2   287  TYR287     -0.2718
     71  CB        51.3420  -24.2900   26.3530 C.3   287  TYR287      0.0548
     72  CG        51.7550  -22.9980   27.0290 C.ar  287  TYR287     -0.0200
     73  CD1       51.9790  -22.9550   28.4060 C.ar  287  TYR287     -0.0009
     74  CD2       51.8760  -21.8110   26.3050 C.ar  287  TYR287     -0.0009
     75  CE1       52.3380  -21.7750   29.0400 C.ar  287  TYR287      0.0417
     76  CE2       52.2330  -20.6220   26.9290 C.ar  287  TYR287      0.0417
     77  CZ        52.4640  -20.6090   28.2980 C.ar  287  TYR287      0.1957
     78  OH        52.8220  -19.4370   28.9370 O.3   287  TYR287     -0.2866
     79  N         53.0370  -27.6040   26.0350 N.am  288  HIS288     -0.1975
     80  CA        52.8170  -29.0710   26.0420 C.3   288  HIS288      0.1656
     81  C         51.8140  -29.5710   27.0480 C.2   288  HIS288      0.2291
     82  O         51.0080  -30.4530   26.7460 O.2   288  HIS288     -0.2864
     83  CB        54.1430  -29.8160   26.2200 C.3   288  HIS288      0.0771
     84  CG        55.1950  -29.4470   25.1950 C.ar  288  HIS288      0.0820
     85  ND1       56.1410  -28.5170   25.4300 N.ar  288  HIS288     -0.2267
     86  CD2       55.4230  -29.9190   23.9010 C.ar  288  HIS288      0.1154
     87  CE1       56.9350  -28.3960   24.3450 C.ar  288  HIS288      0.1986
     88  NE2       56.4950  -29.2550   23.4100 N.ar  288  HIS288     -0.2212
     89  N         54.4870  -31.4360   44.4810 N.3   292  GLN292     -0.1245
     90  CA        55.0750  -30.3870   43.6530 C.3   292  GLN292      0.1566
     91  C         55.8580  -29.4400   44.5290 C.2   292  GLN292      0.2260
     92  O         55.4390  -29.1160   45.6330 O.2   292  GLN292     -0.2867
     93  CB        54.0040  -29.6040   42.8910 C.3   292  GLN292      0.0367
     94  CG        53.8720  -29.9650   41.4140 C.3   292  GLN292      0.0905
     95  CD        54.9690  -29.3790   40.5210 C.2   292  GLN292      0.2608
     96  OE1       55.5050  -28.2920   40.7740 O.2   292  GLN292     -0.2717
     97  NE2       55.2920  -30.1010   39.4500 N.am  292  GLN292     -0.0878
     98  N         58.1510  -25.8070   44.0580 N.3   294  GLN294     -0.1245
     99  CA        58.6410  -24.7460   43.1860 C.3   294  GLN294      0.1566
    100  C         59.3930  -23.6840   43.9740 C.2   294  GLN294      0.2260
    101  O         58.9340  -23.2350   45.0320 O.2   294  GLN294     -0.2867
    102  CB        57.4850  -24.1180   42.4010 C.3   294  GLN294      0.0367
    103  CG        57.9170  -23.1190   41.3440 C.3   294  GLN294      0.0905
    104  CD        56.7670  -22.6200   40.4850 C.2   294  GLN294      0.2608
    105  OE1       55.6220  -23.0770   40.6110 O.2   294  GLN294     -0.2717
    106  NE2       57.0720  -21.6820   39.5880 N.am  294  GLN294     -0.0878
    107  N         58.9930  -34.8230   35.9320 N.3   321  LEU321     -0.1231
    108  CA        58.2850  -33.6590   35.4240 C.3   321  LEU321      0.1693
    109  C         58.9240  -32.3790   35.9410 C.2   321  LEU321      0.2592
    110  O         58.5720  -31.8850   37.0090 O.2   321  LEU321     -0.2718
    111  CB        56.8070  -33.7170   35.8140 C.3   321  LEU321      0.0284
    112  CG        56.0610  -35.0360   35.5720 C.3   321  LEU321      0.0019
    113  CD1       54.6670  -34.9580   36.1750 C.3   321  LEU321      0.0001
    114  CD2       55.9970  -35.3990   34.0940 C.3   321  LEU321      0.0001
    115  N         59.8580  -31.8450   35.1640 N.am  322  ASN322     -0.1960
    116  CA        60.6570  -30.7030   35.5880 C.3   322  ASN322      0.1819
    117  C         60.4870  -29.4700   34.7000 C.2   322  ASN322      0.2621
    118  O         60.3190  -29.5860   33.4800 O.2   322  ASN322     -0.2715
    119  CB        62.1330  -31.0920   35.6480 C.3   322  ASN322      0.1195
    120  CG        62.3810  -32.3490   36.4670 C.2   322  ASN322      0.2630
    121  OD1       61.8880  -32.4950   37.5870 O.2   322  ASN322     -0.2716
    122  ND2       63.1640  -33.2610   35.9090 N.am  322  ASN322     -0.0877
    123  N         60.5220  -28.2900   35.3190 N.am  323  VAL323     -0.1977
    124  CA        60.4340  -27.0290   34.5850 C.3   323  VAL323      0.1596
    125  C         61.5850  -26.1130   34.9780 C.2   323  VAL323      0.2287
    126  O         61.8650  -25.9180   36.1580 O.2   323  VAL323     -0.2864
    127  CB        59.0760  -26.3140   34.7960 C.3   323  VAL323      0.0276
    128  CG1       58.9180  -25.1700   33.8140 C.3   323  VAL323      0.0022
    129  CG2       57.9170  -27.2810   34.6100 C.3   323  VAL323      0.0022
    130  N         63.1250  -22.2400   33.9920 N.3   325  LYS325     -0.1245
    131  CA        62.8520  -20.9640   33.3490 C.3   325  LYS325      0.1561
    132  C         63.5270  -19.8190   34.1000 C.2   325  LYS325      0.2260
    133  O         63.5230  -19.8010   35.3330 O.2   325  LYS325     -0.2867
    134  CB        61.3380  -20.7200   33.2330 C.3   325  LYS325      0.0271
    135  CG        60.9990  -19.2500   33.1200 C.3   325  LYS325      0.0035
    136  CD        59.7730  -18.9730   32.2900 C.3   325  LYS325      0.0206
    137  CE        59.8970  -17.5810   31.6880 C.3   325  LYS325      0.1093
    138  NZ        60.7070  -17.6020   30.4380 N.3   325  LYS325     -0.1314
    139  N         63.9890  -20.1470   38.0500 N.3   343  ASN343     -0.1240
    140  CA        62.7750  -20.7950   38.5260 C.3   343  ASN343      0.1653
    141  C         62.8040  -22.2770   38.1920 C.2   343  ASN343      0.2266
    142  O         63.0550  -22.6540   37.0510 O.2   343  ASN343     -0.2867
    143  CB        61.5260  -20.1090   37.9440 C.3   343  ASN343      0.1155
    144  CG        60.2300  -20.8110   38.3230 C.2   343  ASN343      0.2627
    145  OD1       59.8790  -20.9280   39.5020 O.2   343  ASN343     -0.2716
    146  ND2       59.5000  -21.2710   37.3130 N.am  343  ASN343     -0.0877
    147  N         60.5980  -26.0290   38.8140 N.3   345  CYS345     -0.1235
    148  CA        59.5670  -26.9350   39.3220 C.3   345  CYS345      0.1677
    149  C         60.0400  -28.3810   39.3100 C.2   345  CYS345      0.2270
    150  O         60.6320  -28.8370   38.3300 O.2   345  CYS345     -0.2867
    151  CB        58.2900  -26.8340   38.5050 C.3   345  CYS345      0.0956
    152  SG        57.4920  -25.2340   38.6410 S.3   345  CYS345     -0.0801
    153  N         56.6310  -20.5730   46.3750 N.3   373  TYR373     -0.1241
    154  CA        55.4090  -20.0410   45.7870 C.3   373  TYR373      0.1605
    155  C         54.2270  -20.5710   46.5990 C.2   373  TYR373      0.2264
    156  O         54.0950  -21.7840   46.7900 O.2   373  TYR373     -0.2867
    157  CB        55.3400  -20.5250   44.3290 C.3   373  TYR373      0.0534
    158  CG        54.2700  -19.9370   43.4190 C.ar  373  TYR373     -0.0201
    159  CD1       53.6560  -18.7080   43.7000 C.ar  373  TYR373     -0.0009
    160  CD2       53.9110  -20.5950   42.2400 C.ar  373  TYR373     -0.0009
    161  CE1       52.7030  -18.1720   42.8500 C.ar  373  TYR373      0.0417
    162  CE2       52.9640  -20.0660   41.3780 C.ar  373  TYR373      0.0417
    163  CZ        52.3620  -18.8580   41.6870 C.ar  373  TYR373      0.1957
    164  OH        51.4200  -18.3370   40.8380 O.3   373  TYR373     -0.2866
    165  N         51.8490  -23.3520   45.4550 N.3   376  LYS376     -0.1245
    166  CA        52.3330  -24.7320   45.5230 C.3   376  LYS376      0.1561
    167  C         52.5790  -25.1960   46.9620 C.2   376  LYS376      0.2260
    168  O         52.9550  -26.3470   47.1900 O.2   376  LYS376     -0.2867
    169  CB        53.6250  -24.8890   44.7110 C.3   376  LYS376      0.0271
    170  CG        53.5590  -24.3780   43.2800 C.3   376  LYS376      0.0035
    171  CD        52.7670  -25.3200   42.3930 C.3   376  LYS376      0.0206
    172  CE        52.8290  -24.9100   40.9350 C.3   376  LYS376      0.1093
    173  NZ        54.0870  -25.4060   40.3020 N.3   376  LYS376     -0.1314
@<TRIPOS>BOND
     1    88    86   ar
     2    88    87   ar
     3    86    84   ar
     4    87    85   ar
     5    67    68    1
     6    46    45    1
     7    84    85   ar
     8    84    83    1
     9    68    69    1
    10    68    71    1
    11    45    44    1
    12    79    80    1
    13    79    69   am
    14    80    83    1
    15    80    81    1
    16    69    70    2
    17    74    76   ar
    18    74    72   ar
    19    71    72    1
    20    82    81    2
    21    44    43    1
    22    76    77   ar
    23    72    73   ar
    24    50    49    2
    25    43    42    1
    26    47    48    1
    27    77    78    1
    28    77    75   ar
    29    73    75   ar
    30    42    39    1
    31    52    51    1
    32    49    48    1
    33    41    40    2
    34    48    51    1
    35    40    39    1
    36    39    38    1
    37    53    54    1
    38    57    54    1
    39    57    58    1
    40    63    65   ar
    41    63    60   ar
    42    56    55    2
    43    65    66   ar
    44   138   137    1
    45    38    36   am
    46    54    55    1
    47    60    58   ar
    48    60    62   ar
    49    58    59   ar
    50    66    64   ar
    51    16    15    2
    52   137   136    1
    53    36    37    2
    54    36    35    1
    55    59    61   ar
    56    62    64   ar
    57    62    61   ar
    58    23    22    2
    59   136   135    1
    60    13    19    1
    61    13    14    1
    62    22    21    1
    63    15    20   am
    64    15    14    1
    65    21    20    1
    66    35    34    1
    67    19    18    1
    68   135   134    1
    69    14    17    1
    70   134   131    1
    71   131   130    1
    72   131   132    1
    73   118   117    2
    74    34    26   am
    75   128   127    1
    76    18    17    1
    77   114   112    1
    78   132   133    2
    79   124   127    1
    80   124   125    1
    81   124   123    1
    82   129   127    1
    83   117   123   am
    84   117   116    1
    85    26    27    2
    86    26    25    1
    87   125   126    2
    88   115   116    1
    89   115   109   am
    90   108   111    1
    91   108   107    1
    92   108   109    1
    93   112   111    1
    94   112   113    1
    95   116   119    1
    96   119   120    1
    97    25    28    1
    98    25    24    1
    99   122   120   am
   100   109   110    2
   101    28    29    1
   102   120   121    2
   103    31    29   ar
   104    31    33   ar
   105   142   141    2
   106    29    30   ar
   107   146   144   am
   108    33    32   ar
   109   143   144    1
   110   143   140    1
   111   139   140    1
   112   141   140    1
   113   144   145    2
   114   150   149    2
   115    30    32   ar
   116   151   152    1
   117   151   148    1
   118   147   148    1
   119   149   148    1
   120    97    95   am
   121    12    11    1
   122   106   104   am
   123   173   172    1
   124   104   105    2
   125   104   103    1
   126    95    96    2
   127    95    94    1
   128   164   163    1
   129    11    10   ar
   130    11     9   ar
   131   172   171    1
   132    10     8   ar
   133   103   102    1
   134   162   163   ar
   135   162   160   ar
   136    94    93    1
   137   163   161   ar
   138     9     7   ar
   139   160   158   ar
   140   171   170    1
   141   102    99    1
   142     8     6   ar
   143   161   159   ar
   144    93    90    1
   145    99   100    1
   146    99    98    1
   147     7     6   ar
   148   170   169    1
   149   158   159   ar
   150   158   157    1
   151     6     5    1
   152    90    89    1
   153    90    91    1
   154   100   101    2
   155   157   154    1
   156    91    92    2
   157     1     2    1
   158   169   166    1
   159     5     2    1
   160     2     3    1
   161   165   166    1
   162   166   167    1
   163   154   153    1
   164   154   155    1
   165   155   156    2
   166     3     4    2
   167   167   168    2
