@<TRIPOS>MOLECULE
tmp/4p8tA02.pdb
 131 131 0 0 0
SMALL
GASTEIGER

@<TRIPOS>ATOM
      1  N         19.3410  -17.9450    5.0990 N.3   112  GLY112     -0.1225
      2  CA        19.5720  -19.3620    4.7940 C.3   112  GLY112      0.1811
      3  C         21.0300  -19.7580    4.5850 C.2   112  GLY112      0.2280
      4  O         21.3410  -20.9420    4.4530 O.2   112  GLY112     -0.2866
      5  N         14.2720  -17.1100    9.2020 N.3   129  LYS129     -0.1245
      6  CA        13.2460  -18.0160    9.7120 C.3   129  LYS129      0.1561
      7  C         12.3640  -17.3810   10.8120 C.2   129  LYS129      0.2260
      8  O         11.2440  -17.8210   11.0480 O.2   129  LYS129     -0.2867
      9  CB        13.9190  -19.2940   10.2070 C.3   129  LYS129      0.0271
     10  CG        13.0140  -20.4960   10.2410 C.3   129  LYS129      0.0035
     11  CD        13.7280  -21.7340   10.7430 C.3   129  LYS129      0.0206
     12  CE        12.7410  -22.8870   10.8390 C.3   129  LYS129      0.1093
     13  NZ        13.4300  -24.1990   10.8980 N.3   129  LYS129     -0.1314
     14  N          9.5790  -22.1390    9.3730 N.3   223  SER223     -0.1202
     15  CA         9.5940  -22.1950    7.9090 C.3   223  SER223      0.2020
     16  C          9.2880  -23.6150    7.4340 C.2   223  SER223      0.2619
     17  O          9.3470  -24.5610    8.2180 O.2   223  SER223     -0.2717
     18  CB        10.9390  -21.7330    7.3420 C.3   223  SER223      0.2103
     19  OG        11.9770  -22.5900    7.7520 O.3   223  SER223     -0.2182
     20  N          8.9700  -23.7670    6.1540 N.am  224  ALA224     -0.1965
     21  CA         8.6310  -25.0780    5.6040 C.3   224  ALA224      0.1728
     22  C          9.2160  -25.3320    4.2020 C.2   224  ALA224      0.2616
     23  O          9.5030  -24.3970    3.4540 O.2   224  ALA224     -0.2715
     24  CB         7.1200  -25.2380    5.5780 C.3   224  ALA224      0.0334
     25  N          9.3950  -26.6020    3.8590 N.am  225  TRP225     -0.1974
     26  CA         9.5450  -27.0000    2.4620 C.3   225  TRP225      0.1640
     27  C          8.1830  -27.3780    1.9530 C.2   225  TRP225      0.2290
     28  O          7.3930  -27.9600    2.7000 O.2   225  TRP225     -0.2864
     29  CB        10.4840  -28.1970    2.3430 C.3   225  TRP225      0.0576
     30  CG        10.4920  -28.8200    0.9640 C.ar  225  TRP225      0.0006
     31  CD1       11.3540  -28.5270   -0.0990 C.ar  225  TRP225      0.0946
     32  CD2        9.5740  -29.8470    0.4360 C.ar  225  TRP225      0.0152
     33  NE1       11.0420  -29.2790   -1.2070 N.ar  225  TRP225     -0.2442
     34  CE2        9.9880  -30.0920   -0.9550 C.ar  225  TRP225      0.0810
     35  CE3        8.4940  -30.5610    0.9550 C.ar  225  TRP225      0.0012
     36  CZ2        9.3370  -31.0220   -1.7650 C.ar  225  TRP225      0.0191
     37  CZ3        7.8460  -31.4910    0.1250 C.ar  225  TRP225      0.0001
     38  CH2        8.2630  -31.7170   -1.2000 C.ar  225  TRP225      0.0015
     39  N          6.6440  -30.0020    4.8250 N.3   239  ALA239     -0.1231
     40  CA         7.3310  -30.3820    6.0460 C.3   239  ALA239      0.1694
     41  C          7.6800  -29.0780    6.7570 C.2   239  ALA239      0.2592
     42  O          8.5360  -28.3340    6.3040 O.2   239  ALA239     -0.2718
     43  CB         8.5850  -31.1820    5.7350 C.3   239  ALA239      0.0304
     44  N          6.9930  -28.8050    7.8580 N.am  240  VAL240     -0.1966
     45  CA         7.1620  -27.5620    8.6060 C.3   240  VAL240      0.1727
     46  C          8.1030  -27.7570    9.8010 C.2   240  VAL240      0.2616
     47  O          7.9720  -28.7070   10.5770 O.2   240  VAL240     -0.2715
     48  CB         5.8030  -26.9890    9.0950 C.3   240  VAL240      0.0290
     49  CG1        5.9460  -25.5370    9.5310 C.3   240  VAL240      0.0023
     50  CG2        4.7350  -27.0960    8.0060 C.3   240  VAL240      0.0023
     51  N          9.0640  -26.8490    9.9210 N.am  241  SER241     -0.1950
     52  CA        10.0080  -26.8380   11.0240 C.3   241  SER241      0.1924
     53  C          9.8140  -25.5460   11.8210 C.2   241  SER241      0.2314
     54  O          9.9910  -24.4500   11.2920 O.2   241  SER241     -0.2863
     55  CB        11.4240  -26.9230   10.4730 C.3   241  SER241      0.2116
     56  OG        12.3700  -26.6070   11.4690 O.3   241  SER241     -0.2180
     57  N          7.2940  -34.3840   15.0990 N.3   298  TYR298     -0.1241
     58  CA         7.9860  -34.5160   16.3900 C.3   298  TYR298      0.1605
     59  C          7.7090  -33.3020   17.2850 C.2   298  TYR298      0.2264
     60  O          7.1980  -32.2800   16.8230 O.2   298  TYR298     -0.2867
     61  CB         9.5010  -34.7160   16.1980 C.3   298  TYR298      0.0534
     62  CG        10.1750  -33.6850   15.2930 C.ar  298  TYR298     -0.0201
     63  CD1       10.5840  -32.4350   15.7890 C.ar  298  TYR298     -0.0009
     64  CD2       10.4200  -33.9680   13.9460 C.ar  298  TYR298     -0.0009
     65  CE1       11.2030  -31.5000   14.9680 C.ar  298  TYR298      0.0417
     66  CE2       11.0340  -33.0370   13.1210 C.ar  298  TYR298      0.0417
     67  CZ        11.4210  -31.8080   13.6360 C.ar  298  TYR298      0.1957
     68  OH        12.0270  -30.8930   12.8080 O.3   298  TYR298     -0.2866
     69  N         18.5240  -27.3900   12.6710 N.3   308  PHE308     -0.1227
     70  CA        17.2870  -26.6310   12.6720 C.3   308  PHE308      0.1736
     71  C         17.2340  -25.5910   11.5510 C.2   308  PHE308      0.2595
     72  O         16.1770  -25.3660   10.9620 O.2   308  PHE308     -0.2718
     73  CB        17.1020  -25.9670   14.0350 C.3   308  PHE308      0.0547
     74  CG        15.8720  -25.1100   14.1400 C.ar  308  PHE308     -0.0202
     75  CD1       14.6580  -25.6650   14.5120 C.ar  308  PHE308     -0.0042
     76  CD2       15.9350  -23.7430   13.8840 C.ar  308  PHE308     -0.0042
     77  CE1       13.5260  -24.8860   14.6250 C.ar  308  PHE308     -0.0003
     78  CE2       14.8070  -22.9580   13.9890 C.ar  308  PHE308     -0.0003
     79  CZ        13.6010  -23.5290   14.3650 C.ar  308  PHE308     -0.0000
     80  N         18.3740  -24.9680   11.2570 N.am  309  TYR309     -0.1962
     81  CA        18.4110  -23.7960   10.3810 C.3   309  TYR309      0.1771
     82  C         18.9990  -24.0480    8.9970 C.2   309  TYR309      0.2620
     83  O         18.6670  -23.3420    8.0430 O.2   309  TYR309     -0.2715
     84  CB        19.1770  -22.6580   11.0550 C.3   309  TYR309      0.0574
     85  CG        18.5560  -21.3050   10.8400 C.ar  309  TYR309     -0.0198
     86  CD1       18.6560  -20.6500    9.6090 C.ar  309  TYR309     -0.0009
     87  CD2       17.8620  -20.6770   11.8680 C.ar  309  TYR309     -0.0009
     88  CE1       18.0700  -19.4110    9.4090 C.ar  309  TYR309      0.0417
     89  CE2       17.2820  -19.4330   11.6820 C.ar  309  TYR309      0.0417
     90  CZ        17.3880  -18.8060   10.4500 C.ar  309  TYR309      0.1957
     91  OH        16.8100  -17.5730   10.2710 O.3   309  TYR309     -0.2866
     92  N         19.8800  -25.0380    8.8840 N.am  310  HIS310     -0.1960
     93  CA        20.5820  -25.2890    7.6160 C.3   310  HIS310      0.1772
     94  C         20.3760  -26.7140    7.1200 C.2   310  HIS310      0.2462
     95  O         21.3500  -27.4250    6.8430 O.2   310  HIS310     -0.2730
     96  CB        22.0760  -24.9170    7.7380 C.3   310  HIS310      0.0785
     97  CG        22.3310  -23.4460    8.0790 C.ar  310  HIS310      0.0821
     98  ND1       22.4470  -22.4860    7.1370 N.ar  310  HIS310     -0.2267
     99  CD2       22.5000  -22.8010    9.3110 C.ar  310  HIS310      0.1154
    100  CE1       22.6690  -21.2920    7.7310 C.ar  310  HIS310      0.1986
    101  NE2       22.7000  -21.4850    9.0580 N.ar  310  HIS310     -0.2212
    102  N         19.0980  -27.1440    6.9680 N.am  311  PRO311     -0.2716
    103  CA        18.8050  -28.5630    6.7400 C.3   311  PRO311      0.1536
    104  C         19.1450  -29.0420    5.3240 C.2   311  PRO311      0.2598
    105  O         18.9180  -30.2100    4.9950 O.2   311  PRO311     -0.2715
    106  CB        17.2860  -28.6620    7.0010 C.3   311  PRO311      0.0310
    107  CG        16.8240  -27.2790    7.3510 C.3   311  PRO311      0.0237
    108  CD        17.8720  -26.3390    6.8420 C.3   311  PRO311      0.0939
    109  N         19.6810  -28.1400    4.5020 N.am  312  LEU312     -0.1978
    110  CA        20.1690  -28.4900    3.1720 C.3   312  LEU312      0.1596
    111  C         21.6240  -28.9640    3.2380 C.2   312  LEU312      0.2287
    112  O         22.1150  -29.5940    2.2950 O.2   312  LEU312     -0.2864
    113  CB        20.0140  -27.3080    2.1940 C.3   312  LEU312      0.0297
    114  CG        21.0430  -26.1610    2.1190 C.3   312  LEU312      0.0022
    115  CD1       20.8360  -25.3510    0.8400 C.3   312  LEU312      0.0001
    116  CD2       21.0190  -25.2600    3.3570 C.3   312  LEU312      0.0001
    117  N         12.2630  -25.7110   -2.3400 N.3   359  ASN359     -0.1225
    118  CA        11.2010  -24.7640   -2.0930 C.3   359  ASN359      0.1785
    119  C         11.1660  -24.2850   -0.6450 C.2   359  ASN359      0.2597
    120  O         11.3050  -25.0780    0.2890 O.2   359  ASN359     -0.2718
    121  CB         9.8680  -25.3900   -2.4800 C.3   359  ASN359      0.1169
    122  CG         9.8250  -25.8280   -3.9400 C.2   359  ASN359      0.2627
    123  OD1       10.1880  -25.0740   -4.8510 O.2   359  ASN359     -0.2716
    124  ND2        9.3630  -27.0530   -4.1690 N.am  359  ASN359     -0.0877
    125  N         10.9960  -22.9790   -0.4660 N.am  360  VAL360     -0.1980
    126  CA        10.8210  -22.4060    0.8620 C.3   360  VAL360      0.1595
    127  C          9.4230  -21.8110    0.9720 C.2   360  VAL360      0.2287
    128  O          8.9370  -21.1440    0.0560 O.2   360  VAL360     -0.2864
    129  CB        11.8650  -21.3130    1.1560 C.3   360  VAL360      0.0276
    130  CG1       11.6010  -20.6830    2.5120 C.3   360  VAL360      0.0022
    131  CG2       13.2780  -21.8760    1.1060 C.3   360  VAL360      0.0022
@<TRIPOS>BOND
     1   123   122    2
     2   124   122   am
     3   122   121    1
     4   121   118    1
     5   117   118    1
     6   118   119    1
     7    36    38   ar
     8    36    34   ar
     9    33    34   ar
    10    33    31   ar
    11    38    37   ar
    12    34    32   ar
    13   119   125   am
    14   119   120    2
    15   125   126    1
    16    31    30   ar
    17   128   127    2
    18    37    35   ar
    19    32    35   ar
    20    32    30   ar
    21   115   114    1
    22   126   127    1
    23   126   129    1
    24    30    29    1
    25   131   129    1
    26   129   130    1
    27    27    26    1
    28    27    28    2
    29   114   113    1
    30   114   116    1
    31   113   110    1
    32   112   111    2
    33    29    26    1
    34    26    25    1
    35   110   111    1
    36   110   109    1
    37    23    22    2
    38    25    22   am
    39    22    21    1
    40     4     3    2
    41   109   104   am
    42     3     2    1
    43     2     1    1
    44    39    40    1
    45   105   104    2
    46   104   103    1
    47    24    21    1
    48    21    20    1
    49    43    40    1
    50    40    41    1
    51    20    16   am
    52    42    41    2
    53   103   102    1
    54   103   106    1
    55    41    44   am
    56   108   102    1
    57   108   107    1
    58    95    94    2
    59   102    94   am
    60   106   107    1
    61    94    93    1
    62    98   100   ar
    63    98    97   ar
    64    18    19    1
    65    18    15    1
    66    16    15    1
    67    16    17    2
    68    93    96    1
    69    93    92    1
    70   100   101   ar
    71    96    97    1
    72    44    45    1
    73    15    14    1
    74    50    48    1
    75    83    82    2
    76    97    99   ar
    77    45    48    1
    78    45    46    1
    79    92    82   am
    80    82    81    1
    81   101    99   ar
    82    48    49    1
    83     5     6    1
    84    88    86   ar
    85    88    90   ar
    86    86    85   ar
    87     6     9    1
    88     6     7    1
    89    46    51   am
    90    46    47    2
    91    51    52    1
    92     9    10    1
    93    10    11    1
    94    91    90    1
    95    81    84    1
    96    81    80    1
    97    90    89   ar
    98    55    52    1
    99    55    56    1
   100    11    12    1
   101     7     8    2
   102    12    13    1
   103    85    84    1
   104    85    87   ar
   105    72    71    2
   106    52    53    1
   107    80    71   am
   108    54    53    2
   109    71    70    1
   110    89    87   ar
   111    69    70    1
   112    70    73    1
   113    68    67    1
   114    66    67   ar
   115    66    64   ar
   116    67    65   ar
   117    76    78   ar
   118    76    74   ar
   119    64    62   ar
   120    78    79   ar
   121    73    74    1
   122    74    75   ar
   123    79    77   ar
   124    75    77   ar
   125    65    63   ar
   126    57    58    1
   127    62    63   ar
   128    62    61    1
   129    61    58    1
   130    58    59    1
   131    60    59    2
