@<TRIPOS>MOLECULE
tmp/4p8tA01.pdb
 182 173 0 0 0
SMALL
GASTEIGER

@<TRIPOS>ATOM
      1  N         21.7140  -13.2040   -6.0230 N.3    55  TYR55      -0.1241
      2  CA        21.6710  -13.9290   -7.2840 C.3    55  TYR55       0.1605
      3  C         21.7010  -13.0010   -8.4960 C.2    55  TYR55       0.2264
      4  O         22.1430  -13.3930   -9.5830 O.2    55  TYR55      -0.2867
      5  CB        20.4310  -14.8220   -7.3420 C.3    55  TYR55       0.0534
      6  CG        20.4290  -15.9620   -6.3380 C.ar   55  TYR55      -0.0201
      7  CD1       20.6670  -17.2840   -6.7490 C.ar   55  TYR55      -0.0009
      8  CD2       20.1760  -15.7240   -4.9720 C.ar   55  TYR55      -0.0009
      9  CE1       20.6550  -18.3350   -5.8320 C.ar   55  TYR55       0.0417
     10  CE2       20.1580  -16.7690   -4.0480 C.ar   55  TYR55       0.0417
     11  CZ        20.3940  -18.0730   -4.4770 C.ar   55  TYR55       0.1957
     12  OH        20.3850  -19.1030   -3.5540 O.3    55  TYR55      -0.2866
     13  N         19.3410  -17.9450    5.0990 N.3   112  GLY112     -0.1225
     14  CA        19.5720  -19.3620    4.7940 C.3   112  GLY112      0.1811
     15  C         21.0300  -19.7580    4.5850 C.2   112  GLY112      0.2280
     16  O         21.3410  -20.9420    4.4530 O.2   112  GLY112     -0.2866
     17  N         15.9160  -11.1600    5.5960 N.3   127  HIS127     -0.1226
     18  CA        14.9720  -11.7850    6.5100 C.3   127  HIS127      0.1752
     19  C         15.4050  -13.1890    6.7800 C.2   127  HIS127      0.2597
     20  O         16.2430  -13.7430    6.0630 O.2   127  HIS127     -0.2718
     21  CB        13.5790  -11.7840    5.8990 C.3   127  HIS127      0.0759
     22  CG        13.5160  -12.4410    4.5470 C.ar  127  HIS127      0.0818
     23  ND1       13.5890  -11.7420    3.4010 N.ar  127  HIS127     -0.2268
     24  CD2       13.4110  -13.7870    4.1860 C.ar  127  HIS127      0.1154
     25  CE1       13.5130  -12.5930    2.3580 C.ar  127  HIS127      0.1986
     26  NE2       13.4030  -13.8450    2.8450 N.ar  127  HIS127     -0.2212
     27  N         14.8350  -13.7840    7.8150 N.am  128  GLY128     -0.1942
     28  CA        15.1670  -15.1530    8.1630 C.3   128  GLY128      0.2014
     29  C         13.9840  -15.9200    8.6950 C.2   128  GLY128      0.2638
     30  O         12.8370  -15.4400    8.6700 O.2   128  GLY128     -0.2714
     31  N         14.2720  -17.1100    9.2020 N.am  129  LYS129     -0.1977
     32  CA        13.2460  -18.0160    9.7120 C.3   129  LYS129      0.1596
     33  C         12.3640  -17.3810   10.8120 C.2   129  LYS129      0.2287
     34  O         11.2440  -17.8210   11.0480 O.2   129  LYS129     -0.2864
     35  CB        13.9190  -19.2940   10.2070 C.3   129  LYS129      0.0298
     36  CG        13.0140  -20.4960   10.2410 C.3   129  LYS129      0.0038
     37  CD        13.7280  -21.7340   10.7430 C.3   129  LYS129      0.0206
     38  CE        12.7410  -22.8870   10.8390 C.3   129  LYS129      0.1093
     39  NZ        13.4300  -24.1990   10.8980 N.3   129  LYS129     -0.1314
     40  N          9.5790  -22.1390    9.3730 N.3   223  SER223     -0.1217
     41  CA         9.5940  -22.1950    7.9090 C.3   223  SER223      0.1889
     42  C          9.2880  -23.6150    7.4340 C.2   223  SER223      0.2288
     43  O          9.3470  -24.5610    8.2180 O.2   223  SER223     -0.2866
     44  CB        10.9390  -21.7330    7.3420 C.3   223  SER223      0.2089
     45  OG        11.9770  -22.5900    7.7520 O.3   223  SER223     -0.2183
     46  N          9.3950  -26.6020    3.8590 N.3   225  TRP225     -0.1241
     47  CA         9.5450  -27.0000    2.4620 C.3   225  TRP225      0.1605
     48  C          8.1830  -27.3780    1.9530 C.2   225  TRP225      0.2264
     49  O          7.3930  -27.9600    2.7000 O.2   225  TRP225     -0.2867
     50  CB        10.4840  -28.1970    2.3430 C.3   225  TRP225      0.0550
     51  CG        10.4920  -28.8200    0.9640 C.ar  225  TRP225      0.0003
     52  CD1       11.3540  -28.5270   -0.0990 C.ar  225  TRP225      0.0946
     53  CD2        9.5740  -29.8470    0.4360 C.ar  225  TRP225      0.0152
     54  NE1       11.0420  -29.2790   -1.2070 N.ar  225  TRP225     -0.2442
     55  CE2        9.9880  -30.0920   -0.9550 C.ar  225  TRP225      0.0810
     56  CE3        8.4940  -30.5610    0.9550 C.ar  225  TRP225      0.0012
     57  CZ2        9.3370  -31.0220   -1.7650 C.ar  225  TRP225      0.0191
     58  CZ3        7.8460  -31.4910    0.1250 C.ar  225  TRP225      0.0001
     59  CH2        8.2630  -31.7170   -1.2000 C.ar  225  TRP225      0.0015
     60  N         18.3740  -24.9680   11.2570 N.3   309  TYR309     -0.1241
     61  CA        18.4110  -23.7960   10.3810 C.3   309  TYR309      0.1605
     62  C         18.9990  -24.0480    8.9970 C.2   309  TYR309      0.2264
     63  O         18.6670  -23.3420    8.0430 O.2   309  TYR309     -0.2867
     64  CB        19.1770  -22.6580   11.0550 C.3   309  TYR309      0.0534
     65  CG        18.5560  -21.3050   10.8400 C.ar  309  TYR309     -0.0201
     66  CD1       18.6560  -20.6500    9.6090 C.ar  309  TYR309     -0.0009
     67  CD2       17.8620  -20.6770   11.8680 C.ar  309  TYR309     -0.0009
     68  CE1       18.0700  -19.4110    9.4090 C.ar  309  TYR309      0.0417
     69  CE2       17.2820  -19.4330   11.6820 C.ar  309  TYR309      0.0417
     70  CZ        17.3880  -18.8060   10.4500 C.ar  309  TYR309      0.1957
     71  OH        16.8100  -17.5730   10.2710 O.3   309  TYR309     -0.2866
     72  N         19.0980  -27.1440    6.9680 N.3   311  PRO311     -0.2102
     73  CA        18.8050  -28.5630    6.7400 C.3   311  PRO311      0.1504
     74  C         19.1450  -29.0420    5.3240 C.2   311  PRO311      0.2575
     75  O         18.9180  -30.2100    4.9950 O.2   311  PRO311     -0.2718
     76  CB        17.2860  -28.6620    7.0010 C.3   311  PRO311      0.0282
     77  CG        16.8240  -27.2790    7.3510 C.3   311  PRO311      0.0208
     78  CD        17.8720  -26.3390    6.8420 C.3   311  PRO311      0.0893
     79  N         19.6810  -28.1400    4.5020 N.am  312  LEU312     -0.1980
     80  CA        20.1690  -28.4900    3.1720 C.3   312  LEU312      0.1596
     81  C         21.6240  -28.9640    3.2380 C.2   312  LEU312      0.2287
     82  O         22.1150  -29.5940    2.2950 O.2   312  LEU312     -0.2864
     83  CB        20.0140  -27.3080    2.1940 C.3   312  LEU312      0.0297
     84  CG        21.0430  -26.1610    2.1190 C.3   312  LEU312      0.0022
     85  CD1       20.8360  -25.3510    0.8400 C.3   312  LEU312      0.0001
     86  CD2       21.0190  -25.2600    3.3570 C.3   312  LEU312      0.0001
     87  N         21.2490  -28.7300   -6.2960 N.3   320  ARG320     -0.1245
     88  CA        21.1760  -27.2810   -6.4190 C.3   320  ARG320      0.1563
     89  C         20.8910  -26.8680   -7.8770 C.2   320  ARG320      0.2260
     90  O         20.3420  -25.7850   -8.0970 O.2   320  ARG320     -0.2867
     91  CB        22.4430  -26.5970   -5.8680 C.3   320  ARG320      0.0307
     92  CG        22.2700  -25.1130   -5.5380 C.3   320  ARG320      0.0489
     93  CD        21.5470  -24.8850   -4.2130 C.3   320  ARG320      0.2205
     94  NE        20.5480  -23.8140   -4.3010 N.pl3 320  ARG320     -0.0865
     95  CZ        19.8020  -23.3780   -3.2840 C.cat 320  ARG320      0.5346
     96  NH1       18.9170  -22.4070   -3.4820 N.pl3 320  ARG320      0.1354
     97  NH2       19.9360  -23.9090   -2.0700 N.pl3 320  ARG320      0.1354
     98  N         16.4460  -18.5630   -9.6760 N.3   329  GLN329     -0.1245
     99  CA        15.8690  -18.3440   -8.3630 C.3   329  GLN329      0.1566
    100  C         14.7510  -17.3090   -8.4310 C.2   329  GLN329      0.2260
    101  O         14.9220  -16.2400   -9.0140 O.2   329  GLN329     -0.2867
    102  CB        16.9520  -17.8950   -7.3870 C.3   329  GLN329      0.0367
    103  CG        17.4210  -19.0020   -6.4690 C.3   329  GLN329      0.0905
    104  CD        16.5780  -19.1010   -5.2150 C.2   329  GLN329      0.2608
    105  OE1       16.2700  -18.0870   -4.5750 O.2   329  GLN329     -0.2717
    106  NE2       16.2100  -20.3270   -4.8430 N.am  329  GLN329     -0.0878
    107  N         11.7130  -15.5390   -5.9100 N.3   331  GLN331     -0.1245
    108  CA        11.1140  -15.3530   -4.5990 C.3   331  GLN331      0.1566
    109  C         10.0980  -14.2130   -4.6150 C.2   331  GLN331      0.2260
    110  O         10.3540  -13.1550   -5.1980 O.2   331  GLN331     -0.2867
    111  CB        12.1990  -15.1040   -3.5460 C.3   331  GLN331      0.0367
    112  CG        11.6590  -14.8980   -2.1460 C.3   331  GLN331      0.0905
    113  CD        12.7370  -14.8140   -1.0840 C.2   331  GLN331      0.2608
    114  OE1       13.9380  -14.7870   -1.3790 O.2   331  GLN331     -0.2717
    115  NE2       12.3090  -14.7710    0.1720 N.am  331  GLN331     -0.0878
    116  N         13.5840  -27.4450   -4.7580 N.3   358  LEU358     -0.1231
    117  CA        14.0590  -26.6990   -3.6030 C.3   358  LEU358      0.1693
    118  C         13.1230  -25.5340   -3.3300 C.2   358  LEU358      0.2592
    119  O         13.1740  -24.5010   -3.9950 O.2   358  LEU358     -0.2718
    120  CB        15.4930  -26.2060   -3.8130 C.3   358  LEU358      0.0284
    121  CG        16.6470  -27.2010   -4.0030 C.3   358  LEU358      0.0019
    122  CD1       17.9490  -26.4640   -3.7260 C.3   358  LEU358      0.0001
    123  CD2       16.5580  -28.4440   -3.1230 C.3   358  LEU358      0.0001
    124  N         12.2630  -25.7110   -2.3400 N.am  359  ASN359     -0.1960
    125  CA        11.2010  -24.7640   -2.0930 C.3   359  ASN359      0.1819
    126  C         11.1660  -24.2850   -0.6450 C.2   359  ASN359      0.2621
    127  O         11.3050  -25.0780    0.2890 O.2   359  ASN359     -0.2715
    128  CB         9.8680  -25.3900   -2.4800 C.3   359  ASN359      0.1195
    129  CG         9.8250  -25.8280   -3.9400 C.2   359  ASN359      0.2630
    130  OD1       10.1880  -25.0740   -4.8510 O.2   359  ASN359     -0.2716
    131  ND2        9.3630  -27.0530   -4.1690 N.am  359  ASN359     -0.0877
    132  N         10.9960  -22.9790   -0.4660 N.am  360  VAL360     -0.1977
    133  CA        10.8210  -22.4060    0.8620 C.3   360  VAL360      0.1596
    134  C          9.4230  -21.8110    0.9720 C.2   360  VAL360      0.2287
    135  O          8.9370  -21.1440    0.0560 O.2   360  VAL360     -0.2864
    136  CB        11.8650  -21.3130    1.1560 C.3   360  VAL360      0.0276
    137  CG1       11.6010  -20.6830    2.5120 C.3   360  VAL360      0.0022
    138  CG2       13.2780  -21.8760    1.1060 C.3   360  VAL360      0.0022
    139  N          7.2030  -19.6690    3.9720 N.3   362  LYS362     -0.1245
    140  CA         7.1720  -19.0170    5.2700 C.3   362  LYS362      0.1561
    141  C          6.1240  -17.9080    5.3210 C.2   362  LYS362      0.2260
    142  O          5.9400  -17.1760    4.3440 O.2   362  LYS362     -0.2867
    143  CB         8.5550  -18.4690    5.6370 C.3   362  LYS362      0.0271
    144  CG         8.4650  -17.2990    6.5920 C.3   362  LYS362      0.0035
    145  CD         9.6380  -17.1820    7.5220 C.3   362  LYS362      0.0206
    146  CE         9.1870  -16.3790    8.7240 C.3   362  LYS362      0.1093
    147  NZ         8.4260  -17.2660    9.6370 N.3   362  LYS362     -0.1314
    148  N          5.3880  -15.9600    1.9140 N.3   380  ASN380     -0.1240
    149  CA         6.6610  -15.8760    1.2100 C.3   380  ASN380      0.1653
    150  C          7.0640  -17.2040    0.5860 C.2   380  ASN380      0.2266
    151  O          7.1540  -18.2250    1.2840 O.2   380  ASN380     -0.2867
    152  CB         7.7720  -15.3920    2.1350 C.3   380  ASN380      0.1155
    153  CG         9.1100  -15.3000    1.4260 C.2   380  ASN380      0.2627
    154  OD1        9.3530  -14.3800    0.6420 O.2   380  ASN380     -0.2716
    155  ND2        9.9970  -16.2610    1.7040 N.am  380  ASN380     -0.0877
    156  N          9.8270  -19.2660   -2.1950 N.3   382  CYS382     -0.1235
    157  CA        11.0480  -19.3080   -2.9890 C.3   382  CYS382      0.1677
    158  C         11.0720  -20.5830   -3.8250 C.2   382  CYS382      0.2270
    159  O         10.9320  -21.6840   -3.3040 O.2   382  CYS382     -0.2867
    160  CB        12.2860  -19.2010   -2.0950 C.3   382  CYS382      0.0956
    161  SG        13.8380  -18.8900   -2.9800 S.3   382  CYS382     -0.0801
    162  N         11.8970   -9.8850   -4.8070 N.3   410  TYR410     -0.1241
    163  CA        12.9780   -9.5420   -3.9020 C.3   410  TYR410      0.1605
    164  C         14.2410   -9.2640   -4.7350 C.2   410  TYR410      0.2264
    165  O         14.6870  -10.1250   -5.4940 O.2   410  TYR410     -0.2867
    166  CB        13.1660  -10.7140   -2.9250 C.3   410  TYR410      0.0534
    167  CG        14.2060  -10.5660   -1.8270 C.ar  410  TYR410     -0.0201
    168  CD1       14.6940   -9.3170   -1.4350 C.ar  410  TYR410     -0.0009
    169  CD2       14.6810  -11.6960   -1.1500 C.ar  410  TYR410     -0.0009
    170  CE1       15.6370   -9.2010   -0.4200 C.ar  410  TYR410      0.0417
    171  CE2       15.6270  -11.5850   -0.1320 C.ar  410  TYR410      0.0417
    172  CZ        16.0920  -10.3360    0.2290 C.ar  410  TYR410      0.1957
    173  OH        17.0140  -10.2270    1.2490 O.3   410  TYR410     -0.2866
    174  N         17.2330  -11.6310   -5.2120 N.3   413  LYS413     -0.1245
    175  CA        17.0570  -12.8200   -6.0440 C.3   413  LYS413      0.1561
    176  C         16.8200  -12.4770   -7.5040 C.2   413  LYS413      0.2260
    177  O         16.9620  -13.3450   -8.3690 O.2   413  LYS413     -0.2867
    178  CB        15.8950  -13.6930   -5.5500 C.3   413  LYS413      0.0271
    179  CG        15.9180  -14.0390   -4.0730 C.3   413  LYS413      0.0035
    180  CD        17.0620  -14.9630   -3.7090 C.3   413  LYS413      0.0206
    181  CE        17.1470  -15.1560   -2.2040 C.3   413  LYS413      0.1093
    182  NZ        16.1540  -16.1720   -1.7270 N.3   413  LYS413     -0.1314
@<TRIPOS>BOND
     1    98    99    1
     2     4     3    2
     3   101   100    2
     4     3     2    1
     5   100    99    1
     6   177   176    2
     7    99   102    1
     8    90    89    2
     9    89    88    1
    10   176   175    1
    11   102   103    1
    12     5     2    1
    13     5     6    1
    14     2     1    1
    15     7     6   ar
    16     7     9   ar
    17   103   104    1
    18    88    87    1
    19    88    91    1
    20     6     8   ar
    21   175   178    1
    22   175   174    1
    23   107   108    1
    24    91    92    1
    25     9    11   ar
    26   178   179    1
    27    92    93    1
    28   165   164    2
    29   104   106   am
    30   104   105    2
    31   110   109    2
    32     8    10   ar
    33   130   129    2
    34   162   163    1
    35   116   117    1
    36   164   163    1
    37   109   108    1
    38   108   111    1
    39    11    10   ar
    40    11    12    1
    41    94    93    1
    42    94    95    2
    43   131   129   am
    44   179   180    1
    45   121   120    1
    46   121   122    1
    47   121   123    1
    48   119   118    2
    49   129   128    1
    50   163   166    1
    51   158   159    2
    52   158   157    1
    53   120   117    1
    54   180   181    1
    55   117   118    1
    56   111   112    1
    57    96    95    1
    58   118   124   am
    59    95    97    1
    60   157   156    1
    61   157   160    1
    62   161   160    1
    63   166   167    1
    64   128   125    1
    65   124   125    1
    66   181   182    1
    67   112   113    1
    68   125   126    1
    69   167   168   ar
    70   167   169   ar
    71    57    59   ar
    72    57    55   ar
    73   168   170   ar
    74   114   113    2
    75    54    55   ar
    76    54    52   ar
    77    59    58   ar
    78   169   171   ar
    79   113   115   am
    80    55    53   ar
    81   126   132   am
    82   126   127    2
    83   132   133    1
    84   170   172   ar
    85   171   172   ar
    86    52    51   ar
    87   135   134    2
    88    58    56   ar
    89   172   173    1
    90    53    56   ar
    91    53    51   ar
    92   150   149    1
    93   150   151    2
    94   154   153    2
    95    85    84    1
    96   133   134    1
    97   133   136    1
    98    51    50    1
    99   138   136    1
   100   136   137    1
   101   149   148    1
   102   149   152    1
   103   153   155   am
   104   153   152    1
   105    48    47    1
   106    48    49    2
   107    84    83    1
   108    84    86    1
   109    83    80    1
   110    82    81    2
   111    50    47    1
   112    25    26   ar
   113    25    23   ar
   114    47    46    1
   115    26    24   ar
   116    80    81    1
   117    80    79    1
   118    23    22   ar
   119   139   140    1
   120    24    22   ar
   121   142   141    2
   122    16    15    2
   123    79    74   am
   124    22    21    1
   125    15    14    1
   126    14    13    1
   127    75    74    2
   128   140   141    1
   129   140   143    1
   130    74    73    1
   131    17    18    1
   132   143   144    1
   133    21    18    1
   134    20    19    2
   135    18    19    1
   136   144   145    1
   137    73    72    1
   138    73    76    1
   139    19    27   am
   140    78    72    1
   141    78    77    1
   142    76    77    1
   143    44    45    1
   144    44    41    1
   145    42    41    1
   146    42    43    2
   147   145   146    1
   148    27    28    1
   149    41    40    1
   150    63    62    2
   151    28    29    1
   152    30    29    2
   153    29    31   am
   154   146   147    1
   155    62    61    1
   156    31    32    1
   157    68    66   ar
   158    68    70   ar
   159    66    65   ar
   160    32    35    1
   161    32    33    1
   162    35    36    1
   163    36    37    1
   164    71    70    1
   165    61    64    1
   166    61    60    1
   167    70    69   ar
   168    37    38    1
   169    33    34    2
   170    38    39    1
   171    65    64    1
   172    65    67   ar
   173    69    67   ar
