@<TRIPOS>MOLECULE
tmp/4p8uA00.pdb
 131 132 0 0 0
SMALL
GASTEIGER

@<TRIPOS>ATOM
      1  N        -20.8330   39.5160   -2.2620 N.3    11  TRP11      -0.1241
      2  CA       -21.5560   40.3330   -1.3180 C.3    11  TRP11       0.1605
      3  C        -20.8170   40.5520   -0.0220 C.2    11  TRP11       0.2264
      4  O        -21.2210   41.3710    0.7570 O.2    11  TRP11      -0.2867
      5  CB       -22.9400   39.7720   -1.0490 C.3    11  TRP11       0.0550
      6  CG       -22.9450   38.4530   -0.4440 C.ar   11  TRP11       0.0003
      7  CD1      -22.8070   38.1520    0.8720 C.ar   11  TRP11       0.0946
      8  CD2      -23.1130   37.2140   -1.1310 C.ar   11  TRP11       0.0152
      9  NE1      -22.8750   36.7880    1.0530 N.ar   11  TRP11      -0.2442
     10  CE2      -23.0630   36.1930   -0.1650 C.ar   11  TRP11       0.0810
     11  CE3      -23.2930   36.8680   -2.4760 C.ar   11  TRP11       0.0012
     12  CZ2      -23.1830   34.8520   -0.4990 C.ar   11  TRP11       0.0191
     13  CZ3      -23.4200   35.5350   -2.8050 C.ar   11  TRP11       0.0001
     14  CH2      -23.3650   34.5460   -1.8240 C.ar   11  TRP11       0.0015
     15  N        -21.9290   35.1940   -7.3920 N.3    38  PHE38      -0.1241
     16  CA       -22.3990   34.3120   -8.4380 C.3    38  PHE38       0.1605
     17  C        -22.6490   35.2060   -9.6050 C.2    38  PHE38       0.2264
     18  O        -22.8230   36.4100   -9.4390 O.2    38  PHE38      -0.2867
     19  CB       -23.7420   33.6830   -8.0650 C.3    38  PHE38       0.0534
     20  CG       -23.6460   32.6100   -7.0400 C.ar   38  PHE38      -0.0203
     21  CD1      -23.1030   31.3680   -7.3630 C.ar   38  PHE38      -0.0042
     22  CD2      -24.0940   32.8300   -5.7570 C.ar   38  PHE38      -0.0042
     23  CE1      -22.9940   30.3710   -6.4110 C.ar   38  PHE38      -0.0003
     24  CE2      -23.9930   31.8340   -4.7950 C.ar   38  PHE38      -0.0003
     25  CZ       -23.4350   30.6050   -5.1230 C.ar   38  PHE38      -0.0000
     26  N        -28.2300   30.0020   -3.9220 N.3    79  TYR79      -0.1241
     27  CA       -29.4970   29.9160   -3.2300 C.3    79  TYR79       0.1605
     28  C        -30.5430   30.9230   -3.7490 C.2    79  TYR79       0.2264
     29  O        -31.6200   30.5230   -4.2040 O.2    79  TYR79      -0.2867
     30  CB       -29.2620   30.1110   -1.7440 C.3    79  TYR79       0.0534
     31  CG       -30.5330   30.1570   -0.9440 C.ar   79  TYR79      -0.0201
     32  CD1      -31.1000   28.9970   -0.4440 C.ar   79  TYR79      -0.0009
     33  CD2      -31.1700   31.3580   -0.6920 C.ar   79  TYR79      -0.0009
     34  CE1      -32.2660   29.0330    0.2880 C.ar   79  TYR79       0.0417
     35  CE2      -32.3370   31.4050    0.0350 C.ar   79  TYR79       0.0417
     36  CZ       -32.8780   30.2370    0.5180 C.ar   79  TYR79       0.1957
     37  OH       -34.0390   30.2690    1.2420 O.3    79  TYR79      -0.2866
     38  N        -29.5900   25.5340   -7.2900 N.3   120  ILE120     -0.1231
     39  CA       -30.0590   25.1890   -5.9640 C.3   120  ILE120      0.1692
     40  C        -31.5710   25.3240   -5.9160 C.2   120  ILE120      0.2592
     41  O        -32.0780   26.4290   -5.7600 O.2   120  ILE120     -0.2718
     42  CB       -29.4790   26.1400   -4.8980 C.3   120  ILE120      0.0266
     43  CG1      -28.0090   26.4600   -5.1890 C.3   120  ILE120      0.0019
     44  CG2      -29.6430   25.5530   -3.5060 C.3   120  ILE120      0.0020
     45  CD1      -27.0560   25.3190   -4.9000 C.3   120  ILE120      0.0001
     46  N        -32.3120   24.2310   -6.0670 N.am  121  TYR121     -0.1976
     47  CA       -31.8060   22.9200   -6.4910 C.3   121  TYR121      0.1639
     48  C        -32.7440   22.4510   -7.5770 C.2   121  TYR121      0.2290
     49  O        -33.9220   22.8160   -7.5410 O.2   121  TYR121     -0.2864
     50  CB       -31.8570   21.9330   -5.3420 C.3   121  TYR121      0.0560
     51  CG       -30.6980   21.9990   -4.3870 C.ar  121  TYR121     -0.0198
     52  CD1      -30.9180   22.1790   -3.0310 C.ar  121  TYR121     -0.0009
     53  CD2      -29.3830   21.8480   -4.8330 C.ar  121  TYR121     -0.0009
     54  CE1      -29.8690   22.2260   -2.1300 C.ar  121  TYR121      0.0417
     55  CE2      -28.3230   21.9050   -3.9470 C.ar  121  TYR121      0.0417
     56  CZ       -28.5700   22.0970   -2.5930 C.ar  121  TYR121      0.1957
     57  OH       -27.5450   22.1600   -1.6730 O.3   121  TYR121     -0.2866
     58  N        -22.0090   20.1110   -1.8060 N.3   185  LEU185     -0.1245
     59  CA       -22.3770   21.0560   -0.7680 C.3   185  LEU185      0.1561
     60  C        -22.7440   20.3400    0.5080 C.2   185  LEU185      0.2260
     61  O        -23.8860   20.4110    0.9920 O.2   185  LEU185     -0.2867
     62  CB       -23.5140   21.9440   -1.2250 C.3   185  LEU185      0.0270
     63  CG       -23.2380   22.5330   -2.5920 C.3   185  LEU185      0.0019
     64  CD1      -24.5460   23.0650   -3.1080 C.3   185  LEU185      0.0001
     65  CD2      -22.1590   23.6020   -2.5340 C.3   185  LEU185      0.0001
     66  N        -22.7880   20.5300    3.7080 N.3   187  PHE187     -0.1227
     67  CA       -22.9210   21.3130    4.9330 C.3   187  PHE187      0.1736
     68  C        -24.3130   21.9110    4.9160 C.2   187  PHE187      0.2595
     69  O        -25.0540   21.7170    3.9560 O.2   187  PHE187     -0.2718
     70  CB       -21.8500   22.4010    5.0020 C.3   187  PHE187      0.0547
     71  CG       -21.5050   22.9620    3.6690 C.ar  187  PHE187     -0.0202
     72  CD1      -22.4320   23.7300    2.9530 C.ar  187  PHE187     -0.0042
     73  CD2      -20.2770   22.6930    3.1050 C.ar  187  PHE187     -0.0042
     74  CE1      -22.1210   24.2290    1.7050 C.ar  187  PHE187     -0.0003
     75  CE2      -19.9520   23.1940    1.8580 C.ar  187  PHE187     -0.0003
     76  CZ       -20.8820   23.9580    1.1520 C.ar  187  PHE187     -0.0000
     77  N        -24.6650   22.6330    5.9690 N.am  188  ASP188     -0.1974
     78  CA       -26.0080   23.1460    6.1110 C.3   188  ASP188      0.1709
     79  C        -26.9580   21.9890    6.2490 C.2   188  ASP188      0.2293
     80  O        -28.0500   21.9820    5.6860 O.2   188  ASP188     -0.2864
     81  CB       -26.4000   23.9950    4.9140 C.3   188  ASP188      0.1436
     82  CG       -25.8920   25.3830    5.0180 C.2   188  ASP188      0.3671
     83  OD1      -25.6300   25.8560    6.1460 O.co2 188  ASP188     -0.2456
     84  OD2      -25.7420   26.0090    3.9620 O.co2 188  ASP188     -0.2456
     85  N        -18.1320   28.4520    8.3420 N.3   244  TYR244     -0.1241
     86  CA       -19.0730   29.1430    9.1920 C.3   244  TYR244      0.1605
     87  C        -19.7520   28.1070   10.0800 C.2   244  TYR244      0.2264
     88  O        -19.5550   26.9050    9.9250 O.2   244  TYR244     -0.2867
     89  CB       -20.0990   29.8670    8.3400 C.3   244  TYR244      0.0534
     90  CG       -20.8730   28.9300    7.4680 C.ar  244  TYR244     -0.0201
     91  CD1      -22.1030   28.4440    7.8650 C.ar  244  TYR244     -0.0009
     92  CD2      -20.3710   28.5180    6.2440 C.ar  244  TYR244     -0.0009
     93  CE1      -22.8170   27.5790    7.0670 C.ar  244  TYR244      0.0417
     94  CE2      -21.0810   27.6510    5.4400 C.ar  244  TYR244      0.0417
     95  CZ       -22.2980   27.1780    5.8640 C.ar  244  TYR244      0.1957
     96  OH       -23.0170   26.3170    5.0770 O.3   244  TYR244     -0.2866
     97  N        -23.4930   27.3430   12.7470 N.3   246  HIS246     -0.1241
     98  CA       -24.8940   27.6610   12.9410 C.3   246  HIS246      0.1621
     99  C        -25.1880   27.7820   14.3970 C.2   246  HIS246      0.2264
    100  O        -24.6750   27.0380   15.2170 O.2   246  HIS246     -0.2867
    101  CB       -25.7910   26.6420   12.2770 C.3   246  HIS246      0.0745
    102  CG       -25.9580   26.8820   10.8130 C.ar  246  HIS246      0.0817
    103  ND1      -26.2900   28.1140   10.3010 N.ar  246  HIS246     -0.2268
    104  CD2      -25.8240   26.0570    9.7520 C.ar  246  HIS246      0.1154
    105  CE1      -26.3570   28.0350    8.9840 C.ar  246  HIS246      0.1986
    106  NE2      -26.0810   26.7960    8.6260 N.ar  246  HIS246     -0.2212
    107  N        -26.1200   32.3330   12.2550 N.3   276  PHE276     -0.1241
    108  CA       -25.0390   32.1440   11.3420 C.3   276  PHE276      0.1605
    109  C        -23.8170   32.8840   11.8830 C.2   276  PHE276      0.2264
    110  O        -23.9200   34.0260   12.3480 O.2   276  PHE276     -0.2867
    111  CB       -25.4580   32.6840    9.9920 C.3   276  PHE276      0.0534
    112  CG       -24.4040   32.5870    8.9640 C.ar  276  PHE276     -0.0203
    113  CD1      -23.4210   33.5530    8.8710 C.ar  276  PHE276     -0.0042
    114  CD2      -24.3880   31.5260    8.0870 C.ar  276  PHE276     -0.0042
    115  CE1      -22.4350   33.4610    7.9170 C.ar  276  PHE276     -0.0003
    116  CE2      -23.4070   31.4260    7.1200 C.ar  276  PHE276     -0.0003
    117  CZ       -22.4270   32.3930    7.0360 C.ar  276  PHE276     -0.0000
    118  N        -16.5770   26.4690    1.3410 N.3   335  TRP335     -0.1241
    119  CA       -17.6020   27.4940    1.2570 C.3   335  TRP335      0.1605
    120  C        -17.6710   28.2500    2.5720 C.2   335  TRP335      0.2264
    121  O        -18.1060   27.6730    3.5740 O.2   335  TRP335     -0.2867
    122  CB       -18.9650   26.8880    0.9680 C.3   335  TRP335      0.0550
    123  CG       -20.0120   27.9360    0.9430 C.ar  335  TRP335      0.0003
    124  CD1      -20.7830   28.3260    1.9750 C.ar  335  TRP335      0.0946
    125  CD2      -20.3690   28.7670   -0.1610 C.ar  335  TRP335      0.0152
    126  NE1      -21.6130   29.3400    1.5910 N.ar  335  TRP335     -0.2442
    127  CE2      -21.3820   29.6310    0.2800 C.ar  335  TRP335      0.0810
    128  CE3      -19.9360   28.8590   -1.4820 C.ar  335  TRP335      0.0012
    129  CZ2      -21.9810   30.5710   -0.5490 C.ar  335  TRP335      0.0191
    130  CZ3      -20.5300   29.7970   -2.3120 C.ar  335  TRP335      0.0001
    131  CH2      -21.5410   30.6410   -1.8410 C.ar  335  TRP335      0.0015
@<TRIPOS>BOND
     1    17    18    2
     2    17    16    1
     3    16    19    1
     4    16    15    1
     5    19    20    1
     6    48    49    2
     7    48    47    1
     8    21    20   ar
     9    21    23   ar
    10    38    39    1
    11    20    22   ar
    12    47    46    1
    13    47    50    1
    14    23    25   ar
    15    46    40   am
    16    39    40    1
    17    39    42    1
    18    40    41    2
    19    22    24   ar
    20    50    51    1
    21    43    45    1
    22    43    42    1
    23    25    24   ar
    24    42    44    1
    25    53    51   ar
    26    53    55   ar
    27    51    52   ar
    28    29    28    2
    29    55    56   ar
    30    26    27    1
    31    28    27    1
    32    27    30    1
    33    64    63    1
    34    52    54   ar
    35    13    11   ar
    36    13    14   ar
    37    56    54   ar
    38    56    57    1
    39    63    65    1
    40    63    62    1
    41    11     8   ar
    42   130   131   ar
    43   130   128   ar
    44     1     2    1
    45   131   129   ar
    46    14    12   ar
    47    58    59    1
    48    30    31    1
    49   128   125   ar
    50     2     5    1
    51     2     3    1
    52    62    59    1
    53     8     6   ar
    54     8    10   ar
    55     5     6    1
    56    31    33   ar
    57    31    32   ar
    58    59    60    1
    59    33    35   ar
    60   129   127   ar
    61    12    10   ar
    62     6     7   ar
    63    32    34   ar
    64    10     9   ar
    65   125   127   ar
    66   125   123   ar
    67     3     4    2
    68    35    36   ar
    69   127   126   ar
    70    34    36   ar
    71    60    61    2
    72    36    37    1
    73     7     9   ar
    74   123   122    1
    75   123   124   ar
    76   122   119    1
    77    76    74   ar
    78    76    75   ar
    79   119   118    1
    80   119   120    1
    81   126   124   ar
    82    74    72   ar
    83    75    73   ar
    84   120   121    2
    85    72    71   ar
    86    73    71   ar
    87    71    70    1
    88    66    67    1
    89    69    68    2
    90    84    82   ar
    91    81    82    1
    92    81    78    1
    93    68    67    1
    94    68    77   am
    95    67    70    1
    96    82    83   ar
    97    96    95    1
    98    94    95   ar
    99    94    92   ar
   100    80    79    2
   101    95    93   ar
   102    77    78    1
   103    78    79    1
   104    92    90   ar
   105   117   116   ar
   106   117   115   ar
   107    93    91   ar
   108   116   114   ar
   109    90    91   ar
   110    90    89    1
   111   115   113   ar
   112   114   112   ar
   113    89    86    1
   114    85    86    1
   115   106   105   ar
   116   106   104   ar
   117   113   112   ar
   118   112   111    1
   119   105   103   ar
   120    86    87    1
   121   104   102   ar
   122    88    87    2
   123   111   108    1
   124   103   102   ar
   125   102   101    1
   126   108   109    1
   127   108   107    1
   128   109   110    2
   129   101    98    1
   130    97    98    1
   131    98    99    1
   132    99   100    2
