@<TRIPOS>MOLECULE
tmp/4p8vA00.pdb
 195 194 0 0 0
SMALL
GASTEIGER

@<TRIPOS>ATOM
      1  N        -14.2770   28.2160   -2.5010 N.3     7  TYR7       -0.1241
      2  CA       -15.2430   29.2610   -2.8060 C.3     7  TYR7        0.1605
      3  C        -14.9010   30.5380   -2.0660 C.2     7  TYR7        0.2264
      4  O        -14.4670   30.5160   -0.9040 O.2     7  TYR7       -0.2867
      5  CB       -16.6600   28.8640   -2.4160 C.3     7  TYR7        0.0534
      6  CG       -17.3470   27.8470   -3.2750 C.ar    7  TYR7       -0.0201
      7  CD1      -17.3000   26.5090   -2.9340 C.ar    7  TYR7       -0.0009
      8  CD2      -18.0980   28.2060   -4.3860 C.ar    7  TYR7       -0.0009
      9  CE1      -17.9590   25.5580   -3.6800 C.ar    7  TYR7        0.0417
     10  CE2      -18.7640   27.2560   -5.1390 C.ar    7  TYR7        0.0417
     11  CZ       -18.7110   25.9300   -4.7760 C.ar    7  TYR7        0.1957
     12  OH       -19.4010   24.9680   -5.5120 O.3     7  TYR7       -0.2866
     13  N        -20.0250   39.2120   -1.4140 N.3    11  TRP11      -0.1241
     14  CA       -20.6560   40.0490   -0.3790 C.3    11  TRP11       0.1605
     15  C        -19.7580   40.2720    0.8330 C.2    11  TRP11       0.2264
     16  O        -20.0520   41.1320    1.6980 O.2    11  TRP11      -0.2867
     17  CB       -22.0250   39.5050    0.0070 C.3    11  TRP11       0.0550
     18  CG       -22.0070   38.1170    0.5150 C.ar   11  TRP11       0.0003
     19  CD1      -21.8220   37.7320    1.8020 C.ar   11  TRP11       0.0946
     20  CD2      -22.2310   36.9170   -0.2440 C.ar   11  TRP11       0.0152
     21  NE1      -21.8630   36.3660    1.8940 N.ar   11  TRP11      -0.2442
     22  CE2      -22.1000   35.8360    0.6540 C.ar   11  TRP11       0.0810
     23  CE3      -22.4680   36.6510   -1.5990 C.ar   11  TRP11       0.0012
     24  CZ2      -22.2270   34.5020    0.2440 C.ar   11  TRP11       0.0191
     25  CZ3      -22.5850   35.3380   -2.0100 C.ar   11  TRP11       0.0001
     26  CH2      -22.4730   34.2730   -1.0930 C.ar   11  TRP11       0.0015
     27  N        -18.2580   43.7660    4.4940 N.3    15  ARG15      -0.1245
     28  CA       -18.1410   43.5580    5.9310 C.3    15  ARG15       0.1563
     29  C        -17.0370   44.4420    6.4720 C.2    15  ARG15       0.2260
     30  O        -16.1070   44.8320    5.7600 O.2    15  ARG15      -0.2867
     31  CB       -17.8380   42.0760    6.2370 C.3    15  ARG15       0.0307
     32  CG       -19.0160   41.1810    6.0000 C.3    15  ARG15       0.0489
     33  CD       -18.6560   39.7060    6.0540 C.3    15  ARG15       0.2205
     34  NE       -19.8670   38.9300    5.8520 N.pl3  15  ARG15      -0.0865
     35  CZ       -19.9020   37.6900    5.3630 C.cat  15  ARG15       0.5346
     36  NH1      -18.7970   37.0570    5.0200 N.pl3  15  ARG15       0.1354
     37  NH2      -21.0600   37.1070    5.2050 N.pl3  15  ARG15       0.1354
     38  N        -21.4620   34.9430   -6.5010 N.3    38  PHE38      -0.1241
     39  CA       -22.0430   34.1710   -7.5890 C.3    38  PHE38       0.1605
     40  C        -22.3380   35.1230   -8.7580 C.2    38  PHE38       0.2264
     41  O        -22.5570   36.3410   -8.5720 O.2    38  PHE38      -0.2867
     42  CB       -23.3740   33.5680   -7.1640 C.3    38  PHE38       0.0534
     43  CG       -23.2750   32.5410   -6.0780 C.ar   38  PHE38      -0.0203
     44  CD1      -22.8940   31.2390   -6.3880 C.ar   38  PHE38      -0.0042
     45  CD2      -23.6450   32.8240   -4.7760 C.ar   38  PHE38      -0.0042
     46  CE1      -22.8450   30.2710   -5.4040 C.ar   38  PHE38      -0.0003
     47  CE2      -23.5990   31.8630   -3.8040 C.ar   38  PHE38      -0.0003
     48  CZ       -23.2000   30.5830   -4.1090 C.ar   38  PHE38      -0.0000
     49  N        -25.7460   30.2500   -8.8770 N.3    77  GLY77      -0.1210
     50  CA       -26.6360   29.6120   -7.9440 C.3    77  GLY77       0.1956
     51  C        -26.5310   30.1340   -6.5290 C.2    77  GLY77       0.2612
     52  O        -26.4940   31.3380   -6.3010 O.2    77  GLY77      -0.2717
     53  N        -26.5140   29.2170   -5.5760 N.am   78  GLY78      -0.1942
     54  CA       -26.5170   29.5670   -4.1700 C.3    78  GLY78       0.2014
     55  C        -27.8930   29.6240   -3.5920 C.2    78  GLY78       0.2639
     56  O        -28.9240   29.5900   -4.3260 O.2    78  GLY78      -0.2714
     57  N        -27.9370   29.6760   -2.2670 N.am   79  TYR79      -0.1959
     58  CA       -29.1930   29.5810   -1.5510 C.3    79  TYR79       0.1771
     59  C        -30.1830   30.6760   -1.9390 C.2    79  TYR79       0.2619
     60  O        -31.3620   30.3880   -2.1920 O.2    79  TYR79      -0.2715
     61  CB       -28.9570   29.6470   -0.0350 C.3    79  TYR79       0.0574
     62  CG       -30.2240   29.6720    0.7620 C.ar   79  TYR79      -0.0198
     63  CD1      -30.9690   28.5190    0.9560 C.ar   79  TYR79      -0.0009
     64  CD2      -30.6830   30.8510    1.3280 C.ar   79  TYR79      -0.0009
     65  CE1      -32.1520   28.5390    1.6860 C.ar   79  TYR79       0.0417
     66  CE2      -31.8500   30.8760    2.0670 C.ar   79  TYR79       0.0417
     67  CZ       -32.5780   29.7210    2.2380 C.ar   79  TYR79       0.1957
     68  OH       -33.7350   29.7580    2.9730 O.3    79  TYR79      -0.2866
     69  N        -29.7320   31.9260   -1.9390 N.am   80  LEU80      -0.1963
     70  CA       -30.6450   33.0660   -2.2040 C.3    80  LEU80       0.1728
     71  C        -31.2220   33.0560   -3.6220 C.2    80  LEU80       0.2616
     72  O        -32.3970   33.3510   -3.8410 O.2    80  LEU80      -0.2715
     73  CB       -29.9350   34.4080   -1.9480 C.3    80  LEU80       0.0311
     74  CG       -29.6920   34.7960   -0.4920 C.3    80  LEU80       0.0022
     75  CD1      -29.0330   36.1660   -0.4390 C.3    80  LEU80       0.0001
     76  CD2      -31.0040   34.8260    0.2870 C.3    80  LEU80       0.0001
     77  N        -30.3940   32.6820   -4.5720 N.am   81  PHE81      -0.1974
     78  CA       -30.7820   32.6140   -5.9850 C.3    81  PHE81       0.1639
     79  C        -31.8540   31.5440   -6.1440 C.2    81  PHE81       0.2290
     80  O        -32.8260   31.7120   -6.8640 O.2    81  PHE81      -0.2864
     81  CB       -29.5330   32.2300   -6.7790 C.3    81  PHE81       0.0560
     82  CG       -29.6460   32.4060   -8.2680 C.ar   81  PHE81      -0.0200
     83  CD1      -29.6110   33.6650   -8.8390 C.ar   81  PHE81      -0.0042
     84  CD2      -29.7190   31.3080   -9.1030 C.ar   81  PHE81      -0.0042
     85  CE1      -29.6710   33.8270  -10.2080 C.ar   81  PHE81      -0.0003
     86  CE2      -29.7530   31.4550  -10.4620 C.ar   81  PHE81      -0.0003
     87  CZ       -29.7320   32.7200  -11.0340 C.ar   81  PHE81      -0.0000
     88  N        -24.2780   25.7250   -8.9230 N.3   118  SER118     -0.1217
     89  CA       -24.6930   25.3320   -7.5830 C.3   118  SER118      0.1889
     90  C        -26.1650   25.6500   -7.3480 C.2   118  SER118      0.2288
     91  O        -26.5320   26.6050   -6.6880 O.2   118  SER118     -0.2866
     92  CB       -23.8120   25.9710   -6.5080 C.3   118  SER118      0.2089
     93  OG       -22.5190   25.3910   -6.4750 O.3   118  SER118     -0.2183
     94  N        -29.4720   25.3560   -5.6650 N.3   120  ILE120     -0.1231
     95  CA       -29.8690   25.0740   -4.3050 C.3   120  ILE120      0.1692
     96  C        -31.3790   25.1370   -4.1150 C.2   120  ILE120      0.2592
     97  O        -31.9470   26.2280   -3.9550 O.2   120  ILE120     -0.2718
     98  CB       -29.2150   26.0640   -3.3190 C.3   120  ILE120      0.0266
     99  CG1      -27.7000   26.2090   -3.5870 C.3   120  ILE120      0.0019
    100  CG2      -29.4970   25.6410   -1.8820 C.3   120  ILE120      0.0020
    101  CD1      -26.8630   24.9230   -3.4970 C.3   120  ILE120      0.0001
    102  N        -32.0850   24.0150   -4.1340 N.am  121  TYR121     -0.1976
    103  CA       -31.6780   22.7050   -4.6590 C.3   121  TYR121      0.1639
    104  C        -32.7720   22.3500   -5.6650 C.2   121  TYR121      0.2290
    105  O        -33.8850   22.8690   -5.5430 O.2   121  TYR121     -0.2864
    106  CB       -31.6600   21.6730   -3.5420 C.3   121  TYR121      0.0560
    107  CG       -30.5210   21.8330   -2.5550 C.ar  121  TYR121     -0.0198
    108  CD1      -30.7500   22.2850   -1.2570 C.ar  121  TYR121     -0.0009
    109  CD2      -29.2180   21.5640   -2.9350 C.ar  121  TYR121     -0.0009
    110  CE1      -29.7030   22.4320   -0.3500 C.ar  121  TYR121      0.0417
    111  CE2      -28.1690   21.7200   -2.0420 C.ar  121  TYR121      0.0417
    112  CZ       -28.4190   22.1300   -0.7500 C.ar  121  TYR121      0.1957
    113  OH       -27.3590   22.3070    0.1370 O.3   121  TYR121     -0.2866
    114  N        -21.8490   19.6130   -0.8370 N.3   185  LEU185     -0.1245
    115  CA       -22.2040   20.6170    0.1830 C.3   185  LEU185      0.1561
    116  C        -22.5120   19.9500    1.5210 C.2   185  LEU185      0.2260
    117  O        -23.6250   19.9850    2.0530 O.2   185  LEU185     -0.2867
    118  CB       -23.3710   21.4730   -0.3360 C.3   185  LEU185      0.0270
    119  CG       -23.0850   22.1850   -1.6590 C.3   185  LEU185      0.0019
    120  CD1      -24.3890   22.6870   -2.2390 C.3   185  LEU185      0.0001
    121  CD2      -22.0820   23.3250   -1.5170 C.3   185  LEU185      0.0001
    122  N        -22.5060   20.1290    4.7050 N.3   187  PHE187     -0.1227
    123  CA       -22.6970   21.0560    5.8070 C.3   187  PHE187      0.1736
    124  C        -24.1840   21.4590    5.7520 C.2   187  PHE187      0.2595
    125  O        -24.9220   20.9490    4.9010 O.2   187  PHE187     -0.2718
    126  CB       -21.7020   22.2380    5.7810 C.3   187  PHE187      0.0547
    127  CG       -21.3590   22.7500    4.4010 C.ar  187  PHE187     -0.0202
    128  CD1      -22.2740   23.5100    3.6890 C.ar  187  PHE187     -0.0042
    129  CD2      -20.1290   22.5060    3.8360 C.ar  187  PHE187     -0.0042
    130  CE1      -21.9450   24.0040    2.4450 C.ar  187  PHE187     -0.0003
    131  CE2      -19.8070   22.9910    2.5760 C.ar  187  PHE187     -0.0003
    132  CZ       -20.7260   23.7410    1.8910 C.ar  187  PHE187     -0.0000
    133  N        -24.6320   22.2950    6.6860 N.am  188  ASP188     -0.1974
    134  CA       -26.0360   22.6660    6.8460 C.3   188  ASP188      0.1709
    135  C        -26.8940   21.4590    7.1390 C.2   188  ASP188      0.2293
    136  O        -28.0750   21.4040    6.8180 O.2   188  ASP188     -0.2864
    137  CB       -26.5750   23.4360    5.6250 C.3   188  ASP188      0.1436
    138  CG       -25.8850   24.7590    5.4120 C.2   188  ASP188      0.3671
    139  OD1      -25.4810   25.4080    6.4150 O.co2 188  ASP188     -0.2456
    140  OD2      -25.7680   25.1650    4.2170 O.co2 188  ASP188     -0.2456
    141  N        -17.6700   28.1230    8.7650 N.3   244  TYR244     -0.1241
    142  CA       -18.6320   28.8130    9.5950 C.3   244  TYR244      0.1605
    143  C        -19.2540   27.7700   10.4990 C.2   244  TYR244      0.2264
    144  O        -19.0560   26.5710   10.2800 O.2   244  TYR244     -0.2867
    145  CB       -19.7350   29.4590    8.7280 C.3   244  TYR244      0.0534
    146  CG       -20.5890   28.4580    7.9680 C.ar  244  TYR244     -0.0201
    147  CD1      -21.8020   28.0420    8.4800 C.ar  244  TYR244     -0.0009
    148  CD2      -20.1610   27.8880    6.7640 C.ar  244  TYR244     -0.0009
    149  CE1      -22.5900   27.1160    7.8090 C.ar  244  TYR244      0.0417
    150  CE2      -20.9370   26.9910    6.0950 C.ar  244  TYR244      0.0417
    151  CZ       -22.1260   26.5780    6.6180 C.ar  244  TYR244      0.1957
    152  OH       -22.8790   25.6350    5.9440 O.3   244  TYR244     -0.2866
    153  N        -23.0510   26.9100   12.9430 N.3   246  HIS246     -0.1241
    154  CA       -24.4470   27.2600   13.1820 C.3   246  HIS246      0.1621
    155  C        -24.6680   27.3540   14.6680 C.2   246  HIS246      0.2264
    156  O        -24.1760   26.5330   15.4680 O.2   246  HIS246     -0.2867
    157  CB       -25.4210   26.2810   12.5490 C.3   246  HIS246      0.0745
    158  CG       -25.6910   26.5430   11.0960 C.ar  246  HIS246      0.0817
    159  ND1      -26.0150   27.7900   10.6090 N.ar  246  HIS246     -0.2268
    160  CD2      -25.7230   25.7050   10.0310 C.ar  246  HIS246      0.1154
    161  CE1      -26.1910   27.7230    9.2970 C.ar  246  HIS246      0.1986
    162  NE2      -26.0200   26.4660    8.9190 N.ar  246  HIS246     -0.2212
    163  N        -25.6940   31.9290   12.2220 N.3   276  PHE276     -0.1241
    164  CA       -24.3690   31.5030   11.8330 C.3   276  PHE276      0.1605
    165  C        -23.3060   32.4600   12.3220 C.2   276  PHE276      0.2264
    166  O        -23.6050   33.5940   12.6800 O.2   276  PHE276     -0.2867
    167  CB       -24.2880   31.1620   10.3140 C.3   276  PHE276      0.0534
    168  CG       -23.9140   32.3110    9.3910 C.ar  276  PHE276     -0.0203
    169  CD1      -24.8720   32.9530    8.6370 C.ar  276  PHE276     -0.0042
    170  CD2      -22.5820   32.6720    9.2170 C.ar  276  PHE276     -0.0042
    171  CE1      -24.5140   33.9760    7.7580 C.ar  276  PHE276     -0.0003
    172  CE2      -22.2190   33.6780    8.3340 C.ar  276  PHE276     -0.0003
    173  CZ       -23.1950   34.3320    7.6120 C.ar  276  PHE276     -0.0000
    174  N        -16.2530   26.0020    1.9410 N.3   335  TRP335     -0.1241
    175  CA       -17.2390   27.0680    1.9610 C.3   335  TRP335      0.1605
    176  C        -17.1160   27.8700    3.2720 C.2   335  TRP335      0.2264
    177  O        -17.5330   27.3680    4.3390 O.2   335  TRP335     -0.2867
    178  CB       -18.6680   26.5760    1.8190 C.3   335  TRP335      0.0550
    179  CG       -19.6070   27.7700    1.7570 C.ar  335  TRP335      0.0003
    180  CD1      -20.1940   28.4270    2.8220 C.ar  335  TRP335      0.0946
    181  CD2      -19.9200   28.5460    0.5910 C.ar  335  TRP335      0.0152
    182  NE1      -20.8880   29.5370    2.3710 N.ar  335  TRP335     -0.2442
    183  CE2      -20.7530   29.6170    1.0100 C.ar  335  TRP335      0.0810
    184  CE3      -19.6260   28.4180   -0.7660 C.ar  335  TRP335      0.0012
    185  CZ2      -21.2490   30.5630    0.1250 C.ar  335  TRP335      0.0191
    186  CZ3      -20.1480   29.3750   -1.6560 C.ar  335  TRP335      0.0001
    187  CH2      -20.9260   30.4320   -1.1910 C.ar  335  TRP335      0.0015
    188  N        -14.5780   33.3270    5.0700 N.3   339  MET339     -0.1245
    189  CA       -15.0460   33.1820    6.4640 C.3   339  MET339      0.1570
    190  C        -14.0420   32.4800    7.3540 C.2   339  MET339      0.2261
    191  O        -14.2700   32.4110    8.5470 O.2   339  MET339     -0.2867
    192  CB       -16.3930   32.4790    6.5280 C.3   339  MET339      0.0387
    193  CG       -17.5070   33.2850    5.8820 C.3   339  MET339      0.0595
    194  SD       -19.1510   32.6140    6.1740 S.3   339  MET339     -0.1393
    195  CE       -19.0050   31.0400    5.3520 C.3   339  MET339      0.0692
@<TRIPOS>BOND
     1    87    86   ar
     2    87    85   ar
     3    86    84   ar
     4    85    83   ar
     5    84    82   ar
     6    88    89    1
     7    49    50    1
     8    83    82   ar
     9    40    41    2
    10    40    39    1
    11    82    81    1
    12    50    51    1
    13    39    42    1
    14    39    38    1
    15    89    90    1
    16    89    92    1
    17    90    91    2
    18    42    43    1
    19    80    79    2
    20    81    78    1
    21    51    52    2
    22    51    53   am
    23    92    93    1
    24    44    43   ar
    25    44    46   ar
    26    79    78    1
    27    43    45   ar
    28    78    77    1
    29    94    95    1
    30   104   105    2
    31   104   103    1
    32    53    54    1
    33    12    11    1
    34    46    48   ar
    35    10    11   ar
    36    10     8   ar
    37    11     9   ar
    38    45    47   ar
    39   103   102    1
    40   103   106    1
    41    77    71   am
    42     8     6   ar
    43    56    55    2
    44    95    96    1
    45    95    98    1
    46    54    55    1
    47   102    96   am
    48    96    97    2
    49    48    47   ar
    50    72    71    2
    51     9     7   ar
    52    71    70    1
    53    55    57   am
    54    99   101    1
    55    99    98    1
    56   106   107    1
    57    98   100    1
    58     6     7   ar
    59     6     5    1
    60   109   107   ar
    61   109   111   ar
    62     2     1    1
    63     2     5    1
    64     2     3    1
    65   107   108   ar
    66    57    58    1
    67   120   119    1
    68    70    73    1
    69    70    69    1
    70    60    59    2
    71     3     4    2
    72   111   112   ar
    73    25    23   ar
    74    25    26   ar
    75    73    74    1
    76    69    59   am
    77    59    58    1
    78   119   121    1
    79   119   118    1
    80   186   187   ar
    81   186   184   ar
    82    23    20   ar
    83    58    61    1
    84    13    14    1
    85   108   110   ar
    86   187   185   ar
    87    26    24   ar
    88   114   115    1
    89   184   181   ar
    90   112   110   ar
    91   112   113    1
    92    74    75    1
    93    74    76    1
    94    14    17    1
    95    14    15    1
    96   118   115    1
    97    20    18   ar
    98    20    22   ar
    99    61    62    1
   100    17    18    1
   101   185   183   ar
   102   115   116    1
   103    24    22   ar
   104    18    19   ar
   105   181   183   ar
   106   181   179   ar
   107    22    21   ar
   108    62    63   ar
   109    62    64   ar
   110    15    16    2
   111    63    65   ar
   112   183   182   ar
   113    64    66   ar
   114   116   117    2
   115    65    67   ar
   116   179   178    1
   117   179   180   ar
   118    19    21   ar
   119   178   175    1
   120   132   130   ar
   121   132   131   ar
   122   174   175    1
   123   175   176    1
   124    66    67   ar
   125    67    68    1
   126   182   180   ar
   127   130   128   ar
   128   131   129   ar
   129   176   177    2
   130   128   127   ar
   131   129   127   ar
   132   140   138   ar
   133   127   126    1
   134    27    28    1
   135   122   123    1
   136   125   124    2
   137    36    35    1
   138   188   189    1
   139    37    35    1
   140   195   194    1
   141    35    34    2
   142   138   137    1
   143   138   139   ar
   144   137   134    1
   145   124   123    1
   146   124   133   am
   147    30    29    2
   148   126   123    1
   149    34    33    1
   150   193   194    1
   151   193   192    1
   152    28    31    1
   153    28    29    1
   154   152   151    1
   155    32    33    1
   156    32    31    1
   157   150   151   ar
   158   150   148   ar
   159   189   192    1
   160   189   190    1
   161   151   149   ar
   162   133   134    1
   163   148   146   ar
   164   136   135    2
   165   134   135    1
   166   190   191    2
   167   173   171   ar
   168   173   172   ar
   169   171   169   ar
   170   149   147   ar
   171   146   147   ar
   172   146   145    1
   173   172   170   ar
   174   169   168   ar
   175   145   142    1
   176   141   142    1
   177   162   161   ar
   178   162   160   ar
   179   170   168   ar
   180   161   159   ar
   181   168   167    1
   182   142   143    1
   183   160   158   ar
   184   144   143    2
   185   167   164    1
   186   159   158   ar
   187   158   157    1
   188   164   163    1
   189   164   165    1
   190   165   166    2
   191   157   154    1
   192   153   154    1
   193   154   155    1
   194   155   156    2
