@<TRIPOS>MOLECULE
tmp/4p90A00.pdb
 172 159 0 0 0
SMALL
GASTEIGER

@<TRIPOS>ATOM
      1  N         13.9810  -35.2850   20.2210 N.3    27  ILE27      -0.1231
      2  CA        14.0300  -34.3390   19.1000 C.3    27  ILE27       0.1696
      3  C         13.7100  -32.8550   19.5240 C.2    27  ILE27       0.2631
      4  O         13.7140  -31.9910   18.6570 O.2    27  ILE27      -0.2714
      5  CB        13.1830  -34.8100   17.8650 C.3    27  ILE27       0.0266
      6  CG1       11.6760  -34.9610   18.1900 C.3    27  ILE27       0.0019
      7  CG2       13.7570  -36.0930   17.2450 C.3    27  ILE27       0.0020
      8  CD1       10.7160  -34.7710   17.0010 C.3    27  ILE27       0.0001
      9  N         13.5220  -32.5550   20.8190 N.am   28  GLY28      -0.1732
     10  CA        13.2450  -31.1850   21.2730 C.2    28  GLY28       0.1340
     11  C         13.0000  -30.9620   22.7620 C.2    28  GLY28       0.2521
     12  O         12.8020  -31.9150   23.5270 O.2    28  GLY28      -0.2816
     13  N          9.9720  -33.6900   23.5210 N.3    35  VAL35      -0.1245
     14  CA         9.4270  -34.4230   22.3650 C.3    35  VAL35       0.1561
     15  C         10.3950  -35.5160   21.8850 C.2    35  VAL35       0.2260
     16  O         11.5720  -35.2490   21.6390 O.2    35  VAL35      -0.2867
     17  CB         8.9850  -33.4960   21.1930 C.3    35  VAL35       0.0252
     18  CG1        8.2330  -34.2780   20.1130 C.3    35  VAL35       0.0019
     19  CG2        8.1550  -32.3200   21.6770 C.3    35  VAL35       0.0019
     20  N          5.2360  -39.3440   17.2240 N.3    42  ALA42      -0.1231
     21  CA         5.8750  -38.2900   17.9970 C.3    42  ALA42       0.1694
     22  C          5.2200  -38.2580   19.3730 C.2    42  ALA42       0.2592
     23  O          3.9910  -38.1450   19.4680 O.2    42  ALA42      -0.2718
     24  CB         5.7020  -36.9540   17.2980 C.3    42  ALA42       0.0304
     25  N          6.0330  -38.4030   20.4400 N.am   43  ILE43      -0.1966
     26  CA         5.5570  -38.4400   21.8300 C.3    43  ILE43       0.1727
     27  C          6.1070  -37.2730   22.6550 C.2    43  ILE43       0.2616
     28  O          7.3240  -37.1310   22.7910 O.2    43  ILE43      -0.2715
     29  CB         5.8510  -39.8230   22.5060 C.3    43  ILE43       0.0290
     30  CG1        5.3800  -41.0130   21.6100 C.3    43  ILE43       0.0022
     31  CG2        5.3020  -39.9060   23.9620 C.3    43  ILE43       0.0023
     32  CD1        5.8260  -42.4240   22.0610 C.3    43  ILE43       0.0001
     33  N          5.2050  -36.4640   23.2260 N.am   44  LYS44      -0.1977
     34  CA         5.5450  -35.3440   24.0950 C.3    44  LYS44       0.1596
     35  C          5.3630  -35.7600   25.5540 C.2    44  LYS44       0.2287
     36  O          4.2460  -36.0570   25.9780 O.2    44  LYS44      -0.2864
     37  CB         4.6900  -34.1070   23.7520 C.3    44  LYS44       0.0298
     38  CG         4.8460  -32.9160   24.7070 C.3    44  LYS44       0.0038
     39  CD         5.6140  -31.6850   24.2010 C.3    44  LYS44       0.0206
     40  CE         4.8650  -30.8140   23.2110 C.3    44  LYS44       0.1093
     41  NZ         3.7220  -30.0900   23.8330 N.3    44  LYS44      -0.1314
     42  N          5.6340  -34.7290   29.5410 N.3    46  MET46      -0.1245
     43  CA         5.5710  -33.5230   30.3660 C.3    46  MET46       0.1570
     44  C          5.3010  -33.7880   31.8670 C.2    46  MET46       0.2261
     45  O          4.5610  -34.6950   32.2480 O.2    46  MET46      -0.2867
     46  CB         4.5720  -32.5060   29.7820 C.3    46  MET46       0.0387
     47  CG         3.1930  -33.0710   29.4950 C.3    46  MET46       0.0595
     48  SD         2.0240  -31.7920   28.9810 S.3    46  MET46      -0.1393
     49  CE         2.4470  -31.5940   27.3150 C.3    46  MET46       0.0692
     50  N         -7.7250  -30.0400   26.2910 N.3    53  GLU53      -0.1245
     51  CA        -6.8710  -30.3030   25.1350 C.3    53  GLU53       0.1567
     52  C         -7.0120  -31.7070   24.5840 C.2    53  GLU53       0.2260
     53  O         -7.1170  -31.8580   23.3600 O.2    53  GLU53      -0.2867
     54  CB        -5.4040  -29.9740   25.4310 C.3    53  GLU53       0.0388
     55  CG        -4.5300  -30.0420   24.1880 C.3    53  GLU53       0.1160
     56  CD        -3.1020  -29.5460   24.3000 C.2    53  GLU53       0.3649
     57  OE1       -2.3930  -29.5210   23.2610 O.co2  53  GLU53      -0.2457
     58  OE2       -2.6980  -29.1710   25.4270 O.co2  53  GLU53      -0.2457
     59  N         -9.0060  -32.5530   21.0050 N.3    57  MET57      -0.1245
     60  CA        -8.2300  -33.2360   19.9650 C.3    57  MET57       0.1570
     61  C         -8.8420  -34.5820   19.5150 C.2    57  MET57       0.2261
     62  O         -8.8480  -34.8540   18.3150 O.2    57  MET57      -0.2867
     63  CB        -6.7750  -33.4340   20.3890 C.3    57  MET57       0.0387
     64  CG        -5.8710  -32.2450   20.3260 C.3    57  MET57       0.0595
     65  SD        -4.1780  -32.9950   20.4970 S.3    57  MET57      -0.1393
     66  CE        -4.0400  -33.2290   22.2520 C.3    57  MET57       0.0692
     67  N         -2.8730  -32.2790   13.1640 N.3    66  VAL66      -0.1245
     68  CA        -1.9670  -33.3670   13.5420 C.3    66  VAL66       0.1561
     69  C         -2.8010  -34.3650   14.3280 C.2    66  VAL66       0.2260
     70  O         -3.5120  -33.9820   15.2660 O.2    66  VAL66      -0.2867
     71  CB        -0.7230  -32.8840   14.3370 C.3    66  VAL66       0.0252
     72  CG1        0.1860  -34.0370   14.6910 C.3    66  VAL66       0.0019
     73  CG2        0.0720  -31.8880   13.5480 C.3    66  VAL66       0.0019
     74  N          1.8490  -37.6470   25.5430 N.3    77  VAL77      -0.1245
     75  CA         0.8750  -37.4640   24.4570 C.3    77  VAL77       0.1561
     76  C          1.4760  -37.9630   23.1390 C.2    77  VAL77       0.2260
     77  O          2.4920  -37.4390   22.6820 O.2    77  VAL77      -0.2867
     78  CB         0.3440  -36.0070   24.3560 C.3    77  VAL77       0.0252
     79  CG1       -0.7270  -35.8780   23.2680 C.3    77  VAL77       0.0019
     80  CG2       -0.2240  -35.5450   25.6900 C.3    77  VAL77       0.0019
     81  N          1.2640  -38.4620   19.1730 N.3    79  MET79      -0.1230
     82  CA         0.7520  -37.8390   17.9580 C.3    79  MET79       0.1702
     83  C          1.3670  -38.4520   16.7240 C.2    79  MET79       0.2595
     84  O          2.4330  -39.0580   16.8220 O.2    79  MET79      -0.2718
     85  CB         1.1230  -36.3600   17.9600 C.3    79  MET79       0.0401
     86  CG        -0.0660  -35.4730   17.8930 C.3    79  MET79       0.0596
     87  SD        -0.5830  -34.8390   19.4510 S.3    79  MET79      -0.1393
     88  CE        -1.4280  -36.1020   20.0400 C.3    79  MET79       0.0692
     89  N          0.7420  -38.2200   15.5380 N.am   80  GLU80      -0.1920
     90  CA         1.3580  -38.6330   14.2710 C.3    80  GLU80       0.1949
     91  C          2.6330  -37.8020   14.1110 C.2    80  GLU80       0.2659
     92  O          2.7040  -36.6600   14.6060 O.2    80  GLU80      -0.2711
     93  CB         0.4170  -38.4730   13.0430 C.2    80  GLU80       0.0111
     94  CG         0.0380  -37.0490   12.6370 C.2    80  GLU80       0.0838
     95  CD        -0.7440  -36.8460   11.3460 C.2    80  GLU80       0.3877
     96  OE1       -1.9040  -36.3860   11.4160 O.co2  80  GLU80      -0.2406
     97  OE2       -0.1820  -37.1000   10.2580 O.co2  80  GLU80      -0.2406
     98  N          3.6520  -38.3860   13.4740 N.am   81  TYR81      -0.1957
     99  CA         4.9080  -37.6810   13.2850 C.3    81  TYR81       0.1771
    100  C          4.9650  -37.0190   11.9350 C.2    81  TYR81       0.2619
    101  O          4.6750  -37.6430   10.9220 O.2    81  TYR81      -0.2715
    102  CB         6.0910  -38.6160   13.5590 C.3    81  TYR81       0.0574
    103  CG         7.4660  -38.0380   13.3100 C.ar   81  TYR81      -0.0198
    104  CD1        7.9600  -36.9990   14.0910 C.ar   81  TYR81      -0.0009
    105  CD2        8.3140  -38.5980   12.3640 C.ar   81  TYR81      -0.0009
    106  CE1        9.2450  -36.4960   13.8960 C.ar   81  TYR81       0.0417
    107  CE2        9.6040  -38.1070   12.1680 C.ar   81  TYR81       0.0417
    108  CZ        10.0620  -37.0480   12.9300 C.ar   81  TYR81       0.1957
    109  OH        11.3300  -36.5490   12.7240 O.3    81  TYR81      -0.2866
    110  N          5.2780  -35.7260   11.9480 N.am   82  LEU82      -0.1963
    111  CA         5.4430  -34.9190   10.7570 C.3    82  LEU82       0.1728
    112  C          6.9110  -34.5560   10.6950 C.2    82  LEU82       0.2616
    113  O          7.3840  -33.6640   11.3970 O.2    82  LEU82      -0.2715
    114  CB         4.4810  -33.7090   10.7270 C.3    82  LEU82       0.0311
    115  CG         3.0020  -34.0580   10.4340 C.3    82  LEU82       0.0022
    116  CD1        2.1270  -32.8850   10.4920 C.3    82  LEU82       0.0001
    117  CD2        2.7900  -34.8340    9.1390 C.3    82  LEU82       0.0001
    118  N          7.6370  -35.3400    9.9110 N.am   83  ALA83      -0.1977
    119  CA         9.0860  -35.3040    9.7730 C.3    83  ALA83       0.1597
    120  C          9.7030  -34.0160    9.1850 C.2    83  ALA83       0.2287
    121  O         10.9090  -33.7780    9.3410 O.2    83  ALA83      -0.2864
    122  CB         9.5480  -36.5110    8.9740 C.3    83  ALA83       0.0319
    123  N          9.2460  -31.0240   10.1070 N.3    85  GLY85      -0.1210
    124  CA         9.3930  -30.0150   11.1480 C.3    85  GLY85       0.1956
    125  C          8.3350  -28.9480   11.1190 C.2    85  GLY85       0.2612
    126  O          7.2700  -29.1570   10.5360 O.2    85  GLY85      -0.2717
    127  N          8.6380  -27.7870   11.7180 N.am   86  SER86      -0.1952
    128  CA         7.6880  -26.6830   11.8080 C.3    86  SER86       0.1924
    129  C          7.8040  -25.6630   10.6800 C.2    86  SER86       0.2314
    130  O          8.8630  -25.5270   10.0610 O.2    86  SER86      -0.2863
    131  CB         7.8100  -25.9800   13.1600 C.3    86  SER86       0.2116
    132  OG         9.0760  -25.3500   13.2530 O.3    86  SER86      -0.2180
    133  N         10.7250  -22.9070   11.0980 N.3    89  ASP89      -0.1239
    134  CA        12.0230  -23.2200   10.4960 C.3    89  ASP89       0.1674
    135  C         12.0660  -22.7850    9.0440 C.2    89  ASP89       0.2266
    136  O         13.0570  -22.2140    8.6080 O.2    89  ASP89      -0.2867
    137  CB        12.3410  -24.7240   10.6470 C.3    89  ASP89       0.1410
    138  CG        12.6060  -25.1740   12.0710 C.2    89  ASP89       0.3668
    139  OD1       12.9360  -24.3130   12.9110 O.co2  89  ASP89      -0.2456
    140  OD2       12.4960  -26.3990   12.3380 O.co2  89  ASP89      -0.2456
    141  N          2.8540  -27.8530   11.5070 N.3   131  LEU131     -0.1245
    142  CA         3.7880  -28.9310   11.2360 C.3   131  LEU131      0.1561
    143  C          3.7230  -29.3900    9.8030 C.2   131  LEU131      0.2260
    144  O          2.6530  -29.4060    9.1850 O.2   131  LEU131     -0.2867
    145  CB         3.6160  -30.0890   12.2340 C.3   131  LEU131      0.0270
    146  CG         3.8850  -29.7620   13.7140 C.3   131  LEU131      0.0019
    147  CD1        3.7570  -30.9620   14.5370 C.3   131  LEU131      0.0001
    148  CD2        5.2940  -29.2510   13.9240 C.3   131  LEU131      0.0001
    149  N         -1.4850  -28.0250   15.1260 N.3   141  THR141     -0.1203
    150  CA        -1.4150  -28.6940   16.4340 C.3   141  THR141      0.1994
    151  C         -1.5700  -27.6670   17.5910 C.2   141  THR141      0.2617
    152  O         -1.9170  -26.5080   17.3390 O.2   141  THR141     -0.2717
    153  CB        -0.1630  -29.5930   16.5250 C.3   141  THR141      0.1784
    154  OG1       -0.3060  -30.4570   17.6520 O.3   141  THR141     -0.2211
    155  CG2        1.1560  -28.8100   16.6250 C.3   141  THR141      0.0376
    156  N         -1.2840  -28.0960   18.8420 N.am  142  ASP142     -0.1973
    157  CA        -1.3210  -27.3280   20.1060 C.3   142  ASP142      0.1709
    158  C         -2.6720  -26.7260   20.4050 C.2   142  ASP142      0.2293
    159  O         -2.8960  -25.5210   20.2260 O.2   142  ASP142     -0.2864
    160  CB        -0.2050  -26.2670   20.2120 C.3   142  ASP142      0.1436
    161  CG        -0.1390  -25.5480   21.5580 C.2   142  ASP142      0.3671
    162  OD1       -0.7320  -26.0650   22.5440 O.co2 142  ASP142     -0.2456
    163  OD2        0.5030  -24.4670   21.6280 O.co2 142  ASP142     -0.2456
    164  N         16.1770  -27.4670    7.0270 N.3   268  LYS268     -0.1245
    165  CA        16.9630  -28.5260    7.6540 C.3   268  LYS268      0.1561
    166  C         18.4520  -28.2860    7.4990 C.2   268  LYS268      0.2260
    167  O         19.1960  -28.5110    8.4490 O.2   268  LYS268     -0.2867
    168  CB        16.5440  -29.9150    7.1480 C.3   268  LYS268      0.0271
    169  CG        15.2640  -30.3980    7.8460 C.3   268  LYS268      0.0035
    170  CD        14.7040  -31.7270    7.3100 C.3   268  LYS268      0.0206
    171  CE        13.9990  -32.5540    8.3610 C.3   268  LYS268      0.1093
    172  NZ        12.8790  -31.8270    9.0070 N.3   268  LYS268     -0.1314
@<TRIPOS>BOND
     1   164   165    1
     2   168   165    1
     3   168   169    1
     4   170   169    1
     5   170   171    1
     6   166   165    1
     7   166   167    2
     8   171   172    1
     9   136   135    2
    10   122   119    1
    11   135   134    1
    12   117   115    1
    13   144   143    2
    14   120   121    2
    15   120   119    1
    16   119   118    1
    17   143   142    1
    18   118   112   am
    19   130   129    2
    20   123   124    1
    21    97    95   ar
    22   115   116    1
    23   115   114    1
    24   134   137    1
    25   134   133    1
    26   126   125    2
    27   137   138    1
    28   129   128    1
    29   112   111    1
    30   112   113    2
    31   114   111    1
    32   111   110    1
    33   101   100    2
    34   125   124    1
    35   125   127   am
    36   142   141    1
    37   142   145    1
    38    95    96   ar
    39    95    94    1
    40   127   128    1
    41   128   131    1
    42   100   110   am
    43   100    99    1
    44   138   140   ar
    45   138   139   ar
    46   107   105   ar
    47   107   108   ar
    48   145   146    1
    49   105   103   ar
    50    94    93    2
    51   109   108    1
    52   108   106   ar
    53    93    90    1
    54   131   132    1
    55    67    68    1
    56    99    98    1
    57    99   102    1
    58   103   102    1
    59   103   104   ar
    60    98    91   am
    61    68    69    1
    62    68    71    1
    63    73    71    1
    64   146   148    1
    65   146   147    1
    66   106   104   ar
    67    91    90    1
    68    91    92    2
    69    90    89    1
    70    69    70    2
    71    71    72    1
    72   149   150    1
    73    89    83   am
    74   150   153    1
    75   150   151    1
    76   153   155    1
    77   153   154    1
    78    83    84    2
    79    83    82    1
    80     8     6    1
    81    20    21    1
    82     7     5    1
    83    24    21    1
    84   152   151    2
    85   151   156   am
    86     5     6    1
    87     5     2    1
    88    86    85    1
    89    86    87    1
    90    82    85    1
    91    82    81    1
    92    21    22    1
    93    62    61    2
    94     4     3    2
    95   156   157    1
    96     2     3    1
    97     2     1    1
    98    22    23    2
    99    22    25   am
   100    87    88    1
   101    61    60    1
   102     3     9    1
   103    60    63    1
   104    60    59    1
   105   157   160    1
   106   157   158    1
   107    18    17    1
   108   160   161    1
   109   159   158    2
   110    64    63    1
   111    64    65    1
   112    25    26    1
   113    65    66    1
   114     9    10    2
   115    17    19    1
   116    17    14    1
   117    10    11    1
   118   161   163   ar
   119   161   162   ar
   120    30    32    1
   121    30    29    1
   122    16    15    2
   123    26    29    1
   124    26    27    1
   125    15    14    1
   126    14    13    1
   127    29    31    1
   128    27    28    2
   129    27    33   am
   130    77    76    2
   131    11    12    2
   132    76    75    1
   133    40    41    1
   134    40    39    1
   135    33    34    1
   136    57    56   ar
   137    79    78    1
   138    53    52    2
   139    37    34    1
   140    37    38    1
   141    34    35    1
   142    55    56    1
   143    55    54    1
   144    39    38    1
   145    56    58   ar
   146    78    75    1
   147    78    80    1
   148    75    74    1
   149    52    51    1
   150    51    54    1
   151    51    50    1
   152    35    36    2
   153    49    48    1
   154    48    47    1
   155    47    46    1
   156    42    43    1
   157    46    43    1
   158    43    44    1
   159    44    45    2
