@<TRIPOS>MOLECULE
tmp/4p9cE01.pdb
 145 139 0 0 0
SMALL
GASTEIGER

@<TRIPOS>ATOM
      1  N         39.3390  -19.1350   -3.0680 N.3    23  CYS23      -0.1235
      2  CA        38.9450  -20.4150   -3.6130 C.3    23  CYS23       0.1677
      3  C         39.7240  -20.7860   -4.8730 C.2    23  CYS23       0.2270
      4  O         39.9410  -19.9350   -5.7450 O.2    23  CYS23      -0.2867
      5  CB        37.4620  -20.3360   -3.9470 C.3    23  CYS23       0.0956
      6  SG        36.7530  -21.9340   -4.5820 S.3    23  CYS23      -0.0801
      7  N         38.9100  -23.9420   -6.7570 N.3    25  ARG25      -0.1231
      8  CA        37.9910  -24.6440   -7.6740 C.3    25  ARG25       0.1694
      9  C         37.1320  -23.6670   -8.4810 C.2    25  ARG25       0.2591
     10  O         37.0920  -23.7300   -9.7140 O.2    25  ARG25      -0.2718
     11  CB        37.0870  -25.6490   -6.9280 C.3    25  ARG25       0.0321
     12  CG        37.8180  -26.8280   -6.2770 C.3    25  ARG25       0.0489
     13  CD        36.8630  -27.9630   -5.8690 C.3    25  ARG25       0.2205
     14  NE        36.7480  -28.9960   -6.9020 N.pl3  25  ARG25      -0.0865
     15  CZ        35.7110  -29.1450   -7.7270 C.cat  25  ARG25       0.5346
     16  NH1       34.6660  -28.3320   -7.6510 N.pl3  25  ARG25       0.1354
     17  NH2       35.7150  -30.1090   -8.6350 N.pl3  25  ARG25       0.1354
     18  N         36.4550  -22.7670   -7.7680 N.am   26  MET26      -0.1979
     19  CA        35.5860  -21.7670   -8.3740 C.3    26  MET26       0.1605
     20  C         35.4430  -20.5790   -7.4280 C.2    26  MET26       0.2287
     21  O         35.1980  -20.7580   -6.2330 O.2    26  MET26      -0.2864
     22  CB        34.2070  -22.3720   -8.6560 C.3    26  MET26       0.0413
     23  CG        33.5080  -21.8250   -9.8910 C.3    26  MET26       0.0598
     24  SD        32.1020  -22.8680  -10.3460 S.3    26  MET26      -0.1393
     25  CE        32.2120  -22.8340  -12.1400 C.3    26  MET26       0.0692
     26  N         33.1540  -17.6110   -6.3690 N.3    28  VAL28      -0.1245
     27  CA        31.7310  -17.2600   -6.4780 C.3    28  VAL28       0.1561
     28  C         31.3740  -16.0260   -5.6490 C.2    28  VAL28       0.2260
     29  O         31.8600  -15.8620   -4.5260 O.2    28  VAL28      -0.2867
     30  CB        30.8120  -18.4500   -6.0740 C.3    28  VAL28       0.0252
     31  CG1       29.3470  -18.1390   -6.3660 C.3    28  VAL28       0.0019
     32  CG2       31.2200  -19.7220   -6.8070 C.3    28  VAL28       0.0019
     33  N         32.2830  -17.1960   -1.4340 N.3    44  ASN44      -0.1240
     34  CA        32.6010  -18.5060   -0.8790 C.3    44  ASN44       0.1653
     35  C         33.9340  -18.5150   -0.1340 C.2    44  ASN44       0.2266
     36  O         34.9420  -18.0150   -0.6390 O.2    44  ASN44      -0.2867
     37  CB        32.5630  -19.5970   -1.9650 C.3    44  ASN44       0.1155
     38  CG        33.4370  -19.2710   -3.1780 C.2    44  ASN44       0.2627
     39  OD1       33.6650  -18.1070   -3.5120 O.2    44  ASN44      -0.2716
     40  ND2       33.9200  -20.3100   -3.8480 N.am   44  ASN44      -0.0877
     41  N         39.9460  -23.1950    0.7110 N.3    55  CYS55      -0.1221
     42  CA        38.6570  -23.7970    0.4610 C.3    55  CYS55       0.1808
     43  C         38.6910  -25.2870    0.1270 C.2    55  CYS55       0.2601
     44  O         37.7140  -25.9520    0.1930 O.2    55  CYS55      -0.2717
     45  CB        37.9490  -23.0410   -0.6560 C.3    55  CYS55       0.0970
     46  SG        37.4740  -21.3700   -0.4130 S.3    55  CYS55      -0.0800
     47  N         39.8410  -25.8030   -0.2230 N.am   56  GLU56      -0.1979
     48  CA        39.9550  -27.1690   -0.7220 C.3    56  GLU56       0.1602
     49  C         40.5000  -28.1420    0.2990 C.2    56  GLU56       0.2287
     50  O         41.3940  -27.8140    1.0900 O.2    56  GLU56      -0.2864
     51  CB        40.8140  -27.2310   -1.9910 C.3    56  GLU56       0.0415
     52  CG        40.1540  -26.6540   -3.2340 C.3    56  GLU56       0.1163
     53  CD        40.2000  -25.1400   -3.2690 C.2    56  GLU56       0.3649
     54  OE1       41.1730  -24.5560   -2.7370 O.co2  56  GLU56      -0.2457
     55  OE2       39.2590  -24.5290   -3.8280 O.co2  56  GLU56      -0.2457
     56  N         35.9880  -29.7040   -2.1910 N.3    62  THR62      -0.1218
     57  CA        35.7590  -28.5200   -1.3620 C.3    62  THR62       0.1862
     58  C         35.4800  -28.9420    0.0810 C.2    62  THR62       0.2287
     59  O         34.6540  -29.8280    0.3290 O.2    62  THR62      -0.2866
     60  CB        34.5940  -27.6500   -1.9000 C.3    62  THR62       0.1770
     61  OG1       34.8560  -27.2840   -3.2610 O.3    62  THR62      -0.2211
     62  CG2       34.4390  -26.3900   -1.0720 C.3    62  THR62       0.0375
     63  N         33.3840  -24.8690    4.3420 N.3    66  VAL66      -0.1245
     64  CA        33.2630  -23.6130    3.5960 C.3    66  VAL66       0.1561
     65  C         31.8050  -23.2660    3.2880 C.2    66  VAL66       0.2260
     66  O         30.9820  -24.1450    3.0060 O.2    66  VAL66      -0.2867
     67  CB        34.1390  -23.5600    2.2970 C.3    66  VAL66       0.0252
     68  CG1       35.3830  -24.4300    2.4310 C.3    66  VAL66       0.0019
     69  CG2       33.3290  -23.9450    1.0620 C.3    66  VAL66       0.0019
     70  N         28.9620  -21.2770    1.0260 N.3    68  HIS68      -0.1226
     71  CA        28.6930  -20.8160   -0.3230 C.3    68  HIS68       0.1752
     72  C         28.4450  -19.3060   -0.3030 C.2    68  HIS68       0.2596
     73  O         28.0510  -18.7520    0.7290 O.2    68  HIS68      -0.2718
     74  CB        27.4840  -21.5680   -0.8870 C.3    68  HIS68       0.0759
     75  CG        27.7510  -23.0140   -1.1950 C.ar   68  HIS68       0.0818
     76  ND1       26.9770  -23.7340   -2.0800 N.ar   68  HIS68      -0.2268
     77  CD2       28.7010  -23.8700   -0.7490 C.ar   68  HIS68       0.1154
     78  CE1       27.4360  -24.9700   -2.1610 C.ar   68  HIS68       0.1986
     79  NE2       28.4820  -25.0780   -1.3650 N.ar   68  HIS68      -0.2212
     80  N         28.6830  -18.6460   -1.4340 N.am   69  ALA69      -0.1966
     81  CA        28.4690  -17.2040   -1.5430 C.3    69  ALA69       0.1728
     82  C         27.0300  -16.8210   -1.1960 C.2    69  ALA69       0.2616
     83  O         26.7870  -15.7430   -0.6480 O.2    69  ALA69      -0.2715
     84  CB        28.8300  -16.7130   -2.9360 C.3    69  ALA69       0.0334
     85  N         26.0820  -17.7070   -1.5130 N.am   70  GLU70      -0.1977
     86  CA        24.6680  -17.4700   -1.2140 C.3    70  GLU70       0.1602
     87  C         24.3850  -17.6200    0.2720 C.2    70  GLU70       0.2287
     88  O         23.5950  -16.8610    0.8350 O.2    70  GLU70      -0.2864
     89  CB        23.7640  -18.4230   -2.0000 C.3    70  GLU70       0.0415
     90  CG        23.8500  -18.2780   -3.5110 C.3    70  GLU70       0.1163
     91  CD        24.9940  -19.0730   -4.1140 C.2    70  GLU70       0.3649
     92  OE1       25.3030  -18.8520   -5.3030 O.co2  70  GLU70      -0.2457
     93  OE2       25.5880  -19.9210   -3.4100 O.co2  70  GLU70      -0.2457
     94  N         27.3950  -17.2740  -10.2720 N.3    93  HIS93      -0.1226
     95  CA        27.0500  -18.6360  -10.6310 C.3    93  HIS93       0.1752
     96  C         25.6580  -18.9680  -10.1120 C.2    93  HIS93       0.2597
     97  O         25.2600  -18.4960   -9.0460 O.2    93  HIS93      -0.2718
     98  CB        28.0930  -19.5990  -10.0610 C.3    93  HIS93       0.0759
     99  CG        29.4400  -19.4580  -10.6970 C.ar   93  HIS93       0.0818
    100  ND1       30.3310  -18.4640  -10.3480 N.ar   93  HIS93      -0.2268
    101  CD2       30.0360  -20.1630  -11.6860 C.ar   93  HIS93       0.1154
    102  CE1       31.4210  -18.5730  -11.0850 C.ar   93  HIS93       0.1986
    103  NE2       31.2700  -19.5980  -11.9040 N.ar   93  HIS93      -0.2212
    104  N         24.9240  -19.7730  -10.8750 N.am   94  SER94      -0.1938
    105  CA        23.6060  -20.2390  -10.4590 C.3    94  SER94       0.2040
    106  C         23.7060  -21.0160   -9.1450 C.2    94  SER94       0.2485
    107  O         24.5490  -21.9080   -9.0160 O.2    94  SER94      -0.2729
    108  CB        22.9580  -21.0990  -11.5490 C.3    94  SER94       0.2129
    109  OG        23.6860  -22.2970  -11.7630 O.3    94  SER94      -0.2179
    110  N         22.8620  -20.6620   -8.1580 N.am   95  PRO95      -0.2715
    111  CA        22.8600  -21.3010   -6.8390 C.3    95  PRO95       0.1536
    112  C         22.6050  -22.8100   -6.8860 C.2    95  PRO95       0.2598
    113  O         21.9100  -23.2990   -7.7840 O.2    95  PRO95      -0.2715
    114  CB        21.7030  -20.6030   -6.1190 C.3    95  PRO95       0.0310
    115  CG        21.5600  -19.2950   -6.8060 C.3    95  PRO95       0.0237
    116  CD        21.8840  -19.5660   -8.2390 C.3    95  PRO95       0.0939
    117  N         23.1750  -23.5290   -5.9210 N.am   96  CYS96      -0.1968
    118  CA        22.9410  -24.9620   -5.7620 C.3    96  CYS96       0.1712
    119  C         21.5340  -25.1980   -5.2020 C.2    96  CYS96       0.2296
    120  O         20.9510  -24.2840   -4.6110 O.2    96  CYS96      -0.2864
    121  CB        24.0070  -25.5790   -4.8480 C.3    96  CYS96       0.0983
    122  SG        23.8990  -25.1050   -3.1070 S.3    96  CYS96      -0.0798
    123  N         26.6320  -23.3200  -12.6400 N.3   117  TYR117     -0.1227
    124  CA        27.2870  -24.2400  -11.7100 C.3   117  TYR117      0.1736
    125  C         27.0660  -25.6720  -12.2030 C.2   117  TYR117      0.2595
    126  O         26.0570  -25.9530  -12.8570 O.2   117  TYR117     -0.2718
    127  CB        26.7200  -24.0280  -10.2960 C.3   117  TYR117      0.0548
    128  CG        27.1890  -24.9700   -9.1950 C.ar  117  TYR117     -0.0200
    129  CD1       28.5500  -25.1620   -8.9300 C.ar  117  TYR117     -0.0009
    130  CD2       26.2610  -25.6340   -8.3840 C.ar  117  TYR117     -0.0009
    131  CE1       28.9720  -26.0170   -7.9070 C.ar  117  TYR117      0.0417
    132  CE2       26.6730  -26.4860   -7.3600 C.ar  117  TYR117      0.0417
    133  CZ        28.0270  -26.6720   -7.1250 C.ar  117  TYR117      0.1957
    134  OH        28.4330  -27.5140   -6.1140 O.3   117  TYR117     -0.2866
    135  N         28.0110  -26.5630  -11.9030 N.am  118  ARG118     -0.1980
    136  CA        27.9470  -27.9680  -12.3470 C.3   118  ARG118      0.1597
    137  C         26.6070  -28.6730  -12.0510 C.2   118  ARG118      0.2287
    138  O         26.1780  -29.5350  -12.8230 O.2   118  ARG118     -0.2864
    139  CB        29.1340  -28.7800  -11.7990 C.3   118  ARG118      0.0334
    140  CG        29.2930  -28.7540  -10.2840 C.3   118  ARG118      0.0492
    141  CD        30.3420  -29.7540   -9.8140 C.3   118  ARG118      0.2205
    142  NE        30.4040  -29.8350   -8.3540 N.pl3 118  ARG118     -0.0865
    143  CZ        29.7920  -30.7600   -7.6180 C.cat 118  ARG118      0.5346
    144  NH1       29.0620  -31.7100   -8.1890 N.pl3 118  ARG118      0.1354
    145  NH2       29.9160  -30.7350   -6.2970 N.pl3 118  ARG118      0.1354
@<TRIPOS>BOND
     1   126   125    2
     2   138   137    2
     3   123   124    1
     4   136   137    1
     5   136   135    1
     6   136   139    1
     7   125   135   am
     8   125   124    1
     9    25    24    1
    10   103   101   ar
    11   103   102   ar
    12   139   140    1
    13   109   108    1
    14   124   127    1
    15   101    99   ar
    16   108   105    1
    17   102   100   ar
    18   104   105    1
    19   104    96   am
    20    99   100   ar
    21    99    98    1
    22    95    94    1
    23    95    96    1
    24    95    98    1
    25   105   106    1
    26    24    23    1
    27   127   128    1
    28   140   141    1
    29    96    97    2
    30    23    22    1
    31   141   142    1
    32    10     9    2
    33   128   129   ar
    34   128   130   ar
    35   106   107    2
    36   106   110   am
    37   129   131   ar
    38    22    19    1
    39    17    15    1
    40     9    18   am
    41     9     8    1
    42   130   132   ar
    43    19    18    1
    44    19    20    1
    45   142   143    2
    46   116   110    1
    47   116   115    1
    48   144   143    1
    49   110   111    1
    50   131   133   ar
    51   113   112    2
    52    15    16    1
    53    15    14    2
    54     8    11    1
    55     8     7    1
    56   143   145    1
    57    20    21    2
    58   132   133   ar
    59   133   134    1
    60    11    12    1
    61    14    13    1
    62   112   111    1
    63   112   117   am
    64   111   114    1
    65    32    30    1
    66   115   114    1
    67    27    26    1
    68    27    30    1
    69    27    28    1
    70    31    30    1
    71    12    13    1
    72   117   118    1
    73   118   119    1
    74   118   121    1
    75     4     3    2
    76    28    29    2
    77    92    91   ar
    78   119   120    2
    79     3     2    1
    80   121   122    1
    81     6     5    1
    82    91    90    1
    83    91    93   ar
    84     5     2    1
    85    40    38   am
    86    55    53   ar
    87     2     1    1
    88    39    38    2
    89    90    89    1
    90    53    52    1
    91    53    54   ar
    92    61    60    1
    93    52    51    1
    94    38    37    1
    95    84    81    1
    96    56    57    1
    97    78    76   ar
    98    78    79   ar
    99    76    75   ar
   100    89    86    1
   101    51    48    1
   102    37    34    1
   103    60    57    1
   104    60    62    1
   105    81    80    1
   106    81    82    1
   107    85    86    1
   108    85    82   am
   109    33    34    1
   110    80    72   am
   111    79    77   ar
   112    57    58    1
   113    86    87    1
   114    82    83    2
   115    75    74    1
   116    75    77   ar
   117    74    71    1
   118    34    35    1
   119    48    47    1
   120    48    49    1
   121    45    46    1
   122    45    42    1
   123    36    35    2
   124    71    72    1
   125    71    70    1
   126    72    73    2
   127    47    43   am
   128    58    59    2
   129    43    44    2
   130    43    42    1
   131    87    88    2
   132    49    50    2
   133    42    41    1
   134    69    67    1
   135    67    68    1
   136    67    64    1
   137    66    65    2
   138    65    64    1
   139    64    63    1
