@<TRIPOS>MOLECULE
tmp/4p9cE00.pdb
 81 80 0 0 0
SMALL
GASTEIGER

@<TRIPOS>ATOM
      1  N         27.0940   -8.5370    0.5150 N.3    41  HIS41      -0.1226
      2  CA        27.8900   -9.1190   -0.5090 C.3    41  HIS41       0.1752
      3  C         28.6280  -10.3110    0.0210 C.2    41  HIS41       0.2597
      4  O         29.3930  -10.2400    0.9180 O.2    41  HIS41      -0.2718
      5  CB        28.8400   -8.1130   -1.0760 C.3    41  HIS41       0.0759
      6  CG        29.6010   -7.3660   -0.0520 C.ar   41  HIS41       0.0818
      7  ND1       29.5310   -6.0110    0.0660 N.ar   41  HIS41      -0.2268
      8  CD2       30.4550   -7.7780    0.8970 C.ar   41  HIS41       0.1154
      9  CE1       30.3070   -5.6180    1.0480 C.ar   41  HIS41       0.1986
     10  NE2       30.8740   -6.6770    1.5740 N.ar   41  HIS41      -0.2212
     11  N         28.3500  -11.4380   -0.5620 N.am   42  GLY42      -0.1942
     12  CA        28.8980  -12.6900   -0.0810 C.3    42  GLY42       0.2014
     13  C         29.8370  -13.3260   -1.0750 C.2    42  GLY42       0.2638
     14  O         29.6450  -13.2150   -2.2890 O.2    42  GLY42      -0.2714
     15  N         30.8580  -13.9910   -0.5580 N.am   43  TRP43      -0.1973
     16  CA        31.6960  -14.8440   -1.3810 C.3    43  TRP43       0.1640
     17  C         31.9390  -16.1680   -0.6640 C.2    43  TRP43       0.2290
     18  O         31.8110  -16.2530    0.5610 O.2    43  TRP43      -0.2864
     19  CB        33.0120  -14.1430   -1.7350 C.3    43  TRP43       0.0576
     20  CG        33.8340  -13.7330   -0.5490 C.ar   43  TRP43       0.0006
     21  CD1       34.6980  -14.5230    0.1570 C.ar   43  TRP43       0.0946
     22  CD2       33.8760  -12.4390    0.0710 C.ar   43  TRP43       0.0152
     23  NE1       35.2740  -13.8040    1.1740 N.ar   43  TRP43      -0.2442
     24  CE2       34.7880  -12.5240    1.1480 C.ar   43  TRP43       0.0810
     25  CE3       33.2320  -11.2170   -0.1800 C.ar   43  TRP43       0.0012
     26  CZ2       35.0760  -11.4290    1.9770 C.ar   43  TRP43       0.0191
     27  CZ3       33.5190  -10.1260    0.6460 C.ar   43  TRP43       0.0001
     28  CH2       34.4360  -10.2450    1.7090 C.ar   43  TRP43       0.0015
     29  N         33.9270  -19.0740    1.0720 N.3    45  GLY45      -0.1210
     30  CA        35.1310  -19.1940    1.8870 C.3    45  GLY45       0.1956
     31  C         34.8500  -19.9650    3.1610 C.2    45  GLY45       0.2613
     32  O         33.6920  -20.2490    3.4780 O.2    45  GLY45      -0.2717
     33  N         35.9090  -20.3090    3.8890 N.am   46  THR46      -0.1939
     34  CA        35.7870  -20.9340    5.2050 C.3    46  THR46       0.2013
     35  C         35.1460  -19.9570    6.2010 C.2    46  THR46       0.2484
     36  O         35.1140  -18.7530    5.9430 O.2    46  THR46      -0.2729
     37  CB        37.1650  -21.3880    5.7360 C.3    46  THR46       0.1807
     38  OG1       38.0760  -20.2830    5.7210 O.3    46  THR46      -0.2208
     39  CG2       37.7290  -22.5240    4.8900 C.3    46  THR46       0.0379
     40  N         34.6340  -20.4680    7.3430 N.am   47  PRO47      -0.2715
     41  CA        34.0100  -19.5990    8.3520 C.3    47  PRO47       0.1536
     42  C         34.9670  -18.5400    8.9040 C.2    47  PRO47       0.2599
     43  O         36.1870  -18.7040    8.8200 O.2    47  PRO47      -0.2715
     44  CB        33.6240  -20.5770    9.4670 C.3    47  PRO47       0.0310
     45  CG        33.5290  -21.9020    8.8020 C.3    47  PRO47       0.0237
     46  CD        34.5850  -21.8890    7.7470 C.3    47  PRO47       0.0939
     47  N         34.4110  -17.4620    9.4580 N.am   48  SER48      -0.1936
     48  CA        35.2080  -16.4060   10.0880 C.3    48  SER48       0.2055
     49  C         36.0290  -16.9490   11.2520 C.2    48  SER48       0.2643
     50  O         35.4820  -17.5240   12.1980 O.2    48  SER48      -0.2714
     51  CB        34.3100  -15.2640   10.5720 C.3    48  SER48       0.2130
     52  OG        33.6420  -14.6390    9.4900 O.3    48  SER48      -0.2179
     53  N         37.3470  -16.7680   11.1670 N.am   49  GLY49      -0.1954
     54  CA        38.2710  -17.1990   12.2190 C.3    49  GLY49       0.1869
     55  C         38.6870  -18.6570   12.1270 C.2    49  GLY49       0.2309
     56  O         39.2370  -19.2090   13.0850 O.2    49  GLY49      -0.2863
     57  N         31.5020  -21.9750    3.3720 N.3    67  LEU67      -0.1245
     58  CA        30.1650  -21.4700    3.0970 C.3    67  LEU67       0.1561
     59  C         30.0880  -20.9840    1.6670 C.2    67  LEU67       0.2260
     60  O         31.0240  -20.3670    1.1570 O.2    67  LEU67      -0.2867
     61  CB        29.8020  -20.3260    4.0480 C.3    67  LEU67       0.0270
     62  CG        29.4990  -20.6760    5.5070 C.3    67  LEU67       0.0019
     63  CD1       30.7560  -20.5690    6.3690 C.3    67  LEU67       0.0001
     64  CD2       28.4100  -19.7610    6.0520 C.3    67  LEU67       0.0001
     65  N         26.5370  -17.1320    2.6960 N.3    72  ASN72      -0.1240
     66  CA        27.1480  -15.9640    3.3180 C.3    72  ASN72       0.1653
     67  C         26.2780  -14.7200    3.1460 C.2    72  ASN72       0.2266
     68  O         26.2080  -13.8840    4.0470 O.2    72  ASN72      -0.2867
     69  CB        28.5660  -15.7360    2.7760 C.3    72  ASN72       0.1155
     70  CG        29.6250  -16.5600    3.5130 C.2    72  ASN72       0.2627
     71  OD1       29.5580  -16.7350    4.7310 O.2    72  ASN72      -0.2716
     72  ND2       30.6120  -17.0550    2.7760 N.am   72  ASN72      -0.0877
     73  N         24.6080  -12.9030    6.3260 N.3    76  LYS76      -0.1245
     74  CA        24.7970  -11.4620    6.4620 C.3    76  LYS76       0.1561
     75  C         23.4550  -10.7460    6.5930 C.2    76  LYS76       0.2260
     76  O         23.3150   -9.8470    7.4230 O.2    76  LYS76      -0.2867
     77  CB        25.5960  -10.9000    5.2800 C.3    76  LYS76       0.0271
     78  CG        25.9990   -9.4300    5.4210 C.3    76  LYS76       0.0035
     79  CD        27.2840   -9.2430    6.2330 C.3    76  LYS76       0.0206
     80  CE        28.5370   -9.5180    5.4050 C.3    76  LYS76       0.1093
     81  NZ        28.7010   -8.5680    4.2650 N.3    76  LYS76      -0.1314
@<TRIPOS>BOND
     1    14    13    2
     2    19    16    1
     3    19    20    1
     4    16    17    1
     5    16    15    1
     6     5     2    1
     7     5     6    1
     8    13    15   am
     9    13    12    1
    10    17    18    2
    11    11    12    1
    12    11     3   am
    13    20    22   ar
    14    20    21   ar
    15     2     3    1
    16     2     1    1
    17    25    22   ar
    18    25    27   ar
    19     6     7   ar
    20     6     8   ar
    21     3     4    2
    22     7     9   ar
    23    22    24   ar
    24    21    23   ar
    25    27    28   ar
    26     8    10   ar
    27     9    10   ar
    28    29    30    1
    29    24    23   ar
    30    24    26   ar
    31    60    59    2
    32    59    58    1
    33    28    26   ar
    34    30    31    1
    35    65    66    1
    36    72    70   am
    37    69    66    1
    38    69    70    1
    39    58    57    1
    40    58    61    1
    41    67    66    1
    42    67    68    2
    43    31    32    2
    44    31    33   am
    45    70    71    2
    46    33    34    1
    47    61    62    1
    48    81    80    1
    49    39    37    1
    50    34    37    1
    51    34    35    1
    52    77    78    1
    53    77    74    1
    54    80    79    1
    55    78    79    1
    56    62    64    1
    57    62    63    1
    58    38    37    1
    59    36    35    2
    60    35    40   am
    61    73    74    1
    62    74    75    1
    63    75    76    2
    64    40    46    1
    65    40    41    1
    66    46    45    1
    67    41    42    1
    68    41    44    1
    69    45    44    1
    70    43    42    2
    71    42    47   am
    72    47    48    1
    73    52    51    1
    74    48    51    1
    75    48    49    1
    76    53    49   am
    77    53    54    1
    78    49    50    2
    79    55    54    1
    80    55    56    2
