@<TRIPOS>MOLECULE
tmp/4p9dE00.pdb
 108 106 0 0 0
SMALL
GASTEIGER

@<TRIPOS>ATOM
      1  N          6.4910   15.0210   45.3380 N.3    21  ASN21      -0.1240
      2  CA         6.2950   16.1270   46.2700 C.3    21  ASN21       0.1653
      3  C          5.2100   15.8210   47.2990 C.2    21  ASN21       0.2266
      4  O          4.6210   16.7280   47.8940 O.2    21  ASN21      -0.2867
      5  CB         5.9510   17.4090   45.5110 C.3    21  ASN21       0.1155
      6  CG         6.9350   17.7060   44.3950 C.2    21  ASN21       0.2627
      7  OD1        6.5450   17.8940   43.2430 O.2    21  ASN21      -0.2716
      8  ND2        8.2210   17.7390   44.7310 N.am   21  ASN21      -0.0877
      9  N          8.1360    5.7080   34.0640 N.3    40  HIS40      -0.1226
     10  CA         8.4180    5.8830   35.4630 C.3    40  HIS40       0.1752
     11  C          7.3860    6.7850   35.9910 C.2    40  HIS40       0.2597
     12  O          7.2580    7.8340   35.4910 O.2    40  HIS40      -0.2718
     13  CB         9.7840    6.4610   35.7050 C.3    40  HIS40       0.0759
     14  CG        10.1490    7.5950   34.8140 C.ar   40  HIS40       0.0818
     15  ND1       11.0600    7.4720   33.7970 N.ar   40  HIS40      -0.2268
     16  CD2        9.7770    8.8880   34.8300 C.ar   40  HIS40       0.1154
     17  CE1       11.2140    8.6370   33.2110 C.ar   40  HIS40       0.1986
     18  NE2       10.4480    9.5140   33.8220 N.ar   40  HIS40      -0.2212
     19  N          6.6200    6.3370   36.9710 N.am   41  GLY41      -0.1942
     20  CA         5.5700    7.1200   37.5930 C.3    41  GLY41       0.2014
     21  C          5.7060    7.2450   39.0960 C.2    41  GLY41       0.2638
     22  O          6.0120    6.2750   39.7890 O.2    41  GLY41      -0.2714
     23  N          5.4790    8.4540   39.5990 N.am   42  TRP42      -0.1973
     24  CA         5.4850    8.7010   41.0340 C.3    42  TRP42       0.1640
     25  C          4.1880    9.3820   41.4570 C.2    42  TRP42       0.2290
     26  O          3.5060    9.9960   40.6380 O.2    42  TRP42      -0.2864
     27  CB         6.6940    9.5510   41.4350 C.3    42  TRP42       0.0576
     28  CG         6.7930   10.8720   40.7250 C.ar   42  TRP42       0.0006
     29  CD1        6.1370   12.0250   41.0450 C.ar   42  TRP42       0.0946
     30  CD2        7.6110   11.1780   39.5890 C.ar   42  TRP42       0.0152
     31  NE1        6.4890   13.0280   40.1750 N.ar   42  TRP42      -0.2442
     32  CE2        7.3930   12.5350   39.2720 C.ar   42  TRP42       0.0810
     33  CE3        8.5040   10.4390   38.8070 C.ar   42  TRP42       0.0012
     34  CZ2        8.0340   13.1650   38.2070 C.ar   42  TRP42       0.0191
     35  CZ3        9.1400   11.0680   37.7510 C.ar   42  TRP42       0.0001
     36  CH2        8.9040   12.4180   37.4630 C.ar   42  TRP42       0.0015
     37  N          1.5310   11.9880   42.9620 N.3    44  GLY44      -0.1210
     38  CA         1.4280   13.4360   42.9830 C.3    44  GLY44       0.1956
     39  C          0.1410   13.9570   42.3710 C.2    44  GLY44       0.2613
     40  O         -0.7270   13.1830   41.9670 O.2    44  GLY44      -0.2717
     41  N          0.0240   15.2800   42.3070 N.am   45  THR45      -0.1939
     42  CA        -1.1440   15.9450   41.7330 C.3    45  THR45       0.2013
     43  C         -1.0520   15.9830   40.2070 C.2    45  THR45       0.2484
     44  O          0.0490   15.9920   39.6620 O.2    45  THR45      -0.2729
     45  CB        -1.2820   17.3830   42.2750 C.3    45  THR45       0.1807
     46  OG1       -0.1370   18.1530   41.8890 O.3    45  THR45      -0.2208
     47  CG2       -1.3920   17.3730   43.7920 C.3    45  THR45       0.0379
     48  N         -2.2070   16.0080   39.5130 N.am   46  PRO46      -0.2715
     49  CA        -2.2500   16.0010   38.0430 C.3    46  PRO46       0.1536
     50  C         -1.3930   17.0760   37.3700 C.2    46  PRO46       0.2599
     51  O         -0.9550   18.0270   38.0150 O.2    46  PRO46      -0.2715
     52  CB        -3.7310   16.2460   37.7400 C.3    46  PRO46       0.0310
     53  CG        -4.4420   15.6890   38.9100 C.3    46  PRO46       0.0237
     54  CD        -3.5610   15.9660   40.0960 C.3    46  PRO46       0.0939
     55  N         -1.1640   16.9110   36.0710 N.am   47  SER47      -0.1936
     56  CA        -0.4000   17.8820   35.2960 C.3    47  SER47       0.2055
     57  C         -1.1630   19.1950   35.1670 C.2    47  SER47       0.2644
     58  O         -2.3810   19.2030   34.9880 O.2    47  SER47      -0.2714
     59  CB        -0.0730   17.3270   33.9080 C.3    47  SER47       0.2130
     60  OG         0.3390   15.9740   33.9810 O.3    47  SER47      -0.2179
     61  N         -0.4390   20.3060   35.2690 N.am   48  GLY48      -0.1939
     62  CA        -1.0350   21.6220   35.1350 C.3    48  GLY48       0.2014
     63  C         -1.8840   22.0240   36.3250 C.2    48  GLY48       0.2638
     64  O         -2.5440   23.0630   36.3010 O.2    48  GLY48      -0.2714
     65  N         -1.8720   21.1970   37.3660 N.am   49  PHE49      -0.1973
     66  CA        -2.6130   21.4830   38.5890 C.3    49  PHE49       0.1639
     67  C         -2.0090   22.7060   39.2720 C.2    49  PHE49       0.2290
     68  O         -0.8190   22.9810   39.1130 O.2    49  PHE49      -0.2864
     69  CB        -2.5950   20.2700   39.5200 C.3    49  PHE49       0.0560
     70  CG        -3.7310   20.2360   40.4990 C.ar   49  PHE49      -0.0200
     71  CD1       -5.0410   20.1550   40.0560 C.ar   49  PHE49      -0.0042
     72  CD2       -3.4900   20.2660   41.8620 C.ar   49  PHE49      -0.0042
     73  CE1       -6.0890   20.1180   40.9540 C.ar   49  PHE49      -0.0003
     74  CE2       -4.5340   20.2280   42.7650 C.ar   49  PHE49      -0.0003
     75  CZ        -5.8360   20.1540   42.3100 C.ar   49  PHE49      -0.0000
     76  N          1.4830   21.6850   43.5830 N.3    52  ASN52      -0.1240
     77  CA         2.1820   20.4100   43.5020 C.3    52  ASN52       0.1653
     78  C          2.3820   19.7980   44.8860 C.2    52  ASN52       0.2266
     79  O          3.1760   18.8780   45.0600 O.2    52  ASN52      -0.2867
     80  CB         3.5280   20.5770   42.7880 C.3    52  ASN52       0.1155
     81  CG         3.3790   20.6750   41.2770 C.2    52  ASN52       0.2627
     82  OD1        2.3520   20.2890   40.7190 O.2    52  ASN52      -0.2716
     83  ND2        4.4080   21.1860   40.6080 N.am   52  ASN52      -0.0877
     84  N         -2.7230   11.4800   42.2420 N.3    66  LEU66      -0.1245
     85  CA        -2.7300   10.1780   41.5920 C.3    66  LEU66       0.1561
     86  C         -1.6660    9.2790   42.2030 C.2    66  LEU66       0.2260
     87  O         -0.6010    9.7490   42.6030 O.2    66  LEU66      -0.2867
     88  CB        -2.5010   10.3230   40.0860 C.3    66  LEU66       0.0270
     89  CG        -3.5730   11.0730   39.2940 C.3    66  LEU66       0.0019
     90  CD1       -2.9840   12.3200   38.6590 C.3    66  LEU66       0.0001
     91  CD2       -4.1890   10.1720   38.2360 C.3    66  LEU66       0.0001
     92  N         -0.2980    6.8520   37.5950 N.3    71  ASN71      -0.1240
     93  CA         0.5440    7.6280   36.6900 C.3    71  ASN71       0.1653
     94  C          1.2830    6.7520   35.6840 C.2    71  ASN71       0.2266
     95  O          1.2800    7.0320   34.4850 O.2    71  ASN71      -0.2867
     96  CB         1.5520    8.4590   37.4850 C.3    71  ASN71       0.1155
     97  CG         0.9460    9.7280   38.0490 C.2    71  ASN71       0.2627
     98  OD1        0.1080   10.3650   37.4120 O.2    71  ASN71      -0.2716
     99  ND2        1.3730   10.1060   39.2480 N.am   71  ASN71      -0.0877
    100  N          0.6590    6.8980   31.6740 N.3    75  LYS75      -0.1245
    101  CA         1.7410    7.2140   30.7560 C.3    75  LYS75       0.1561
    102  C          1.8680    6.1400   29.6810 C.2    75  LYS75       0.2260
    103  O          2.2750    6.4290   28.5500 O.2    75  LYS75      -0.2867
    104  CB         3.0560    7.3610   31.5090 C.3    75  LYS75       0.0271
    105  CG         4.1590    7.9240   30.6380 C.3    75  LYS75       0.0035
    106  CD         5.2600    8.5310   31.4790 C.3    75  LYS75       0.0206
    107  CE         6.6060    7.9680   31.0720 C.3    75  LYS75       0.1093
    108  NZ         7.5550    7.9590   32.2170 N.3    75  LYS75      -0.1314
@<TRIPOS>BOND
     1   103   102    2
     2   102   101    1
     3   105   106    1
     4   105   104    1
     5   101   104    1
     6   101   100    1
     7   107   106    1
     8   107   108    1
     9    17    15   ar
    10    17    18   ar
    11    15    14   ar
    12    18    16   ar
    13    59    60    1
    14    59    56    1
    15     9    10    1
    16    95    94    2
    17    14    16   ar
    18    14    13    1
    19    58    57    2
    20    62    61    1
    21    62    63    1
    22    57    61   am
    23    57    56    1
    24    56    55    1
    25    10    13    1
    26    10    11    1
    27    12    11    2
    28    94    93    1
    29    11    19   am
    30    55    50   am
    31    64    63    2
    32    63    65   am
    33    93    96    1
    34    93    92    1
    35    19    20    1
    36    65    66    1
    37    50    51    2
    38    50    49    1
    39    98    97    2
    40    36    35   ar
    41    36    34   ar
    42    96    97    1
    43    20    21    1
    44    52    49    1
    45    52    53    1
    46    35    33   ar
    47    49    48    1
    48    97    99   am
    49    34    32   ar
    50    91    89    1
    51    66    67    1
    52    66    69    1
    53    90    89    1
    54    33    30   ar
    55    53    54    1
    56    21    23   am
    57    21    22    2
    58    68    67    2
    59    32    30   ar
    60    32    31   ar
    61    89    88    1
    62    48    54    1
    63    48    43   am
    64    69    70    1
    65    30    28   ar
    66    23    24    1
    67    44    43    2
    68    71    70   ar
    69    71    73   ar
    70    88    85    1
    71    31    29   ar
    72    43    42    1
    73    70    72   ar
    74    83    81   am
    75    26    25    2
    76    82    81    2
    77    28    29   ar
    78    28    27    1
    79    73    75   ar
    80    24    27    1
    81    24    25    1
    82    81    80    1
    83    85    86    1
    84    85    84    1
    85    42    45    1
    86    42    41    1
    87    72    74   ar
    88    46    45    1
    89    40    39    2
    90    86    87    2
    91    45    47    1
    92    41    39   am
    93    75    74   ar
    94    39    38    1
    95    80    77    1
    96    37    38    1
    97     7     6    2
    98    77    76    1
    99    77    78    1
   100     6     8   am
   101     6     5    1
   102    78    79    2
   103     1     2    1
   104     5     2    1
   105     2     3    1
   106     3     4    2
