@<TRIPOS>MOLECULE
tmp/4p9hC00.pdb
 80 78 0 0 0
SMALL
GASTEIGER

@<TRIPOS>ATOM
      1  N         41.9830  -25.2660   34.0160 N.3     1  GLN1       -0.1231
      2  CA        40.9840  -26.3260   33.8460 C.3     1  GLN1        0.1698
      3  C         41.3530  -27.2470   32.7040 C.2     1  GLN1        0.2592
      4  O         42.5120  -27.3520   32.3370 O.2     1  GLN1       -0.2718
      5  CB        39.5870  -25.7360   33.6090 C.3     1  GLN1        0.0381
      6  CG        38.4330  -26.7340   33.6920 C.3     1  GLN1        0.0905
      7  CD        37.4490  -26.5830   32.5480 C.2     1  GLN1        0.2608
      8  OE1       37.5360  -25.6430   31.7620 O.2     1  GLN1       -0.2717
      9  NE2       36.5100  -27.5090   32.4490 N.am    1  GLN1       -0.0878
     10  N         40.3500  -27.9190   32.1590 N.am    2  ILE2       -0.1966
     11  CA        40.5280  -28.8120   31.0310 C.3     2  ILE2        0.1727
     12  C         40.8630  -28.0610   29.7680 C.2     2  ILE2        0.2616
     13  O         40.2550  -27.0530   29.4360 O.2     2  ILE2       -0.2715
     14  CB        39.2640  -29.6320   30.7640 C.3     2  ILE2        0.0290
     15  CG1       38.8900  -30.4300   32.0060 C.3     2  ILE2        0.0022
     16  CG2       39.4600  -30.5350   29.5480 C.3     2  ILE2        0.0023
     17  CD1       37.9530  -31.5740   31.7360 C.3     2  ILE2        0.0001
     18  N         41.8270  -28.5940   29.0470 N.am    3  HIS3       -0.1973
     19  CA        42.2020  -28.0330   27.7890 C.3     3  HIS3        0.1656
     20  C         42.6470  -29.1400   26.9180 C.2     3  HIS3        0.2291
     21  O         43.7480  -29.6720   27.0900 O.2     3  HIS3       -0.2864
     22  CB        43.2920  -26.9960   27.9500 C.3     3  HIS3        0.0771
     23  CG        43.2980  -25.9600   26.8580 C.ar    3  HIS3        0.0820
     24  ND1       44.4190  -25.3630   26.4360 N.ar    3  HIS3       -0.2267
     25  CD2       42.2610  -25.4440   26.0870 C.ar    3  HIS3        0.1154
     26  CE1       44.1200  -24.5020   25.4500 C.ar    3  HIS3        0.1986
     27  NE2       42.7960  -24.5560   25.2370 N.ar    3  HIS3       -0.2212
     28  N         44.1950  -30.5470   23.8510 N.3     5  VAL5       -0.1245
     29  CA        45.1450  -30.1080   22.8210 C.3     5  VAL5        0.1561
     30  C         45.3440  -31.2020   21.7900 C.2     5  VAL5        0.2260
     31  O         45.8040  -32.3000   22.1110 O.2     5  VAL5       -0.2867
     32  CB        46.5180  -29.7190   23.4150 C.3     5  VAL5        0.0252
     33  CG1       47.4440  -29.1970   22.3160 C.3     5  VAL5        0.0019
     34  CG2       46.3480  -28.6640   24.5110 C.3     5  VAL5        0.0019
     35  N         44.4370  -32.4350   28.8990 N.3    25  TYR25      -0.1227
     36  CA        45.0300  -31.8090   30.0480 C.3    25  TYR25       0.1736
     37  C         43.9280  -31.4170   31.0180 C.2    25  TYR25       0.2596
     38  O         42.8730  -30.9370   30.6010 O.2    25  TYR25      -0.2718
     39  CB        45.8400  -30.5790   29.6360 C.3    25  TYR25       0.0548
     40  CG        47.0710  -30.8860   28.8120 C.ar   25  TYR25      -0.0200
     41  CD1       47.0500  -30.7880   27.4220 C.ar   25  TYR25      -0.0009
     42  CD2       48.2540  -31.2680   29.4260 C.ar   25  TYR25      -0.0009
     43  CE1       48.1760  -31.0630   26.6730 C.ar   25  TYR25       0.0417
     44  CE2       49.3850  -31.5400   28.6900 C.ar   25  TYR25       0.0417
     45  CZ        49.3430  -31.4430   27.3120 C.ar   25  TYR25       0.1957
     46  OH        50.4780  -31.7210   26.5770 O.3    25  TYR25      -0.2866
     47  N         44.1690  -31.6340   32.3090 N.am   26  GLY26      -0.1942
     48  CA        43.2190  -31.2560   33.3290 C.3    26  GLY26       0.2014
     49  C         42.2090  -32.3460   33.6090 C.2    26  GLY26       0.2639
     50  O         41.3860  -32.2140   34.5180 O.2    26  GLY26      -0.2714
     51  N         42.2670  -33.4250   32.8350 N.am   27  VAL27      -0.1963
     52  CA        41.3740  -34.5560   33.0390 C.3    27  VAL27       0.1727
     53  C         42.0100  -35.5420   34.0090 C.2    27  VAL27       0.2616
     54  O         43.1670  -35.9550   33.8500 O.2    27  VAL27      -0.2715
     55  CB        41.0400  -35.2690   31.7110 C.3    27  VAL27       0.0290
     56  CG1       40.1970  -36.5210   31.9700 C.3    27  VAL27       0.0023
     57  CG2       40.2930  -34.3130   30.7750 C.3    27  VAL27       0.0023
     58  N         41.2790  -35.8400   35.0830 N.am   28  ASN28      -0.1972
     59  CA        41.6950  -36.8480   36.0510 C.3    28  ASN28       0.1688
     60  C         41.7320  -38.2820   35.5460 C.2    28  ASN28       0.2292
     61  O         42.6550  -39.0200   35.8190 O.2    28  ASN28      -0.2864
     62  CB        40.8800  -36.7530   37.3450 C.3    28  ASN28       0.1181
     63  CG        39.4380  -36.4140   37.1040 C.2    28  ASN28       0.2629
     64  OD1       38.6560  -37.2630   36.7030 O.2    28  ASN28      -0.2716
     65  ND2       39.0720  -35.1720   37.3630 N.am   28  ASN28      -0.0877
     66  N         45.9520  -41.4030   32.4890 N.3    74  LEU74      -0.1245
     67  CA        47.0040  -40.5410   33.0210 C.3    74  LEU74       0.1561
     68  C         48.2740  -41.2860   33.4570 C.2    74  LEU74       0.2260
     69  O         48.2170  -42.3260   34.1240 O.2    74  LEU74      -0.2867
     70  CB        46.4330  -39.7630   34.2070 C.3    74  LEU74       0.0270
     71  CG        47.3210  -38.6970   34.8150 C.3    74  LEU74       0.0019
     72  CD1       47.4460  -37.4830   33.8950 C.3    74  LEU74       0.0001
     73  CD2       46.7280  -38.3240   36.1050 C.3    74  LEU74       0.0001
     74  N         49.4020  -36.3700   30.2360 N.3    79  PRO79      -0.2116
     75  CA        47.9770  -36.4160   30.5780 C.3    79  PRO79       0.1372
     76  C         47.2780  -37.6140   29.9270 C.2    79  PRO79       0.2244
     77  O         47.9290  -38.3670   29.1970 O.2    79  PRO79      -0.2868
     78  CB        47.4410  -35.0960   30.0220 C.3    79  PRO79       0.0268
     79  CG        48.3570  -34.7850   28.8850 C.3    79  PRO79       0.0207
     80  CD        49.7010  -35.2420   29.3270 C.3    79  PRO79       0.0892
@<TRIPOS>BOND
     1    30    31    2
     2    30    29    1
     3    33    32    1
     4    29    32    1
     5    29    28    1
     6    32    34    1
     7    27    26   ar
     8    27    25   ar
     9    26    24   ar
    10    25    23   ar
    11    24    23   ar
    12    46    45    1
    13    43    45   ar
    14    43    41   ar
    15    23    22    1
    16    20    21    2
    17    20    19    1
    18    45    44   ar
    19    41    40   ar
    20    19    22    1
    21    19    18    1
    22    44    42   ar
    23    40    42   ar
    24    40    39    1
    25    79    80    1
    26    79    78    1
    27    35    36    1
    28    18    12   am
    29    77    76    2
    30    80    74    1
    31    13    12    2
    32    16    14    1
    33    39    36    1
    34    12    11    1
    35    76    75    1
    36    78    75    1
    37    36    37    1
    38    74    75    1
    39    38    37    2
    40    14    11    1
    41    14    15    1
    42    57    55    1
    43    37    47   am
    44    11    10    1
    45    55    56    1
    46    55    52    1
    47    17    15    1
    48     8     7    2
    49    10     3   am
    50    47    48    1
    51     4     3    2
    52     9     7   am
    53    66    67    1
    54     7     6    1
    55     3     2    1
    56    51    52    1
    57    51    49   am
    58    67    68    1
    59    67    70    1
    60    52    53    1
    61    48    49    1
    62    68    69    2
    63    49    50    2
    64     5     6    1
    65     5     2    1
    66     2     1    1
    67    54    53    2
    68    72    71    1
    69    53    58   am
    70    70    71    1
    71    71    73    1
    72    58    59    1
    73    60    61    2
    74    60    59    1
    75    59    62    1
    76    64    63    2
    77    63    62    1
    78    63    65   am
