@<TRIPOS>MOLECULE
tmp/4p9hB03.pdb
 162 157 0 0 0
SMALL
GASTEIGER

@<TRIPOS>ATOM
      1  N         37.8620  -48.4980   80.3040 N.3    19  GLU19      -0.1231
      2  CA        39.2120  -48.3790   79.7830 C.3    19  GLU19       0.1699
      3  C         39.7640  -46.9760   79.9920 C.2    19  GLU19       0.2593
      4  O         39.0410  -45.9840   79.9150 O.2    19  GLU19      -0.2718
      5  CB        39.2500  -48.7510   78.3020 C.3    19  GLU19       0.0402
      6  CG        39.9640  -50.0650   78.0080 C.3    19  GLU19       0.1161
      7  CD        41.3870  -50.0750   78.5080 C.2    19  GLU19       0.3649
      8  OE1       41.9330  -51.1760   78.7170 O.co2  19  GLU19      -0.2457
      9  OE2       41.9540  -48.9790   78.7020 O.co2  19  GLU19      -0.2457
     10  N         41.0570  -46.9170   80.2700 N.am   20  THR20      -0.1939
     11  CA        41.7470  -45.6610   80.5430 C.3    20  THR20       0.2028
     12  C         42.4270  -45.1470   79.2770 C.2    20  THR20       0.2642
     13  O         42.8220  -43.9760   79.1750 O.2    20  THR20      -0.2714
     14  CB        42.8120  -45.8390   81.6400 C.3    20  THR20       0.1808
     15  OG1       43.8740  -46.6580   81.1330 O.3    20  THR20      -0.2208
     16  CG2       42.2230  -46.5010   82.8600 C.3    20  THR20       0.0379
     17  N         42.5770  -46.0500   78.3190 N.am   21  GLU21      -0.1976
     18  CA        43.2130  -45.7220   77.0590 C.3    21  GLU21       0.1602
     19  C         42.4160  -44.6380   76.3530 C.2    21  GLU21       0.2287
     20  O         41.2240  -44.7980   76.0970 O.2    21  GLU21      -0.2864
     21  CB        43.3350  -46.9680   76.1960 C.3    21  GLU21       0.0415
     22  CG        44.2380  -46.7670   75.0130 C.3    21  GLU21       0.1163
     23  CD        43.5540  -46.0560   73.8700 C.2    21  GLU21       0.3649
     24  OE1       42.3210  -46.2190   73.7240 O.co2  21  GLU21      -0.2457
     25  OE2       44.2510  -45.3260   73.1280 O.co2  21  GLU21      -0.2457
     26  N         48.0220  -44.0310   78.4760 N.3    93  SER93      -0.1202
     27  CA        48.0290  -45.2350   77.6590 C.3    93  SER93       0.2020
     28  C         47.3440  -45.0100   76.3080 C.2    93  SER93       0.2619
     29  O         46.1800  -44.6140   76.2590 O.2    93  SER93      -0.2717
     30  CB        47.2660  -46.3670   78.3470 C.3    93  SER93       0.2103
     31  OG        46.0450  -45.8830   78.8690 O.3    93  SER93      -0.2182
     32  N         48.0550  -45.2690   75.2140 N.am   94  PHE94      -0.1961
     33  CA        47.6690  -44.7810   73.8920 C.3    94  PHE94       0.1771
     34  C         47.7850  -45.8590   72.8250 C.2    94  PHE94       0.2620
     35  O         48.8310  -46.0020   72.2030 O.2    94  PHE94      -0.2715
     36  CB        48.5460  -43.6010   73.5390 C.3    94  PHE94       0.0574
     37  CG        48.0200  -42.7510   72.4520 C.ar   94  PHE94      -0.0200
     38  CD1       47.0210  -41.8450   72.7070 C.ar   94  PHE94      -0.0042
     39  CD2       48.5610  -42.8110   71.1810 C.ar   94  PHE94      -0.0042
     40  CE1       46.5470  -41.0220   71.7150 C.ar   94  PHE94      -0.0003
     41  CE2       48.1050  -41.9910   70.1990 C.ar   94  PHE94      -0.0003
     42  CZ        47.0860  -41.0900   70.4680 C.ar   94  PHE94      -0.0000
     43  N         46.7120  -46.6160   72.6190 N.am   95  ASP95      -0.1958
     44  CA        46.6700  -47.6290   71.5720 C.3    95  ASP95       0.1825
     45  C         45.3970  -47.4830   70.7200 C.2    95  ASP95       0.2464
     46  O         44.3050  -47.8040   71.1810 O.2    95  ASP95      -0.2730
     47  CB        46.7270  -49.0150   72.1910 C.3    95  ASP95       0.1450
     48  CG        46.8480  -50.0990   71.1660 C.2    95  ASP95       0.3671
     49  OD1       47.4480  -49.8410   70.0930 O.co2  95  ASP95      -0.2456
     50  OD2       46.3450  -51.2090   71.4340 O.co2  95  ASP95      -0.2456
     51  N         45.5320  -47.0080   69.4670 N.am   96  PRO96      -0.2727
     52  CA        44.3700  -46.7010   68.6220 C.3    96  PRO96       0.1402
     53  C         43.3830  -47.8480   68.4720 C.2    96  PRO96       0.2269
     54  O         43.8090  -48.9780   68.2060 O.2    96  PRO96      -0.2865
     55  CB        45.0120  -46.3800   67.2690 C.3    96  PRO96       0.0296
     56  CG        46.3890  -45.9340   67.6100 C.3    96  PRO96       0.0237
     57  CD        46.7980  -46.7780   68.7470 C.3    96  PRO96       0.0939
     58  N         41.4690  -47.7800   62.2100 N.3   136  LYS136     -0.1245
     59  CA        42.3060  -47.2830   63.2910 C.3   136  LYS136      0.1561
     60  C         42.8030  -45.9170   62.8460 C.2   136  LYS136      0.2260
     61  O         43.2470  -45.7500   61.7110 O.2   136  LYS136     -0.2867
     62  CB        43.4930  -48.2060   63.6060 C.3   136  LYS136      0.0271
     63  CG        43.1130  -49.6070   64.0580 C.3   136  LYS136      0.0035
     64  CD        44.3390  -50.5070   64.0870 C.3   136  LYS136      0.0206
     65  CE        43.9830  -51.9810   64.3070 C.3   136  LYS136      0.1093
     66  NZ        45.1950  -52.8860   64.2810 N.3   136  LYS136     -0.1314
     67  N         45.4700  -44.3940   62.9900 N.3   138  VAL138     -0.1231
     68  CA        46.9090  -44.4230   63.1570 C.3   138  VAL138      0.1692
     69  C         47.5290  -43.2700   62.3920 C.2   138  VAL138      0.2591
     70  O         47.3970  -43.1910   61.1790 O.2   138  VAL138     -0.2718
     71  CB        47.5030  -45.7370   62.6690 C.3   138  VAL138      0.0266
     72  CG1       49.0280  -45.7040   62.7800 C.3   138  VAL138      0.0020
     73  CG2       46.9410  -46.8900   63.4760 C.3   138  VAL138      0.0020
     74  N         48.1900  -42.3740   63.1170 N.am  139  VAL139     -0.1980
     75  CA        48.8990  -41.2460   62.5210 C.3   139  VAL139      0.1595
     76  C         50.3750  -41.5650   62.2830 C.2   139  VAL139      0.2287
     77  O         51.1270  -41.7200   63.2480 O.2   139  VAL139     -0.2864
     78  CB        48.8010  -40.0190   63.4280 C.3   139  VAL139      0.0276
     79  CG1       49.5810  -38.8360   62.8340 C.3   139  VAL139      0.0022
     80  CG2       47.3360  -39.6640   63.6590 C.3   139  VAL139      0.0022
     81  N         50.8720  -47.7140   58.8210 N.3   145  LEU145     -0.1231
     82  CA        50.8930  -48.8340   59.7520 C.3   145  LEU145      0.1693
     83  C         49.5060  -49.2640   60.2040 C.2   145  LEU145      0.2592
     84  O         48.6340  -48.4320   60.4590 O.2   145  LEU145     -0.2718
     85  CB        51.7310  -48.4630   60.9660 C.3   145  LEU145      0.0284
     86  CG        53.1460  -48.0170   60.6080 C.3   145  LEU145      0.0019
     87  CD1       53.7950  -47.4600   61.8250 C.3   145  LEU145      0.0001
     88  CD2       53.9580  -49.1690   60.0510 C.3   145  LEU145      0.0001
     89  N         49.3300  -50.5750   60.3150 N.am  146  ASN146     -0.1974
     90  CA        48.1100  -51.1690   60.8510 C.3   146  ASN146      0.1688
     91  C         46.8710  -50.8730   60.0290 C.2   146  ASN146      0.2292
     92  O         45.7570  -50.9640   60.5290 O.2   146  ASN146     -0.2864
     93  CB        47.8850  -50.6930   62.2890 C.3   146  ASN146      0.1181
     94  CG        48.7690  -51.4110   63.2850 C.2   146  ASN146      0.2629
     95  OD1       49.3030  -52.4910   63.0270 O.2   146  ASN146     -0.2716
     96  ND2       48.9110  -50.8030   64.4530 N.am  146  ASN146     -0.0877
     97  N         55.9220  -41.5830   64.0460 N.3   236  PHE236     -0.1227
     98  CA        54.7280  -42.2560   64.5490 C.3   236  PHE236      0.1736
     99  C         54.6810  -42.2330   66.0740 C.2   236  PHE236      0.2595
    100  O         55.7120  -42.0950   66.7240 O.2   236  PHE236     -0.2718
    101  CB        54.6650  -43.7090   64.0670 C.3   236  PHE236      0.0547
    102  CG        55.8340  -44.5450   64.5000 C.ar  236  PHE236     -0.0202
    103  CD1       55.8310  -45.1910   65.7260 C.ar  236  PHE236     -0.0042
    104  CD2       56.9270  -44.7020   63.6690 C.ar  236  PHE236     -0.0042
    105  CE1       56.9160  -45.9760   66.1180 C.ar  236  PHE236     -0.0003
    106  CE2       58.0070  -45.4780   64.0470 C.ar  236  PHE236     -0.0003
    107  CZ        58.0020  -46.1180   65.2780 C.ar  236  PHE236     -0.0000
    108  N         53.4890  -42.3600   66.6450 N.am  237  ASN237     -0.1974
    109  CA        53.3500  -42.2940   68.0890 C.3   237  ASN237      0.1688
    110  C         53.2300  -43.6890   68.6820 C.2   237  ASN237      0.2292
    111  O         52.4130  -44.4870   68.2440 O.2   237  ASN237     -0.2864
    112  CB        52.1450  -41.4480   68.4990 C.3   237  ASN237      0.1181
    113  CG        52.1050  -41.1880   70.0230 C.2   237  ASN237      0.2629
    114  OD1       51.6830  -42.0520   70.8000 O.2   237  ASN237     -0.2716
    115  ND2       52.5790  -40.0070   70.4510 N.am  237  ASN237     -0.0877
    116  N         52.7630  -45.5080   72.4170 N.3   239  ARG239     -0.1245
    117  CA        52.5580  -45.4110   73.8670 C.3   239  ARG239      0.1563
    118  C         52.5730  -43.9610   74.3490 C.2   239  ARG239      0.2260
    119  O         52.8630  -43.7000   75.5110 O.2   239  ARG239     -0.2867
    120  CB        53.6300  -46.2060   74.6240 C.3   239  ARG239      0.0307
    121  CG        53.7270  -47.6910   74.2510 C.3   239  ARG239      0.0489
    122  CD        52.8100  -48.5660   75.0910 C.3   239  ARG239      0.2205
    123  NE        53.0430  -48.3790   76.5220 N.pl3 239  ARG239     -0.0865
    124  CZ        54.0110  -48.9720   77.2220 C.cat 239  ARG239      0.5346
    125  NH1       54.8490  -49.8160   76.6370 N.pl3 239  ARG239      0.1354
    126  NH2       54.1430  -48.7180   78.5170 N.pl3 239  ARG239      0.1354
    127  N         57.6540  -50.9080   73.4470 N.3   291  ASN291     -0.1225
    128  CA        57.6650  -51.6970   72.2120 C.3   291  ASN291      0.1785
    129  C         56.3420  -51.6200   71.4750 C.2   291  ASN291      0.2597
    130  O         55.2830  -51.9430   72.0210 O.2   291  ASN291     -0.2718
    131  CB        57.9930  -53.1620   72.5170 C.3   291  ASN291      0.1169
    132  CG        58.0370  -54.0260   71.2710 C.2   291  ASN291      0.2627
    133  OD1       58.4290  -53.5640   70.2030 O.2   291  ASN291     -0.2716
    134  ND2       57.6440  -55.2910   71.4050 N.am  291  ASN291     -0.0877
    135  N         56.4190  -51.1760   70.2290 N.am  292  CYS292     -0.1956
    136  CA        55.3050  -51.2170   69.3060 C.3   292  CYS292      0.1843
    137  C         55.7270  -52.0630   68.1300 C.2   292  CYS292      0.2625
    138  O         56.6920  -51.7330   67.4380 O.2   292  CYS292     -0.2714
    139  CB        54.9180  -49.8160   68.8480 C.3   292  CYS292      0.0997
    140  SG        53.8380  -48.9550   69.9890 S.3   292  CYS292     -0.0797
    141  N         55.0240  -53.1760   67.9400 N.am  293  VAL293     -0.1963
    142  CA        55.1860  -54.0090   66.7510 C.3   293  VAL293      0.1727
    143  C         54.0100  -53.8220   65.8100 C.2   293  VAL293      0.2617
    144  O         52.9170  -54.3330   66.0460 O.2   293  VAL293     -0.2715
    145  CB        55.3010  -55.4900   67.1100 C.3   293  VAL293      0.0290
    146  CG1       55.4620  -56.3340   65.8330 C.3   293  VAL293      0.0023
    147  CG2       56.4720  -55.6890   68.0680 C.3   293  VAL293      0.0023
    148  N         54.2560  -53.1010   64.7280 N.am  294  SER294     -0.1936
    149  CA        53.2140  -52.7560   63.7840 C.3   294  SER294      0.2055
    150  C         53.3940  -53.4990   62.4700 C.2   294  SER294      0.2642
    151  O         54.4660  -54.0310   62.1930 O.2   294  SER294     -0.2714
    152  CB        53.2210  -51.2470   63.5510 C.3   294  SER294      0.2130
    153  OG        53.2070  -50.5620   64.7990 O.3   294  SER294     -0.2179
    154  N         52.3220  -53.5500   61.6870 N.am  295  GLN295     -0.1976
    155  CA        52.3460  -54.1450   60.3730 C.3   295  GLN295      0.1601
    156  C         52.3430  -53.0460   59.3140 C.2   295  GLN295      0.2287
    157  O         51.3920  -52.2700   59.2130 O.2   295  GLN295     -0.2864
    158  CB        51.1540  -55.0840   60.1770 C.3   295  GLN295      0.0394
    159  CG        51.2000  -56.3350   61.0380 C.3   295  GLN295      0.0908
    160  CD        49.9710  -57.2040   60.8720 C.2   295  GLN295      0.2608
    161  OE1       48.9030  -56.7160   60.5000 O.2   295  GLN295     -0.2717
    162  NE2       50.1170  -58.4970   61.1440 N.am  295  GLN295     -0.0878
@<TRIPOS>BOND
     1    81    82    1
     2   157   156    2
     3   156   155    1
     4    82    83    1
     5    82    85    1
     6    91    92    2
     7    91    90    1
     8    88    86    1
     9   158   155    1
    10   158   159    1
    11    83    89   am
    12    83    84    2
    13    89    90    1
    14   155   154    1
    15   161   160    2
    16    86    85    1
    17    86    87    1
    18    90    93    1
    19   160   159    1
    20   160   162   am
    21    70    69    2
    22   154   150   am
    23    61    60    2
    24   151   150    2
    25    58    59    1
    26    76    75    1
    27    76    77    2
    28    93    94    1
    29    69    74   am
    30    69    68    1
    31   150   149    1
    32    75    74    1
    33    75    78    1
    34    71    72    1
    35    71    68    1
    36    71    73    1
    37    79    78    1
    38    60    59    1
    39    67    68    1
    40    95    94    2
    41    94    96   am
    42    59    62    1
    43    78    80    1
    44   152   149    1
    45   152   153    1
    46    62    63    1
    47   104   106   ar
    48   104   102   ar
    49   149   148    1
    50    97    98    1
    51   106   107   ar
    52    63    64    1
    53   101   102    1
    54   101    98    1
    55    64    65    1
    56    66    65    1
    57   102   103   ar
    58    98    99    1
    59   148   143   am
    60   107   105   ar
    61   103   105   ar
    62   143   144    2
    63   143   142    1
    64   146   145    1
    65    99   108   am
    66    99   100    2
    67   108   109    1
    68   142   145    1
    69   142   141    1
    70   145   147    1
    71    55    56    1
    72    55    52    1
    73   138   137    2
    74    56    57    1
    75   141   137   am
    76   109   112    1
    77   109   110    1
    78   137   136    1
    79    54    53    2
    80   111   110    2
    81    53    52    1
    82   112   113    1
    83    52    51    1
    84    57    51    1
    85   139   136    1
    86   139   140    1
    87   136   135    1
    88    51    45   am
    89   113   115   am
    90   113   114    2
    91    49    48   ar
    92    41    42   ar
    93    41    39   ar
    94   133   132    2
    95   135   129   am
    96    42    40   ar
    97    45    46    2
    98    45    44    1
    99    48    50   ar
   100    48    47    1
   101    39    37   ar
   102   132   134   am
   103   132   131    1
   104   129   130    2
   105   129   128    1
   106    44    47    1
   107    44    43    1
   108    40    38   ar
   109    35    34    2
   110   128   131    1
   111   128   127    1
   112   116   117    1
   113    37    38   ar
   114    37    36    1
   115    43    34   am
   116    34    33    1
   117    25    23   ar
   118    36    33    1
   119    24    23   ar
   120   117   118    1
   121   117   120    1
   122    23    22    1
   123    33    32    1
   124   121   120    1
   125   121   122    1
   126   118   119    2
   127    22    21    1
   128   122   123    1
   129    32    28   am
   130    20    19    2
   131    21    18    1
   132    29    28    2
   133    28    27    1
   134    19    18    1
   135   123   124    2
   136   125   124    1
   137    18    17    1
   138   124   126    1
   139    27    30    1
   140    27    26    1
   141     6     5    1
   142     6     7    1
   143     5     2    1
   144    17    12   am
   145    30    31    1
   146     7     9   ar
   147     7     8   ar
   148    13    12    2
   149    12    11    1
   150     2     3    1
   151     2     1    1
   152     4     3    2
   153     3    10   am
   154    10    11    1
   155    11    14    1
   156    15    14    1
   157    14    16    1
