@<TRIPOS>MOLECULE
tmp/4p9vA00.pdb
 132 127 0 0 0
SMALL
GASTEIGER

@<TRIPOS>ATOM
      1  N          7.4060  -16.8560   -8.6840 N.3    14  ARG14      -0.1245
      2  CA         6.5860  -16.1550   -7.7110 C.3    14  ARG14       0.1563
      3  C          5.1230  -16.3540   -7.9930 C.2    14  ARG14       0.2260
      4  O          4.3370  -16.6040   -7.0750 O.2    14  ARG14      -0.2867
      5  CB         6.9150  -14.6660   -7.7430 C.3    14  ARG14       0.0307
      6  CG         6.0890  -13.8130   -6.7850 C.3    14  ARG14       0.0489
      7  CD         6.4100  -12.3650   -7.1220 C.3    14  ARG14       0.2205
      8  NE         5.5830  -11.4640   -6.3100 N.pl3  14  ARG14      -0.0865
      9  CZ         6.0070  -10.7590   -5.2460 C.cat  14  ARG14       0.5346
     10  NH1        7.2700  -10.7960   -4.8320 N.pl3  14  ARG14       0.1354
     11  NH2        5.1400   -9.9690   -4.6140 N.pl3  14  ARG14       0.1354
     12  N         10.9820  -20.7880   -1.8340 N.3    33  ARG33      -0.1245
     13  CA        11.3620  -20.9580   -3.2220 C.3    33  ARG33       0.1563
     14  C         12.6500  -20.1580   -3.4940 C.2    33  ARG33       0.2260
     15  O         13.1250  -19.3080   -2.6800 O.2    33  ARG33      -0.2867
     16  CB        10.2470  -20.4160   -4.1520 C.3    33  ARG33       0.0307
     17  CG         9.8520  -18.9540   -3.8940 C.3    33  ARG33       0.0489
     18  CD         8.6320  -18.5170   -4.7130 C.3    33  ARG33       0.2205
     19  NE         8.1860  -17.1970   -4.3130 N.pl3  33  ARG33      -0.0865
     20  CZ         8.7640  -16.0380   -4.6600 C.cat  33  ARG33       0.5346
     21  NH1        9.7780  -16.0030   -5.5340 N.pl3  33  ARG33       0.1354
     22  NH2        8.3400  -14.8710   -4.1830 N.pl3  33  ARG33       0.1354
     23  N         14.3910  -17.4680   -5.5730 N.3    35  SER35      -0.1202
     24  CA        13.9510  -16.2750   -6.3270 C.3    35  SER35       0.2020
     25  C         14.4690  -16.3420   -7.7580 C.2    35  SER35       0.2619
     26  O         15.6290  -16.7100   -7.9550 O.2    35  SER35      -0.2717
     27  CB        14.5040  -15.0170   -5.7030 C.3    35  SER35       0.2103
     28  OG        14.0070  -13.8920   -6.3650 O.3    35  SER35      -0.2182
     29  N         13.5980  -16.0320   -8.6930 N.am   36  GLU36      -0.1965
     30  CA        14.0290  -15.7890  -10.0650 C.3    36  GLU36       0.1733
     31  C         14.5880  -14.3650  -10.2770 C.2    36  GLU36       0.2617
     32  O         15.5060  -14.1630  -11.1180 O.2    36  GLU36      -0.2715
     33  CB        12.8460  -16.0650  -10.9500 C.3    36  GLU36       0.0429
     34  CG        12.4850  -17.5280  -10.9070 C.3    36  GLU36       0.1163
     35  CD        11.5200  -17.9070  -11.9890 C.2    36  GLU36       0.3649
     36  OE1       11.8320  -18.8430  -12.7170 O.co2  36  GLU36      -0.2457
     37  OE2       10.4880  -17.2510  -12.1930 O.co2  36  GLU36      -0.2457
     38  N         14.0400  -13.3950   -9.5860 N.am   37  SER37      -0.1950
     39  CA        14.4420  -11.9930   -9.7730 C.3    37  SER37       0.1924
     40  C         15.7740  -11.7340   -9.0940 C.2    37  SER37       0.2314
     41  O         16.5140  -10.8180   -9.4800 O.2    37  SER37      -0.2863
     42  CB        13.3550  -11.0310   -9.2910 C.3    37  SER37       0.2116
     43  OG        13.2220  -11.1230   -7.8890 O.3    37  SER37      -0.2180
     44  N         13.1120  -16.7930   -1.2730 N.3    43  SER43      -0.1217
     45  CA        11.8990  -16.0560   -0.9190 C.3    43  SER43       0.1889
     46  C         10.9460  -16.9720   -0.2080 C.2    43  SER43       0.2288
     47  O         10.8890  -18.1840   -0.4890 O.2    43  SER43      -0.2866
     48  CB        11.2270  -15.5400   -2.1960 C.3    43  SER43       0.2089
     49  OG        12.1230  -14.6060   -2.8600 O.3    43  SER43      -0.2183
     50  N          1.4550  -13.3960    0.7170 N.3    53  GLN53      -0.1231
     51  CA         2.4410  -12.4270    1.0320 C.3    53  GLN53       0.1698
     52  C          3.7950  -13.0620    0.7110 C.2    53  GLN53       0.2592
     53  O          4.0500  -14.2630    0.9690 O.2    53  GLN53      -0.2718
     54  CB         2.4170  -12.0900    2.5420 C.3    53  GLN53       0.0381
     55  CG         1.1260  -11.3920    2.9530 C.3    53  GLN53       0.0905
     56  CD         1.0290  -10.9530    4.3850 C.2    53  GLN53       0.2608
     57  OE1       -0.0580  -10.4640    4.8230 O.2    53  GLN53      -0.2717
     58  NE2        2.1200  -11.0370    5.1190 N.am   53  GLN53      -0.0878
     59  N          4.6980  -12.2240    0.2180 N.am   54  HIS54      -0.1962
     60  CA         6.0760  -12.6490   -0.0730 C.3    54  HIS54       0.1787
     61  C          7.1290  -11.9640    0.7620 C.2    54  HIS54       0.2620
     62  O          7.0530  -10.7450    0.9330 O.2    54  HIS54      -0.2715
     63  CB         6.3800  -12.4150   -1.5470 C.3    54  HIS54       0.0785
     64  CG         5.3750  -13.0860   -2.4500 C.ar   54  HIS54       0.0821
     65  ND1        5.5400  -14.3540   -2.8730 N.ar   54  HIS54      -0.2267
     66  CD2        4.1830  -12.6430   -3.0060 C.ar   54  HIS54       0.1154
     67  CE1        4.5350  -14.7200   -3.6580 C.ar   54  HIS54       0.1986
     68  NE2        3.6730  -13.6630   -3.7320 N.ar   54  HIS54      -0.2212
     69  N          8.0830  -12.7080    1.3420 N.am   55  PHE55      -0.1960
     70  CA         9.1720  -12.0950    2.0860 C.3    55  PHE55       0.1771
     71  C         10.5070  -12.4990    1.4900 C.2    55  PHE55       0.2619
     72  O         10.7010  -13.6460    1.0430 O.2    55  PHE55      -0.2715
     73  CB         9.1790  -12.6760    3.5040 C.3    55  PHE55       0.0574
     74  CG         7.8750  -12.4720    4.2770 C.ar   55  PHE55      -0.0200
     75  CD1        6.7520  -13.2470    4.0180 C.ar   55  PHE55      -0.0042
     76  CD2        7.8100  -11.4610    5.2240 C.ar   55  PHE55      -0.0042
     77  CE1        5.5360  -13.0210    4.6710 C.ar   55  PHE55      -0.0003
     78  CE2        6.6080  -11.2170    5.8720 C.ar   55  PHE55      -0.0003
     79  CZ         5.5000  -11.9850    5.6010 C.ar   55  PHE55      -0.0000
     80  N         11.4670  -11.5780    1.4960 N.am   56  LYS56      -0.1977
     81  CA        12.8440  -11.9160    1.1190 C.3    56  LYS56       0.1596
     82  C         13.4580  -12.6810    2.2840 C.2    56  LYS56       0.2287
     83  O         13.3200  -12.2520    3.4110 O.2    56  LYS56      -0.2864
     84  CB        13.6280  -10.6480    1.0290 C.3    56  LYS56       0.0298
     85  CG        13.1530   -9.7640   -0.0650 C.3    56  LYS56       0.0038
     86  CD        14.1500   -8.5800   -0.1330 C.3    56  LYS56       0.0206
     87  CE        13.9470   -7.5320    0.9770 C.3    56  LYS56       0.1093
     88  NZ        14.7760   -6.2880    0.6690 N.3    56  LYS56      -0.1314
     89  N         16.6940  -12.8420    3.9150 N.3    58  LEU58      -0.1245
     90  CA        17.9030  -12.0640    3.9460 C.3    58  LEU58       0.1561
     91  C         19.0630  -12.8140    4.5660 C.2    58  LEU58       0.2260
     92  O         18.8970  -13.7440    5.3130 O.2    58  LEU58      -0.2867
     93  CB        17.6420  -10.7860    4.7630 C.3    58  LEU58       0.0270
     94  CG        16.4500   -9.9560    4.2230 C.3    58  LEU58       0.0019
     95  CD1       15.9730   -8.8640    5.1720 C.3    58  LEU58       0.0001
     96  CD2       16.8710   -9.3870    2.8840 C.3    58  LEU58       0.0001
     97  N         14.4170  -12.9810    8.4000 N.3    67  LEU67      -0.1231
     98  CA        13.4020  -12.1300    7.7490 C.3    67  LEU67       0.1693
     99  C         13.4530  -10.7010    8.2660 C.2    67  LEU67       0.2592
    100  O         13.3090   -9.7660    7.4860 O.2    67  LEU67      -0.2718
    101  CB        12.0160  -12.6780    7.9920 C.3    67  LEU67       0.0284
    102  CG        11.7330  -14.1080    7.5220 C.3    67  LEU67       0.0019
    103  CD1       10.3220  -14.5250    7.9470 C.3    67  LEU67       0.0001
    104  CD2       12.0880  -14.2320    6.0210 C.3    67  LEU67       0.0001
    105  N         13.6040  -10.5750    9.6080 N.am   68  TRP68      -0.1976
    106  CA        13.5560   -9.2480   10.2370 C.3    68  TRP68       0.1640
    107  C         14.7500   -8.9980   11.0970 C.2    68  TRP68       0.2290
    108  O         15.5540   -8.1610   10.7010 O.2    68  TRP68      -0.2864
    109  CB        12.3080   -9.0310   11.0720 C.3    68  TRP68       0.0576
    110  CG        11.0210   -9.1120   10.2690 C.ar   68  TRP68       0.0006
    111  CD1       10.1430  -10.1410   10.2460 C.ar   68  TRP68       0.0946
    112  CD2       10.4540   -8.0940    9.3710 C.ar   68  TRP68       0.0152
    113  NE1        9.0730   -9.8590    9.4430 N.ar   68  TRP68      -0.2442
    114  CE2        9.1830   -8.6430    8.8980 C.ar   68  TRP68       0.0810
    115  CE3       10.8320   -6.8410    8.9560 C.ar   68  TRP68       0.0012
    116  CZ2        8.3490   -7.9350    8.0270 C.ar   68  TRP68       0.0191
    117  CZ3        9.9810   -6.1160    8.0700 C.ar   68  TRP68       0.0001
    118  CH2        8.7330   -6.6770    7.6430 C.ar   68  TRP68       0.0015
    119  N          4.9470  -11.6650   10.0720 N.3    88  SER88      -0.1273
    120  CA         4.5010  -10.3550    9.6400 C.3    88  SER88       0.1575
    121  C          4.5280   -9.3720   10.8060 C.3    88  SER88       0.2036
    122  O          4.2760   -9.8060   11.9980 O.3    88  SER88      -0.2187
    123  CB         3.0750  -10.5060    9.0940 C.3    88  SER88       0.2036
    124  OG         2.3650   -9.2840    8.9040 O.3    88  SER88      -0.2187
    125  N          2.3860   -6.8070   10.4590 N.3    90  ASN90      -0.1240
    126  CA         1.0710   -6.2210   10.4230 C.3    90  ASN90       0.1653
    127  C         -0.0420   -7.1530   10.8470 C.2    90  ASN90       0.2266
    128  O         -1.1850   -6.6830   11.1250 O.2    90  ASN90      -0.2867
    129  CB         0.7260   -5.7460    9.0220 C.3    90  ASN90       0.1155
    130  CG         1.6600   -4.6900    8.5440 C.2    90  ASN90       0.2627
    131  OD1        2.1700   -3.8990    9.3300 O.2    90  ASN90      -0.2716
    132  ND2        1.8700   -4.6610    7.2120 N.am   90  ASN90      -0.0877
@<TRIPOS>BOND
     1    36    35   ar
     2    37    35   ar
     3    35    34    1
     4    32    31    2
     5    33    34    1
     6    33    30    1
     7    31    30    1
     8    31    38   am
     9    30    29    1
    10    39    38    1
    11    39    42    1
    12    39    40    1
    13    41    40    2
    14    42    43    1
    15    29    25   am
    16     1     2    1
    17     3     2    1
    18     3     4    2
    19    26    25    2
    20    25    24    1
    21     5     2    1
    22     5     6    1
    23     7     6    1
    24     7     8    1
    25    28    27    1
    26    24    27    1
    27    24    23    1
    28     8     9    2
    29    21    20    1
    30     9    10    1
    31     9    11    1
    32    18    19    1
    33    18    17    1
    34    20    19    2
    35    20    22    1
    36    16    17    1
    37    16    13    1
    38    68    67   ar
    39    68    66   ar
    40    67    65   ar
    41    14    13    1
    42    14    15    2
    43    13    12    1
    44    66    64   ar
    45    65    64   ar
    46    49    48    1
    47    64    63    1
    48    48    45    1
    49    63    60    1
    50    44    45    1
    51    45    46    1
    52    47    46    2
    53    86    85    1
    54    86    87    1
    55    60    59    1
    56    60    61    1
    57    85    84    1
    58    59    52   am
    59    88    87    1
    60    52    53    2
    61    52    51    1
    62    50    51    1
    63    61    62    2
    64    61    69   am
    65    84    81    1
    66    51    54    1
    67    72    71    2
    68    81    80    1
    69    81    82    1
    70    69    70    1
    71    71    80   am
    72    71    70    1
    73    70    73    1
    74    82    83    2
    75    54    55    1
    76    96    94    1
    77    55    56    1
    78    73    74    1
    79    89    90    1
    80    90    91    1
    81    90    93    1
    82    75    74   ar
    83    75    77   ar
    84    94    93    1
    85    94    95    1
    86    74    76   ar
    87    56    57    2
    88    56    58   am
    89    91    92    2
    90    77    79   ar
    91    76    78   ar
    92    79    78   ar
    93   104   102    1
    94   132   130   am
    95   100    99    2
    96   102   103    1
    97   102   101    1
    98   118   116   ar
    99   118   117   ar
   100    98   101    1
   101    98    99    1
   102    98    97    1
   103   116   114   ar
   104   117   115   ar
   105    99   105   am
   106   130   129    1
   107   130   131    2
   108   114   112   ar
   109   114   113   ar
   110   124   123    1
   111   115   112   ar
   112   129   126    1
   113   123   120    1
   114   112   110   ar
   115   113   111   ar
   116   105   106    1
   117   120   119    1
   118   120   121    1
   119   106   109    1
   120   106   107    1
   121   111   110   ar
   122   110   109    1
   123   126   125    1
   124   126   127    1
   125   108   107    2
   126   121   122    1
   127   127   128    2
