@<TRIPOS>MOLECULE
tmp/4p9wD00.pdb
 94 92 0 0 0
SMALL
GASTEIGER

@<TRIPOS>ATOM
      1  N         37.5220    2.3810   53.4920 N.3    12  TYR12      -0.1228
      2  CA        37.6390    1.6260   54.7790 C.3    12  TYR12       0.1721
      3  C         39.0720    1.3850   55.2560 C.2    12  TYR12       0.2437
      4  O         39.8210    0.6430   54.6290 O.2    12  TYR12      -0.2733
      5  CB        36.9290    0.2890   54.6130 C.3    12  TYR12       0.0547
      6  CG        36.7770   -0.4670   55.8980 C.ar   12  TYR12      -0.0200
      7  CD1       37.7330   -1.4010   56.2910 C.ar   12  TYR12      -0.0009
      8  CD2       35.6820   -0.2510   56.7170 C.ar   12  TYR12      -0.0009
      9  CE1       37.6000   -2.1120   57.4800 C.ar   12  TYR12       0.0417
     10  CE2       35.5400   -0.9610   57.8900 C.ar   12  TYR12       0.0417
     11  CZ        36.5050   -1.8950   58.2650 C.ar   12  TYR12       0.1957
     12  OH        36.3500   -2.6000   59.4320 O.3    12  TYR12      -0.2866
     13  N         39.4540    1.9420   56.4300 N.am   13  PRO13      -0.2718
     14  CA        40.7760    1.6440   56.9430 C.3    13  PRO13       0.1535
     15  C         40.9710    0.2360   57.5620 C.2    13  PRO13       0.2598
     16  O         40.4210   -0.0880   58.6330 O.2    13  PRO13      -0.2715
     17  CB        41.0460    2.7870   57.9550 C.3    13  PRO13       0.0310
     18  CG        39.8120    3.6390   57.9480 C.3    13  PRO13       0.0237
     19  CD        38.7030    2.8640   57.3160 C.3    13  PRO13       0.0939
     20  N         41.7730   -0.5820   56.8700 N.am   14  ASN14      -0.1973
     21  CA        42.2710   -1.8810   57.3310 C.3    14  ASN14       0.1688
     22  C         43.6730   -1.6430   57.8590 C.2    14  ASN14       0.2292
     23  O         44.6450   -1.7090   57.1320 O.2    14  ASN14      -0.2864
     24  CB        42.3300   -2.9280   56.1890 C.3    14  ASN14       0.1181
     25  CG        41.0090   -3.0690   55.4900 C.2    14  ASN14       0.2629
     26  OD1       40.7310   -2.3410   54.5110 O.2    14  ASN14      -0.2716
     27  ND2       40.1270   -3.9800   56.0150 N.am   14  ASN14      -0.0877
     28  N         45.4700   -3.3570   59.7730 N.3    16  ASP16      -0.1239
     29  CA        46.3380   -4.5540   59.8690 C.3    16  ASP16       0.1674
     30  C         47.1090   -4.8380   58.5980 C.2    16  ASP16       0.2266
     31  O         48.1160   -5.5400   58.6400 O.2    16  ASP16      -0.2867
     32  CB        45.5900   -5.8240   60.3630 C.3    16  ASP16       0.1410
     33  CG        44.3330   -6.1440   59.5520 C.2    16  ASP16       0.3668
     34  OD1       43.6300   -5.2010   59.0100 O.co2  16  ASP16      -0.2456
     35  OD2       44.0460   -7.3670   59.4560 O.co2  16  ASP16      -0.2456
     36  N         32.6050   -5.9020   51.5210 N.3    98  GLY98      -0.1210
     37  CA        33.1630   -6.9450   52.4100 C.3    98  GLY98       0.1956
     38  C         32.0600   -7.1120   53.4200 C.2    98  GLY98       0.2612
     39  O         30.8540   -7.2030   53.0690 O.2    98  GLY98      -0.2717
     40  N         32.4410   -7.0120   54.6980 N.am   99  LEU99      -0.1965
     41  CA        31.4130   -7.1140   55.7280 C.3    99  LEU99       0.1728
     42  C         30.6640   -5.7870   55.7100 C.2    99  LEU99       0.2616
     43  O         29.4890   -5.7650   55.8950 O.2    99  LEU99      -0.2715
     44  CB        32.0070   -7.3050   57.1290 C.3    99  LEU99       0.0311
     45  CG        31.0490   -7.1380   58.3150 C.3    99  LEU99       0.0022
     46  CD1       29.7980   -8.0380   58.1590 C.3    99  LEU99       0.0001
     47  CD2       31.8170   -7.4690   59.6090 C.3    99  LEU99       0.0001
     48  N         31.4000   -4.6960   55.5840 N.am  100  TYR100     -0.1974
     49  CA        30.7370   -3.4130   55.3820 C.3   100  TYR100      0.1639
     50  C         30.6510   -3.0780   53.9010 C.2   100  TYR100      0.2290
     51  O         31.2480   -3.7930   53.0510 O.2   100  TYR100     -0.2864
     52  CB        31.4250   -2.3200   56.1780 C.3   100  TYR100      0.0560
     53  CG        31.4830   -2.7410   57.6240 C.ar  100  TYR100     -0.0198
     54  CD1       32.6900   -2.9340   58.2290 C.ar  100  TYR100     -0.0009
     55  CD2       30.3070   -3.0270   58.3510 C.ar  100  TYR100     -0.0009
     56  CE1       32.7730   -3.3530   59.5310 C.ar  100  TYR100      0.0417
     57  CE2       30.3880   -3.4610   59.6680 C.ar  100  TYR100      0.0417
     58  CZ        31.6370   -3.5850   60.2400 C.ar  100  TYR100      0.1957
     59  OH        31.8110   -3.9790   61.5210 O.3   100  TYR100     -0.2866
     60  N         32.4960    0.6310   52.9960 N.3   207  ALA207     -0.1231
     61  CA        33.6650   -0.1260   52.5760 C.3   207  ALA207      0.1694
     62  C         33.2820   -0.7010   51.1950 C.2   207  ALA207      0.2592
     63  O         32.1190   -0.8900   50.9600 O.2   207  ALA207     -0.2718
     64  CB        33.9010   -1.2460   53.5760 C.3   207  ALA207      0.0304
     65  N         34.2520   -1.0110   50.3340 N.am  208  ASP208     -0.1974
     66  CA        35.6770   -0.9260   50.6480 C.3   208  ASP208      0.1709
     67  C         36.4830    0.0790   49.8410 C.2   208  ASP208      0.2293
     68  O         37.6210    0.4770   50.2060 O.2   208  ASP208     -0.2864
     69  CB        36.2970   -2.2750   50.4680 C.3   208  ASP208      0.1436
     70  CG        36.2820   -3.0750   51.7560 C.2   208  ASP208      0.3671
     71  OD1       37.1920   -2.8930   52.6240 O.co2 208  ASP208     -0.2456
     72  OD2       35.3710   -3.8620   51.8410 O.co2 208  ASP208     -0.2456
     73  N         37.4160   -9.8700   47.3830 N.3   226  THR226     -0.1203
     74  CA        36.4020   -8.9630   47.9590 C.3   226  THR226      0.1994
     75  C         37.0110   -8.1680   49.1260 C.2   226  THR226      0.2618
     76  O         38.2230   -8.2450   49.3790 O.2   226  THR226     -0.2717
     77  CB        35.0730   -9.6790   48.3790 C.3   226  THR226      0.1784
     78  OG1       35.3140  -10.5680   49.4990 O.3   226  THR226     -0.2211
     79  CG2       34.5040  -10.4710   47.1970 C.3   226  THR226      0.0376
     80  N         36.2110   -7.3360   49.7800 N.am  227  GLY227     -0.1942
     81  CA        36.7450   -6.5580   50.8730 C.3   227  GLY227      0.2014
     82  C         37.9610   -5.7690   50.5160 C.2   227  GLY227      0.2638
     83  O         38.0060   -5.0540   49.4380 O.2   227  GLY227     -0.2714
     84  N         38.9160   -5.8320   51.4410 N.am  228  ARG228     -0.1977
     85  CA        40.0540   -4.9170   51.4640 C.3   228  ARG228      0.1597
     86  C         41.0010   -5.0970   50.2650 C.2   228  ARG228      0.2287
     87  O         41.8430   -4.2440   50.0370 O.2   228  ARG228     -0.2864
     88  CB        40.8370   -5.1070   52.7710 C.3   228  ARG228      0.0334
     89  CG        41.3930   -6.5290   52.9150 C.3   228  ARG228      0.0492
     90  CD        41.9280   -6.8310   54.3380 C.3   228  ARG228      0.2205
     91  NE        42.6760   -8.0940   54.3600 N.pl3 228  ARG228     -0.0865
     92  CZ        43.2620   -8.6160   55.4550 C.cat 228  ARG228      0.5346
     93  NH1       43.9480   -9.7470   55.3720 N.pl3 228  ARG228      0.1354
     94  NH2       43.1820   -7.9970   56.6440 N.pl3 228  ARG228      0.1354
@<TRIPOS>BOND
     1    79    77    1
     2    73    74    1
     3    74    77    1
     4    74    75    1
     5    77    78    1
     6    75    76    2
     7    75    80   am
     8    83    82    2
     9    80    81    1
    10    67    68    2
    11    67    66    1
    12    87    86    2
    13    86    85    1
    14    65    66    1
    15    65    62   am
    16    69    66    1
    17    69    70    1
    18    82    81    1
    19    82    84   am
    20    63    62    2
    21    62    61    1
    22    84    85    1
    23    85    88    1
    24    36    37    1
    25    70    72   ar
    26    70    71   ar
    27    37    38    1
    28    61    60    1
    29    61    64    1
    30    88    89    1
    31    89    90    1
    32    51    50    2
    33    39    38    2
    34    38    40   am
    35     1     2    1
    36    50    49    1
    37    90    91    1
    38    91    92    2
    39    26    25    2
    40     5     2    1
    41     5     6    1
    42     4     3    2
    43    40    41    1
    44     2     3    1
    45     3    13   am
    46    93    92    1
    47    49    48    1
    48    49    52    1
    49    92    94    1
    50    25    27   am
    51    25    24    1
    52    48    42   am
    53    42    41    1
    54    42    43    2
    55    41    44    1
    56     6     7   ar
    57     6     8   ar
    58    52    53    1
    59    24    21    1
    60     7     9   ar
    61    13    14    1
    62    13    19    1
    63     8    10   ar
    64    20    21    1
    65    20    15   am
    66    14    15    1
    67    14    17    1
    68    44    45    1
    69    23    22    2
    70    19    18    1
    71    21    22    1
    72     9    11   ar
    73    15    16    2
    74    53    54   ar
    75    53    55   ar
    76    10    11   ar
    77    18    17    1
    78    46    45    1
    79    54    56   ar
    80    11    12    1
    81    45    47    1
    82    55    57   ar
    83    30    31    2
    84    30    29    1
    85    34    33   ar
    86    35    33   ar
    87    56    58   ar
    88    33    32    1
    89    57    58   ar
    90    28    29    1
    91    29    32    1
    92    58    59    1
