@<TRIPOS>MOLECULE
tmp/4p9zA00.pdb
 148 142 0 0 0
SMALL
GASTEIGER

@<TRIPOS>ATOM
      1  N          7.3920  -17.0950   -8.7780 N.3    14  ARG14      -0.1245
      2  CA         6.5780  -16.3480   -7.7970 C.3    14  ARG14       0.1563
      3  C          5.0850  -16.5330   -8.0320 C.2    14  ARG14       0.2260
      4  O          4.3150  -16.7790   -7.1120 O.2    14  ARG14      -0.2867
      5  CB         6.9780  -14.8740   -7.8600 C.3    14  ARG14       0.0307
      6  CG         6.0750  -13.9190   -7.1020 C.3    14  ARG14       0.0489
      7  CD         6.5190  -12.5070   -7.3570 C.3    14  ARG14       0.2205
      8  NE         5.6370  -11.5540   -6.6610 N.pl3  14  ARG14      -0.0865
      9  CZ         5.9660  -10.8360   -5.5760 C.cat  14  ARG14       0.5346
     10  NH1        7.1590  -11.0000   -4.9890 N.pl3  14  ARG14       0.1354
     11  NH2        5.0850   -9.9370   -5.0680 N.pl3  14  ARG14       0.1354
     12  N          2.0270  -18.4090   -5.8010 N.3    18  GLU18      -0.1245
     13  CA         0.7230  -17.7650   -5.5060 C.3    18  GLU18       0.1567
     14  C         -0.4420  -18.6130   -5.9360 C.2    18  GLU18       0.2260
     15  O         -1.3660  -18.8100   -5.1450 O.2    18  GLU18      -0.2867
     16  CB         0.5720  -16.3630   -6.1200 C.3    18  GLU18       0.0388
     17  CG         1.3110  -15.2850   -5.3350 C.3    18  GLU18       0.1160
     18  CD         1.5390  -14.0170   -6.1150 C.2    18  GLU18       0.3649
     19  OE1        1.5970  -14.0240   -7.3880 O.co2  18  GLU18      -0.2457
     20  OE2        1.7330  -12.9970   -5.4650 O.co2  18  GLU18      -0.2457
     21  N         10.9150  -20.9430   -1.8660 N.3    33  ARG33      -0.1245
     22  CA        11.2870  -21.0930   -3.2740 C.3    33  ARG33       0.1563
     23  C         12.5780  -20.3530   -3.4840 C.2    33  ARG33       0.2260
     24  O         13.0250  -19.5730   -2.6360 O.2    33  ARG33      -0.2867
     25  CB        10.2190  -20.4840   -4.2030 C.3    33  ARG33       0.0307
     26  CG         9.8210  -19.0020   -3.9940 C.3    33  ARG33       0.0489
     27  CD         8.5120  -18.6210   -4.6820 C.3    33  ARG33       0.2205
     28  NE         8.1060  -17.2800   -4.2950 N.pl3  33  ARG33      -0.0865
     29  CZ         8.7180  -16.1770   -4.7070 C.cat  33  ARG33       0.5346
     30  NH1        9.7090  -16.2710   -5.6210 N.pl3  33  ARG33       0.1354
     31  NH2        8.3150  -14.9900   -4.2630 N.pl3  33  ARG33       0.1354
     32  N         14.3060  -17.5970   -5.5500 N.3    35  SER35      -0.1202
     33  CA        13.8710  -16.4060   -6.3030 C.3    35  SER35       0.2020
     34  C         14.3760  -16.4430   -7.7780 C.2    35  SER35       0.2619
     35  O         15.4990  -16.8520   -8.0730 O.2    35  SER35      -0.2717
     36  CB        14.3660  -15.1280   -5.6730 C.3    35  SER35       0.2103
     37  OG        14.0350  -13.9660   -6.4860 O.3    35  SER35      -0.2182
     38  N         13.5380  -16.0510   -8.7020 N.am   36  GLU36      -0.1965
     39  CA        14.0170  -15.9020  -10.0820 C.3    36  GLU36       0.1733
     40  C         14.4790  -14.4510  -10.3830 C.2    36  GLU36       0.2617
     41  O         15.2430  -14.2330  -11.3200 O.2    36  GLU36      -0.2715
     42  CB        12.9270  -16.2870  -11.0490 C.3    36  GLU36       0.0429
     43  CG        12.4270  -17.6980  -10.8810 C.3    36  GLU36       0.1163
     44  CD        11.4640  -18.0340  -12.0110 C.2    36  GLU36       0.3649
     45  OE1       11.7760  -18.9160  -12.8240 O.co2  36  GLU36      -0.2457
     46  OE2       10.4310  -17.3620  -12.1310 O.co2  36  GLU36      -0.2457
     47  N         14.0320  -13.4630   -9.6050 N.am   37  SER37      -0.1950
     48  CA        14.5140  -12.0570   -9.8280 C.3    37  SER37       0.1924
     49  C         15.8290  -11.7880   -9.1070 C.2    37  SER37       0.2314
     50  O         16.5460  -10.8480   -9.3830 O.2    37  SER37      -0.2863
     51  CB        13.4550  -11.0710   -9.3210 C.3    37  SER37       0.2116
     52  OG        13.2400  -11.2650   -7.9350 O.3    37  SER37      -0.2180
     53  N         13.0280  -16.9130   -1.3470 N.3    43  SER43      -0.1217
     54  CA        11.8210  -16.1870   -1.0120 C.3    43  SER43       0.1889
     55  C         10.8750  -17.1070   -0.2860 C.2    43  SER43       0.2288
     56  O         10.8210  -18.3420   -0.5120 O.2    43  SER43      -0.2866
     57  CB        11.1680  -15.6850   -2.2820 C.3    43  SER43       0.2089
     58  OG        12.0900  -14.8230   -2.9000 O.3    43  SER43      -0.2183
     59  N         -1.6870  -13.7220   -1.1470 N.3    52  VAL52      -0.1231
     60  CA        -0.4460  -14.4230   -0.8740 C.3    52  VAL52       0.1692
     61  C          0.6770  -13.4010   -0.7340 C.2    52  VAL52       0.2592
     62  O          0.9850  -12.6400   -1.6540 O.2    52  VAL52      -0.2718
     63  CB        -0.1300  -15.5090   -1.9360 C.3    52  VAL52       0.0266
     64  CG1        1.2610  -16.1280   -1.6660 C.3    52  VAL52       0.0020
     65  CG2       -1.2520  -16.5640   -1.9900 C.3    52  VAL52       0.0020
     66  N          1.2860  -13.4020    0.4400 N.am   53  GLN53      -0.1966
     67  CA         2.3730  -12.5410    0.8100 C.3    53  GLN53       0.1733
     68  C          3.7230  -13.1610    0.5580 C.2    53  GLN53       0.2616
     69  O          3.9280  -14.3470    0.8360 O.2    53  GLN53      -0.2715
     70  CB         2.2660  -12.2240    2.3340 C.3    53  GLN53       0.0408
     71  CG         0.9210  -11.6000    2.7190 C.3    53  GLN53       0.0908
     72  CD         0.9290  -11.0140    4.1460 C.2    53  GLN53       0.2608
     73  OE1        1.9220  -11.1000    4.8330 O.2    53  GLN53      -0.2717
     74  NE2       -0.1990  -10.4380    4.5730 N.am   53  GLN53      -0.0878
     75  N          4.6800  -12.3290    0.1390 N.am   54  HIS54      -0.1959
     76  CA         6.0590  -12.7590   -0.1340 C.3    54  HIS54       0.1787
     77  C          7.0510  -12.0420    0.7050 C.2    54  HIS54       0.2620
     78  O          6.9710  -10.8340    0.8920 O.2    54  HIS54      -0.2715
     79  CB         6.4280  -12.5490   -1.5860 C.3    54  HIS54       0.0785
     80  CG         5.4450  -13.2020   -2.5220 C.ar   54  HIS54       0.0821
     81  ND1        5.5500  -14.4810   -2.8930 N.ar   54  HIS54      -0.2267
     82  CD2        4.3240  -12.7060   -3.1400 C.ar   54  HIS54       0.1154
     83  CE1        4.5430  -14.8080   -3.6810 C.ar   54  HIS54       0.1986
     84  NE2        3.7820  -13.7270   -3.8350 N.ar   54  HIS54      -0.2212
     85  N          8.0010  -12.8010    1.2210 N.am   55  PHE55      -0.1960
     86  CA         9.0530  -12.2570    2.0930 C.3    55  PHE55       0.1771
     87  C         10.4260  -12.6030    1.4830 C.2    55  PHE55       0.2619
     88  O         10.6460  -13.7380    1.0630 O.2    55  PHE55      -0.2715
     89  CB         8.9310  -12.9100    3.4420 C.3    55  PHE55       0.0574
     90  CG         7.6340  -12.6080    4.1660 C.ar   55  PHE55      -0.0200
     91  CD1        6.5040  -13.4150    3.9880 C.ar   55  PHE55      -0.0042
     92  CD2        7.5390  -11.5020    4.9830 C.ar   55  PHE55      -0.0042
     93  CE1        5.3060  -13.1220    4.6250 C.ar   55  PHE55      -0.0003
     94  CE2        6.3560  -11.2280    5.6270 C.ar   55  PHE55      -0.0003
     95  CZ         5.2370  -12.0160    5.4500 C.ar   55  PHE55      -0.0000
     96  N         11.3650  -11.6400    1.4380 N.am   56  LYS56      -0.1977
     97  CA        12.7590  -11.9220    1.0710 C.3    56  LYS56       0.1596
     98  C         13.3820  -12.6950    2.2300 C.2    56  LYS56       0.2287
     99  O         13.2070  -12.3020    3.3920 O.2    56  LYS56      -0.2864
    100  CB        13.5490  -10.6200    0.9240 C.3    56  LYS56       0.0298
    101  CG        13.0700   -9.7010   -0.1460 C.3    56  LYS56       0.0038
    102  CD        14.0490   -8.5240   -0.2760 C.3    56  LYS56       0.0206
    103  CE        13.8900   -7.4650    0.8130 C.3    56  LYS56       0.1093
    104  NZ        14.8000   -6.2640    0.6530 N.3    56  LYS56      -0.1314
    105  N         16.6540  -12.9340    3.9390 N.3    58  LEU58      -0.1245
    106  CA        17.8340  -12.0840    3.9120 C.3    58  LEU58       0.1561
    107  C         18.9770  -12.8250    4.5070 C.2    58  LEU58       0.2260
    108  O         18.7690  -13.7320    5.3350 O.2    58  LEU58      -0.2867
    109  CB        17.5620  -10.7750    4.6620 C.3    58  LEU58       0.0270
    110  CG        16.3710   -9.9750    4.0770 C.3    58  LEU58       0.0019
    111  CD1       16.0150   -8.8550    5.0270 C.3    58  LEU58       0.0001
    112  CD2       16.6830   -9.4370    2.6590 C.3    58  LEU58       0.0001
    113  N         14.2680  -13.0680    8.2540 N.3    67  LEU67      -0.1231
    114  CA        13.2540  -12.1880    7.6570 C.3    67  LEU67       0.1693
    115  C         13.3000  -10.7430    8.1530 C.2    67  LEU67       0.2592
    116  O         13.1800   -9.8220    7.3680 O.2    67  LEU67      -0.2718
    117  CB        11.8520  -12.7650    7.8620 C.3    67  LEU67       0.0284
    118  CG        11.5560  -14.1650    7.3600 C.3    67  LEU67       0.0019
    119  CD1       10.0980  -14.4550    7.7470 C.3    67  LEU67       0.0001
    120  CD2       11.7440  -14.3390    5.8290 C.3    67  LEU67       0.0001
    121  N         13.4540  -10.5490    9.4610 N.am   68  TRP68      -0.1976
    122  CA        13.4500   -9.1920    9.9590 C.3    68  TRP68       0.1640
    123  C         14.6420   -8.9180   10.8210 C.2    68  TRP68       0.2290
    124  O         15.4820   -8.1040   10.4810 O.2    68  TRP68      -0.2864
    125  CB        12.1970   -8.9600   10.8000 C.3    68  TRP68       0.0576
    126  CG        10.8990   -9.0280   10.0510 C.ar   68  TRP68       0.0006
    127  CD1        9.9690  -10.0700   10.0580 C.ar   68  TRP68       0.0946
    128  CD2       10.3170   -7.9930    9.1810 C.ar   68  TRP68       0.0152
    129  NE1        8.9160   -9.7930    9.2320 N.ar   68  TRP68      -0.2442
    130  CE2        9.0360   -8.5390    8.7010 C.ar   68  TRP68       0.0810
    131  CE3       10.7070   -6.7200    8.7590 C.ar   68  TRP68       0.0012
    132  CZ2        8.2180   -7.8290    7.8540 C.ar   68  TRP68       0.0191
    133  CZ3        9.8540   -6.0120    7.9000 C.ar   68  TRP68       0.0001
    134  CH2        8.6280   -6.5630    7.4830 C.ar   68  TRP68       0.0015
    135  N          4.8160  -11.6240    9.8680 N.3    88  SER88      -0.1217
    136  CA         4.2680  -10.3060    9.4900 C.3    88  SER88       0.1889
    137  C          4.2800   -9.2830   10.6170 C.2    88  SER88       0.2288
    138  O          4.1260   -9.6200   11.8320 O.2    88  SER88      -0.2866
    139  CB         2.8460  -10.4600    8.8880 C.3    88  SER88       0.2089
    140  OG         2.2030   -9.2020    8.6020 O.3    88  SER88      -0.2183
    141  N          2.1660   -6.7000   10.2760 N.3    90  ASN90      -0.1240
    142  CA         0.8190   -6.1620   10.2420 C.3    90  ASN90       0.1653
    143  C         -0.2950   -7.1240   10.7140 C.2    90  ASN90       0.2266
    144  O         -1.3970   -6.6950   11.0140 O.2    90  ASN90      -0.2867
    145  CB         0.4900   -5.7240    8.8040 C.3    90  ASN90       0.1155
    146  CG         1.4980   -4.7230    8.2350 C.2    90  ASN90       0.2627
    147  OD1        1.9470   -3.8180    8.9180 O.2    90  ASN90      -0.2716
    148  ND2        1.8350   -4.8770    6.9630 N.am   90  ASN90      -0.0877
@<TRIPOS>BOND
     1    45    44   ar
     2    46    44   ar
     3    44    43    1
     4    41    40    2
     5    42    43    1
     6    42    39    1
     7    40    39    1
     8    40    47   am
     9    39    38    1
    10    48    47    1
    11    48    51    1
    12    48    49    1
    13    50    49    2
    14    51    52    1
    15     1     2    1
    16    38    34   am
    17    35    34    2
    18     3     2    1
    19     3     4    2
    20     5     2    1
    21     5     6    1
    22    34    33    1
    23    19    18   ar
    24     7     6    1
    25     7     8    1
    26     8     9    2
    27    37    36    1
    28    33    36    1
    29    33    32    1
    30    16    13    1
    31    16    17    1
    32    18    20   ar
    33    18    17    1
    34    14    13    1
    35    14    15    2
    36    12    13    1
    37    30    29    1
    38     9    11    1
    39     9    10    1
    40    29    28    2
    41    29    31    1
    42    27    28    1
    43    27    26    1
    44    25    26    1
    45    25    22    1
    46    84    83   ar
    47    84    82   ar
    48    83    81   ar
    49    23    22    1
    50    23    24    2
    51    22    21    1
    52    82    80   ar
    53    58    57    1
    54    81    80   ar
    55    80    79    1
    56    57    54    1
    57    65    63    1
    58    63    64    1
    59    63    60    1
    60    62    61    2
    61    79    76    1
    62    53    54    1
    63    59    60    1
    64    54    55    1
    65    60    61    1
    66    61    66   am
    67    56    55    2
    68   102   101    1
    69   102   103    1
    70   101   100    1
    71    76    75    1
    72    76    77    1
    73    75    68   am
    74    66    67    1
    75    68    67    1
    76    68    69    2
    77   104   103    1
    78    77    78    2
    79    77    85   am
    80    67    70    1
    81   100    97    1
    82    88    87    2
    83    97    96    1
    84    97    98    1
    85    85    86    1
    86    96    87   am
    87    87    86    1
    88    86    89    1
    89    98    99    2
    90    70    71    1
    91   112   110    1
    92    71    72    1
    93    89    90    1
    94   106   105    1
    95   106   107    1
    96   106   109    1
    97    91    90   ar
    98    91    93   ar
    99   110   109    1
   100   110   111    1
   101    72    74   am
   102    72    73    2
   103    90    92   ar
   104   107   108    2
   105    93    95   ar
   106    92    94   ar
   107    95    94   ar
   108   120   118    1
   109   148   146   am
   110   118   119    1
   111   118   117    1
   112   116   115    2
   113   134   132   ar
   114   134   133   ar
   115   114   117    1
   116   114   115    1
   117   114   113    1
   118   132   130   ar
   119   133   131   ar
   120   115   121   am
   121   146   145    1
   122   146   147    2
   123   140   139    1
   124   130   128   ar
   125   130   129   ar
   126   131   128   ar
   127   145   142    1
   128   139   136    1
   129   128   126   ar
   130   129   127   ar
   131   121   122    1
   132   136   135    1
   133   136   137    1
   134   122   125    1
   135   122   123    1
   136   126   127   ar
   137   126   125    1
   138   142   141    1
   139   142   143    1
   140   124   123    2
   141   137   138    2
   142   143   144    2
