@<TRIPOS>MOLECULE
tmp/4pa0A00.pdb
 161 151 0 0 0
SMALL
GASTEIGER

@<TRIPOS>ATOM
      1  N         20.5320  -12.6870  130.0050 N.3    83  PHE83      -0.1241
      2  CA        20.7390  -13.1000  131.3820 C.3    83  PHE83       0.1605
      3  C         20.4050  -12.0240  132.3990 C.2    83  PHE83       0.2264
      4  O         20.6220  -12.2270  133.5760 O.2    83  PHE83      -0.2867
      5  CB        22.1790  -13.5200  131.5990 C.3    83  PHE83       0.0534
      6  CG        22.5600  -14.7940  130.9040 C.ar   83  PHE83      -0.0203
      7  CD1       22.1300  -16.0140  131.3790 C.ar   83  PHE83      -0.0042
      8  CD2       23.3880  -14.7730  129.7930 C.ar   83  PHE83      -0.0042
      9  CE1       22.5090  -17.1910  130.7450 C.ar   83  PHE83      -0.0003
     10  CE2       23.7660  -15.9540  129.1620 C.ar   83  PHE83      -0.0003
     11  CZ        23.3350  -17.1550  129.6460 C.ar   83  PHE83      -0.0000
     12  N         23.3750  -19.6020  138.9440 N.3    90  ALA90      -0.1231
     13  CA        24.1060  -20.7720  138.4350 C.3    90  ALA90       0.1694
     14  C         23.9420  -20.9340  136.9150 C.2    90  ALA90       0.2592
     15  O         24.6630  -21.7100  136.2760 O.2    90  ALA90      -0.2718
     16  CB        23.6530  -22.0390  139.1510 C.3    90  ALA90       0.0304
     17  N         22.9710  -20.2360  136.3340 N.am   91  MET91      -0.1965
     18  CA        22.7720  -20.2950  134.8770 C.3    91  MET91       0.1736
     19  C         23.5900  -19.2270  134.1160 C.2    91  MET91       0.2616
     20  O         23.5710  -19.1880  132.8940 O.2    91  MET91      -0.2715
     21  CB        21.3060  -20.1370  134.5230 C.3    91  MET91       0.0427
     22  CG        20.3760  -20.9990  135.3380 C.3    91  MET91       0.0599
     23  SD        20.4870  -22.7490  134.9470 S.3    91  MET91      -0.1393
     24  CE        20.3300  -22.7030  133.1600 C.3    91  MET91       0.0692
     25  N         24.2660  -18.3380  134.8260 N.am   92  LEU92      -0.1963
     26  CA        25.0300  -17.3000  134.1500 C.3    92  LEU92       0.1728
     27  C         26.1720  -17.9400  133.3520 C.2    92  LEU92       0.2616
     28  O         26.7240  -18.9600  133.7460 O.2    92  LEU92      -0.2715
     29  CB        25.5700  -16.2850  135.1620 C.3    92  LEU92       0.0311
     30  CG        24.4970  -15.4840  135.8820 C.3    92  LEU92       0.0022
     31  CD1       25.0850  -14.6870  137.0220 C.3    92  LEU92       0.0001
     32  CD2       23.8030  -14.5460  134.9170 C.3    92  LEU92       0.0001
     33  N         26.5050  -17.3470  132.2120 N.am   93  THR93      -0.1951
     34  CA        27.6250  -17.8240  131.4220 C.3    93  THR93       0.1897
     35  C         28.8990  -17.4420  132.1650 C.2    93  THR93       0.2313
     36  O         29.6970  -18.3090  132.4740 O.2    93  THR93      -0.2863
     37  CB        27.5820  -17.2580  129.9830 C.3    93  THR93       0.1794
     38  OG1       26.4120  -17.7650  129.3210 O.3    93  THR93      -0.2208
     39  CG2       28.7850  -17.6840  129.1820 C.3    93  THR93       0.0378
     40  N         30.3470  -16.3460  135.6390 N.3    95  LEU95      -0.1245
     41  CA        29.8740  -16.4750  136.9870 C.3    95  LEU95       0.1561
     42  C         30.9940  -16.0540  137.9460 C.2    95  LEU95       0.2260
     43  O         31.3320  -16.7440  138.8790 O.2    95  LEU95      -0.2867
     44  CB        29.3800  -17.9050  137.2130 C.3    95  LEU95       0.0270
     45  CG        28.6930  -18.1450  138.5560 C.3    95  LEU95       0.0019
     46  CD1       27.5410  -17.1710  138.7520 C.3    95  LEU95       0.0001
     47  CD2       28.2090  -19.5740  138.6720 C.3    95  LEU95       0.0001
     48  N         21.0470  -18.8590  143.8740 N.3   117  SER117     -0.1202
     49  CA        22.3750  -19.1280  143.3650 C.3   117  SER117      0.2020
     50  C         22.7350  -20.5690  143.7180 C.2   117  SER117      0.2619
     51  O         23.1630  -20.8610  144.8400 O.2   117  SER117     -0.2717
     52  CB        23.3740  -18.1450  143.9450 C.3   117  SER117      0.2103
     53  OG        24.5980  -18.2780  143.2580 O.3   117  SER117     -0.2182
     54  N         22.5280  -21.4810  142.7790 N.am  118  GLY118     -0.1956
     55  CA        22.6650  -22.8850  143.0990 C.3   118  GLY118      0.1869
     56  C         21.6900  -23.2520  144.1910 C.2   118  GLY118      0.2309
     57  O         20.4930  -22.9650  144.0730 O.2   118  GLY118     -0.2863
     58  N         21.5820  -21.9440  147.0950 N.3   120  PHE120     -0.1241
     59  CA        21.2550  -20.7970  147.9230 C.3   120  PHE120      0.1605
     60  C         20.0260  -20.0180  147.5170 C.2   120  PHE120      0.2264
     61  O         19.8440  -19.6610  146.3610 O.2   120  PHE120     -0.2867
     62  CB        22.4140  -19.8240  147.9550 C.3   120  PHE120      0.0534
     63  CG        23.6020  -20.3410  148.6700 C.ar  120  PHE120     -0.0203
     64  CD1       23.5450  -20.6310  150.0290 C.ar  120  PHE120     -0.0042
     65  CD2       24.8030  -20.4990  147.9990 C.ar  120  PHE120     -0.0042
     66  CE1       24.6910  -21.1070  150.6880 C.ar  120  PHE120     -0.0003
     67  CE2       25.9600  -20.9740  148.6630 C.ar  120  PHE120     -0.0003
     68  CZ        25.8930  -21.2740  149.9830 C.ar  120  PHE120     -0.0000
     69  N         27.2970  -29.8910  148.9590 N.3   483  MET483     -0.1245
     70  CA        27.4550  -29.4900  147.5700 C.3   483  MET483      0.1570
     71  C         28.2720  -30.5320  146.7820 C.2   483  MET483      0.2261
     72  O         27.9440  -30.8440  145.6240 O.2   483  MET483     -0.2867
     73  CB        28.1320  -28.1140  147.4770 C.3   483  MET483      0.0387
     74  CG        28.1110  -27.4700  146.0700 C.3   483  MET483      0.0595
     75  SD        26.4110  -27.4650  145.3980 S.3   483  MET483     -0.1393
     76  CE        25.9240  -25.7690  145.6660 C.3   483  MET483      0.0692
     77  N         27.0350  -32.6430  143.4530 N.3   487  GLU487     -0.1245
     78  CA        27.8780  -32.5780  142.2710 C.3   487  GLU487      0.1567
     79  C         28.1910  -33.9720  141.7810 C.2   487  GLU487      0.2260
     80  O         27.9990  -34.2750  140.6000 O.2   487  GLU487     -0.2867
     81  CB        29.1710  -31.8090  142.5670 C.3   487  GLU487      0.0388
     82  CG        29.0530  -30.2730  142.4330 C.3   487  GLU487      0.1160
     83  CD        28.5260  -29.8450  141.0660 C.2   487  GLU487      0.3649
     84  OE1       27.2880  -29.8810  140.8670 O.co2 487  GLU487     -0.2457
     85  OE2       29.3390  -29.4510  140.1920 O.co2 487  GLU487     -0.2457
     86  N         28.3710  -17.8800  149.3350 N.3   669  VAL669     -0.1245
     87  CA        27.8790  -17.8220  147.9480 C.3   669  VAL669      0.1561
     88  C         29.0400  -17.8950  146.9770 C.2   669  VAL669      0.2260
     89  O         29.0350  -18.6690  146.0050 O.2   669  VAL669     -0.2867
     90  CB        27.0100  -16.5610  147.7020 C.3   669  VAL669      0.0252
     91  CG1       26.6270  -16.4540  146.2240 C.3   669  VAL669      0.0019
     92  CG2       25.7290  -16.6660  148.5310 C.3   669  VAL669      0.0019
     93  N         30.5520  -21.3650  147.1490 N.3   672  GLY672     -0.1210
     94  CA        29.8310  -22.3190  146.3330 C.3   672  GLY672      0.1956
     95  C         30.2400  -22.2680  144.8760 C.2   672  GLY672      0.2611
     96  O         30.4250  -23.3190  144.2350 O.2   672  GLY672     -0.2717
     97  N         30.3630  -21.0680  144.3260 N.am  673  ILE673     -0.1979
     98  CA        30.8680  -20.9360  142.9610 C.3   673  ILE673      0.1595
     99  C         32.3030  -21.5470  142.8360 C.2   673  ILE673      0.2287
    100  O         32.5570  -22.3630  141.9540 O.2   673  ILE673     -0.2864
    101  CB        30.9960  -19.4530  142.4700 C.3   673  ILE673      0.0276
    102  CG1       29.7930  -18.5590  142.8150 C.3   673  ILE673      0.0022
    103  CG2       31.4910  -19.4030  140.9760 C.3   673  ILE673      0.0022
    104  CD1       28.5520  -18.8830  142.1310 C.3   673  ILE673      0.0001
    105  N         32.5080  -25.5640  142.7140 N.3   676  CYS676     -0.1235
    106  CA        31.9320  -26.2360  141.5680 C.3   676  CYS676      0.1677
    107  C         32.7620  -25.9080  140.3440 C.2   676  CYS676      0.2270
    108  O         32.7400  -26.6220  139.3420 O.2   676  CYS676     -0.2867
    109  CB        30.4630  -25.8250  141.3330 C.3   676  CYS676      0.0956
    110  SG        29.3170  -26.2480  142.6880 S.3   676  CYS676     -0.0801
    111  N         31.5940  -26.6310  135.6560 N.3   681  PRO681     -0.2102
    112  CA        30.4090  -25.8960  136.0870 C.3   681  PRO681      0.1504
    113  C         29.4460  -25.5730  134.9610 C.2   681  PRO681      0.2576
    114  O         28.2680  -25.4890  135.2540 O.2   681  PRO681     -0.2718
    115  CB        30.9800  -24.6150  136.6860 C.3   681  PRO681      0.0282
    116  CG        32.1890  -24.3680  135.9030 C.3   681  PRO681      0.0208
    117  CD        32.7780  -25.7430  135.6240 C.3   681  PRO681      0.0893
    118  N         29.9160  -25.2850  133.7510 N.am  682  ASN682     -0.1961
    119  CA        28.9930  -24.8720  132.7070 C.3   682  ASN682      0.1819
    120  C         28.4830  -26.1090  131.9460 C.2   682  ASN682      0.2621
    121  O         29.2520  -26.8270  131.3210 O.2   682  ASN682     -0.2715
    122  CB        29.6550  -23.8840  131.7490 C.3   682  ASN682      0.1195
    123  CG        29.9950  -22.5170  132.3970 C.2   682  ASN682      0.2630
    124  OD1       31.0000  -22.3750  133.1050 O.2   682  ASN682     -0.2716
    125  ND2       29.1920  -21.4950  132.0880 N.am  682  ASN682     -0.0877
    126  N         27.1730  -26.3320  131.9800 N.am  683  ARG683     -0.1963
    127  CA        26.5670  -27.4910  131.3320 C.3   683  ARG683      0.1729
    128  C         25.5130  -27.1320  130.3130 C.2   683  ARG683      0.2616
    129  O         24.5730  -26.4140  130.6140 O.2   683  ARG683     -0.2715
    130  CB        25.9560  -28.4140  132.3700 C.3   683  ARG683      0.0348
    131  CG        26.9910  -28.9510  133.2730 C.3   683  ARG683      0.0492
    132  CD        26.5780  -29.0390  134.6770 C.3   683  ARG683      0.2205
    133  NE        27.7490  -29.0240  135.5320 N.pl3 683  ARG683     -0.0865
    134  CZ        27.7130  -29.3000  136.8270 C.cat 683  ARG683      0.5346
    135  NH1       26.5560  -29.6270  137.3930 N.pl3 683  ARG683      0.1354
    136  NH2       28.8240  -29.2510  137.5540 N.pl3 683  ARG683      0.1354
    137  N         25.6860  -27.6280  129.0960 N.am  684  ILE684     -0.1977
    138  CA        24.7790  -27.2650  128.0260 C.3   684  ILE684      0.1596
    139  C         24.1690  -28.4780  127.3230 C.2   684  ILE684      0.2287
    140  O         24.8740  -29.3430  126.8270 O.2   684  ILE684     -0.2864
    141  CB        25.4830  -26.3920  127.0040 C.3   684  ILE684      0.0276
    142  CG1       26.0420  -25.1290  127.6620 C.3   684  ILE684      0.0022
    143  CG2       24.5450  -26.0180  125.8930 C.3   684  ILE684      0.0022
    144  CD1       26.9490  -24.3420  126.7100 C.3   684  ILE684      0.0001
    145  N         24.2480  -33.5860  127.9890 N.3   733  LYS733     -0.1245
    146  CA        24.8540  -32.2570  128.0220 C.3   733  LYS733      0.1561
    147  C         26.3270  -32.2840  127.7410 C.2   733  LYS733      0.2260
    148  O         26.9750  -33.3150  127.9120 O.2   733  LYS733     -0.2867
    149  CB        24.6570  -31.5770  129.3790 C.3   733  LYS733      0.0271
    150  CG        23.2560  -31.2770  129.7760 C.3   733  LYS733      0.0035
    151  CD        23.2130  -31.0750  131.2670 C.3   733  LYS733      0.0206
    152  CE        21.8700  -30.6050  131.7540 C.3   733  LYS733      0.1093
    153  NZ        22.0020  -30.3860  133.2200 N.3   733  LYS733     -0.1314
    154  N         34.1940  -22.1920  128.0770 N.3   741  LEU741     -0.1245
    155  CA        32.9370  -21.7200  127.4990 C.3   741  LEU741      0.1561
    156  C         33.0130  -20.2260  127.3290 C.2   741  LEU741      0.2260
    157  O         32.3620  -19.6560  126.4570 O.2   741  LEU741     -0.2867
    158  CB        31.7350  -22.1110  128.3580 C.3   741  LEU741      0.0270
    159  CG        30.3670  -21.6470  127.8470 C.3   741  LEU741      0.0019
    160  CD1       29.9410  -22.3470  126.5660 C.3   741  LEU741      0.0001
    161  CD2       29.3970  -21.9350  128.9020 C.3   741  LEU741      0.0001
@<TRIPOS>BOND
     1   143   141    1
     2   157   156    2
     3   160   159    1
     4   144   142    1
     5   140   139    2
     6   141   142    1
     7   141   138    1
     8   139   138    1
     9   156   155    1
    10   155   154    1
    11   155   158    1
    12   147   148    2
    13   147   146    1
    14   159   158    1
    15   159   161    1
    16   145   146    1
    17   146   149    1
    18   138   137    1
    19   137   128   am
    20    10    11   ar
    21    10     8   ar
    22    39    37    1
    23    38    37    1
    24   149   150    1
    25    11     9   ar
    26   150   151    1
    27     8     6   ar
    28    37    34    1
    29     1     2    1
    30   128   129    2
    31   128   127    1
    32     9     7   ar
    33     6     7   ar
    34     6     5    1
    35   151   152    1
    36   121   120    2
    37   127   126    1
    38   127   130    1
    39     2     5    1
    40     2     3    1
    41    34    35    1
    42    34    33    1
    43   122   123    1
    44   122   119    1
    45   152   153    1
    46   120   126   am
    47   120   119    1
    48   125   123   am
    49    35    36    2
    50    33    27   am
    51   130   131    1
    52   123   124    2
    53     3     4    2
    54   119   118    1
    55    20    19    2
    56    24    23    1
    57   131   132    1
    58    27    28    2
    59    27    26    1
    60   118   113   am
    61    19    25   am
    62    19    18    1
    63    26    25    1
    64    26    29    1
    65    21    18    1
    66    21    22    1
    67   132   133    1
    68    18    17    1
    69    32    30    1
    70    23    22    1
    71   113   114    2
    72   113   112    1
    73    29    30    1
    74   133   134    2
    75   117   111    1
    76   117   116    1
    77    40    41    1
    78   111   112    1
    79    30    31    1
    80   116   115    1
    81   112   115    1
    82    15    14    2
    83    17    14   am
    84   134   135    1
    85   134   136    1
    86    14    13    1
    87    41    44    1
    88    41    42    1
    89    44    45    1
    90    42    43    2
    91    13    12    1
    92    13    16    1
    93    45    47    1
    94    45    46    1
    95   108   107    2
    96    85    83   ar
    97   107   106    1
    98    80    79    2
    99    84    83   ar
   100   103   101    1
   101    83    82    1
   102   109   106    1
   103   109   110    1
   104   106   105    1
   105    79    78    1
   106   100    99    2
   107   104   102    1
   108    78    81    1
   109    78    77    1
   110    82    81    1
   111   101   102    1
   112   101    98    1
   113    54    55    1
   114    54    50   am
   115    99    98    1
   116    98    97    1
   117    55    56    1
   118    53    52    1
   119    49    50    1
   120    49    48    1
   121    49    52    1
   122    50    51    2
   123    57    56    2
   124    96    95    2
   125    97    95   am
   126    95    94    1
   127    75    76    1
   128    75    74    1
   129    72    71    2
   130    89    88    2
   131    74    73    1
   132    91    90    1
   133    94    93    1
   134    61    60    2
   135    71    70    1
   136    88    87    1
   137    58    59    1
   138    73    70    1
   139    60    59    1
   140    70    69    1
   141    90    87    1
   142    90    92    1
   143    59    62    1
   144    87    86    1
   145    62    63    1
   146    65    67   ar
   147    65    63   ar
   148    67    68   ar
   149    63    64   ar
   150    68    66   ar
   151    64    66   ar
