@<TRIPOS>MOLECULE
tmp/4pa5A00.pdb
 99 94 0 0 0
SMALL
GASTEIGER

@<TRIPOS>ATOM
      1  N         30.2440   31.1020   41.4170 N.3   146  TRP146     -0.1241
      2  CA        30.3990   29.6740   41.7860 C.3   146  TRP146      0.1605
      3  C         31.6000   28.9880   41.1280 C.2   146  TRP146      0.2264
      4  O         31.5620   27.7870   40.8590 O.2   146  TRP146     -0.2867
      5  CB        29.1250   28.9050   41.4690 C.3   146  TRP146      0.0550
      6  CG        27.9980   29.2480   42.3520 C.ar  146  TRP146      0.0003
      7  CD1       26.9380   30.0560   42.0370 C.ar  146  TRP146      0.0946
      8  CD2       27.7900   28.8300   43.7030 C.ar  146  TRP146      0.0152
      9  NE1       26.0930   30.1540   43.0920 N.ar  146  TRP146     -0.2442
     10  CE2       26.5820   29.4290   44.1350 C.ar  146  TRP146      0.0810
     11  CE3       28.5060   28.0320   44.5970 C.ar  146  TRP146      0.0012
     12  CZ2       26.0650   29.2350   45.4040 C.ar  146  TRP146      0.0191
     13  CZ3       27.9980   27.8380   45.8660 C.ar  146  TRP146      0.0001
     14  CH2       26.7830   28.4360   46.2560 C.ar  146  TRP146      0.0015
     15  N         35.1020   27.1890   41.4190 N.3   148  TYR148     -0.1241
     16  CA        35.8060   26.2790   42.3100 C.3   148  TYR148      0.1605
     17  C         37.0910   25.8590   41.6570 C.2   148  TYR148      0.2264
     18  O         37.0840   25.5300   40.4650 O.2   148  TYR148     -0.2867
     19  CB        35.0450   24.9580   42.5550 C.3   148  TYR148      0.0534
     20  CG        33.5770   24.9620   42.6290 C.ar  148  TYR148     -0.0201
     21  CD1       32.9090   25.9010   43.3990 C.ar  148  TYR148     -0.0009
     22  CD2       32.8090   23.9920   41.9520 C.ar  148  TYR148     -0.0009
     23  CE1       31.5560   25.8800   43.5100 C.ar  148  TYR148      0.0417
     24  CE2       31.4020   23.9910   42.0450 C.ar  148  TYR148      0.0417
     25  CZ        30.7940   24.9560   42.8380 C.ar  148  TYR148      0.1957
     26  OH        29.4140   25.0440   43.0040 O.3   148  TYR148     -0.2866
     27  N         31.6620   19.4490   44.4470 N.3   153  ILE153     -0.1245
     28  CA        30.4780   20.0470   45.0780 C.3   153  ILE153      0.1561
     29  C         29.2810   19.5310   44.3190 C.2   153  ILE153      0.2260
     30  O         29.2630   19.5190   43.0900 O.2   153  ILE153     -0.2867
     31  CB        30.4970   21.5750   45.0710 C.3   153  ILE153      0.0252
     32  CG1       31.5410   22.0960   46.0430 C.3   153  ILE153      0.0019
     33  CG2       29.1390   22.1610   45.4960 C.3   153  ILE153      0.0019
     34  CD1       31.9250   23.5180   45.8240 C.3   153  ILE153      0.0001
     35  N         24.7220   19.1020   44.4410 N.3   155  THR155     -0.1218
     36  CA        23.4430   19.5370   44.9710 C.3   155  THR155      0.1862
     37  C         22.4660   18.3750   44.8300 C.2   155  THR155      0.2287
     38  O         22.3760   17.7250   43.7780 O.2   155  THR155     -0.2866
     39  CB        22.9650   20.8080   44.2540 C.3   155  THR155      0.1770
     40  OG1       23.9510   21.8410   44.4360 O.3   155  THR155     -0.2211
     41  CG2       21.6330   21.2990   44.8230 C.3   155  THR155      0.0375
     42  N         24.6970   23.9350   52.4640 N.3   166  CYS166     -0.1221
     43  CA        24.4260   25.1780   51.8050 C.3   166  CYS166      0.1808
     44  C         23.0180   25.0960   51.1990 C.2   166  CYS166      0.2601
     45  O         22.7380   24.2410   50.3590 O.2   166  CYS166     -0.2717
     46  CB        25.5020   25.4730   50.7470 C.3   166  CYS166      0.0970
     47  SG        25.1320   26.9050   49.6560 S.3   166  CYS166     -0.0800
     48  N         22.1160   25.9400   51.6910 N.am  167  LEU167     -0.1965
     49  CA        20.7180   25.9190   51.2530 C.3   167  LEU167      0.1728
     50  C         20.4090   27.1850   50.4560 C.2   167  LEU167      0.2616
     51  O         21.2350   28.0960   50.3630 O.2   167  LEU167     -0.2715
     52  CB        19.7920   25.7990   52.4600 C.3   167  LEU167      0.0311
     53  CG        20.1980   24.6830   53.4150 C.3   167  LEU167      0.0022
     54  CD1       19.3200   24.6620   54.6170 C.3   167  LEU167      0.0001
     55  CD2       20.1350   23.3320   52.7080 C.3   167  LEU167      0.0001
     56  N         19.2090   27.2500   49.8980 N.am  168  TYR168     -0.1974
     57  CA        18.8190   28.3650   49.0580 C.3   168  TYR168      0.1639
     58  C         17.3680   28.7400   49.3220 C.2   168  TYR168      0.2290
     59  O         16.4990   27.9020   49.1940 O.2   168  TYR168     -0.2864
     60  CB        19.0010   27.9920   47.5930 C.3   168  TYR168      0.0560
     61  CG        18.8220   29.1440   46.6420 C.ar  168  TYR168     -0.0198
     62  CD1       19.7560   30.1570   46.5810 C.ar  168  TYR168     -0.0009
     63  CD2       17.7160   29.2200   45.7960 C.ar  168  TYR168     -0.0009
     64  CE1       19.6080   31.2110   45.7030 C.ar  168  TYR168      0.0417
     65  CE2       17.5710   30.2710   44.9080 C.ar  168  TYR168      0.0417
     66  CZ        18.5220   31.2620   44.8660 C.ar  168  TYR168      0.1957
     67  OH        18.3980   32.3190   43.9920 O.3   168  TYR168     -0.2866
     68  N         21.7070   32.5570   49.1150 N.3   185  ASN185     -0.1240
     69  CA        22.4840   31.3730   49.5080 C.3   185  ASN185      0.1653
     70  C         22.8270   31.4560   50.9820 C.2   185  ASN185      0.2266
     71  O         23.3270   32.5030   51.4330 O.2   185  ASN185     -0.2867
     72  CB        23.7600   31.2920   48.6990 C.3   185  ASN185      0.1155
     73  CG        23.5010   31.2800   47.2150 C.2   185  ASN185      0.2627
     74  OD1       23.0920   30.2500   46.6450 O.2   185  ASN185     -0.2716
     75  ND2       23.7380   32.4160   46.5710 N.am  185  ASN185     -0.0877
     76  N         14.1090   26.1500   49.4000 N.3   226  LEU226     -0.1245
     77  CA        14.0800   25.0760   48.4170 C.3   226  LEU226      0.1561
     78  C         14.3640   23.7410   49.0710 C.2   226  LEU226      0.2260
     79  O         15.1330   23.6610   50.0190 O.2   226  LEU226     -0.2867
     80  CB        15.1300   25.3050   47.3220 C.3   226  LEU226      0.0270
     81  CG        14.9270   26.4090   46.2980 C.3   226  LEU226      0.0019
     82  CD1       15.9370   26.1820   45.1770 C.3   226  LEU226      0.0001
     83  CD2       13.4880   26.4310   45.7660 C.3   226  LEU226      0.0001
     84  N         16.5030   21.3690   48.6660 N.3   228  GLN228     -0.1245
     85  CA        17.7830   20.9310   48.1280 C.3   228  GLN228      0.1566
     86  C         18.8790   21.3200   49.0750 C.2   228  GLN228      0.2260
     87  O         18.7220   22.2570   49.8490 O.2   228  GLN228     -0.2867
     88  CB        18.0540   21.5560   46.7620 C.3   228  GLN228      0.0367
     89  CG        18.4020   23.0420   46.8320 C.3   228  GLN228      0.0905
     90  CD        18.7060   23.6500   45.4670 C.2   228  GLN228      0.2608
     91  OE1       18.1470   23.2540   44.4570 O.2   228  GLN228     -0.2717
     92  NE2       19.6170   24.6200   45.4440 N.am  228  GLN228     -0.0878
     93  N         23.3250   21.8540   48.9990 N.3   230  THR230     -0.1218
     94  CA        24.6070   21.8240   48.2870 C.3   230  THR230      0.1862
     95  C         25.6650   21.3810   49.2830 C.2   230  THR230      0.2287
     96  O         25.6960   21.8790   50.4170 O.2   230  THR230     -0.2866
     97  CB        24.9410   23.1800   47.6840 C.3   230  THR230      0.1770
     98  OG1       24.0190   23.4480   46.6220 O.3   230  THR230     -0.2211
     99  CG2       26.3640   23.2200   47.1400 C.3   230  THR230      0.0375
@<TRIPOS>BOND
     1    18    17    2
     2     4     3    2
     3     3     2    1
     4     1     2    1
     5    15    16    1
     6     5     2    1
     7     5     6    1
     8    17    16    1
     9    22    24   ar
    10    22    20   ar
    11     7     6   ar
    12     7     9   ar
    13    24    25   ar
    14    16    19    1
    15     6     8   ar
    16    19    20    1
    17    20    21   ar
    18    25    26    1
    19    25    23   ar
    20    30    29    2
    21     9    10   ar
    22    21    23   ar
    23     8    10   ar
    24     8    11   ar
    25    38    37    2
    26    67    66    1
    27    10    12   ar
    28    39    40    1
    29    39    41    1
    30    39    36    1
    31    29    28    1
    32    35    36    1
    33    27    28    1
    34    91    90    2
    35    11    13   ar
    36    37    36    1
    37    66    65   ar
    38    66    64   ar
    39    65    63   ar
    40    31    28    1
    41    31    33    1
    42    31    32    1
    43    82    81    1
    44    12    14   ar
    45    92    90   am
    46    90    89    1
    47    64    62   ar
    48    83    81    1
    49    63    61   ar
    50    34    32    1
    51    13    14   ar
    52    81    80    1
    53    75    73   am
    54    62    61   ar
    55    98    97    1
    56    61    60    1
    57    74    73    2
    58    88    89    1
    59    88    85    1
    60    99    97    1
    61    73    72    1
    62    80    77    1
    63    60    57    1
    64    97    94    1
    65    85    84    1
    66    85    86    1
    67    94    93    1
    68    94    95    1
    69    77    78    1
    70    77    76    1
    71    72    69    1
    72    57    58    1
    73    57    56    1
    74    78    79    2
    75    86    87    2
    76    68    69    1
    77    59    58    2
    78    95    96    2
    79    69    70    1
    80    47    46    1
    81    56    50   am
    82    45    44    2
    83    51    50    2
    84    50    49    1
    85    46    43    1
    86    70    71    2
    87    44    48   am
    88    44    43    1
    89    49    48    1
    90    49    52    1
    91    43    42    1
    92    52    53    1
    93    55    53    1
    94    53    54    1
