@<TRIPOS>MOLECULE
tmp/4pa5B00.pdb
 111 108 0 0 0
SMALL
GASTEIGER

@<TRIPOS>ATOM
      1  N         42.0460   24.1670   36.9010 N.3   146  TRP146     -0.1241
      2  CA        40.8550   23.3740   37.2280 C.3   146  TRP146      0.1605
      3  C         39.7300   24.1960   37.8240 C.2   146  TRP146      0.2264
      4  O         38.9820   23.6980   38.6810 O.2   146  TRP146     -0.2867
      5  CB        41.2360   22.2670   38.2080 C.3   146  TRP146      0.0550
      6  CG        41.9850   21.1460   37.5920 C.ar  146  TRP146      0.0003
      7  CD1       43.3340   20.9000   37.6830 C.ar  146  TRP146      0.0946
      8  CD2       41.4400   20.1180   36.7660 C.ar  146  TRP146      0.0152
      9  NE1       43.6460   19.7730   36.9740 N.ar  146  TRP146     -0.2442
     10  CE2       42.5130   19.2670   36.4070 C.ar  146  TRP146      0.0810
     11  CE3       40.1540   19.8250   36.3040 C.ar  146  TRP146      0.0012
     12  CZ2       42.3330   18.1610   35.6000 C.ar  146  TRP146      0.0191
     13  CZ3       39.9760   18.7160   35.5120 C.ar  146  TRP146      0.0001
     14  CH2       41.0590   17.8940   35.1730 C.ar  146  TRP146      0.0015
     15  N         36.1300   25.6120   37.6900 N.3   148  TYR148     -0.1241
     16  CA        34.8850   25.5100   36.9580 C.3   148  TYR148      0.1605
     17  C         33.7790   26.1960   37.6730 C.2   148  TYR148      0.2264
     18  O         33.7740   26.3340   38.9100 O.2   148  TYR148     -0.2867
     19  CB        34.5280   24.0490   36.6590 C.3   148  TYR148      0.0534
     20  CG        35.0550   23.0400   37.6440 C.ar  148  TYR148     -0.0201
     21  CD1       36.2570   22.3800   37.4320 C.ar  148  TYR148     -0.0009
     22  CD2       34.3380   22.7700   38.7710 C.ar  148  TYR148     -0.0009
     23  CE1       36.7140   21.4430   38.3470 C.ar  148  TYR148      0.0417
     24  CE2       34.7730   21.8870   39.6850 C.ar  148  TYR148      0.0417
     25  CZ        35.9460   21.2250   39.4870 C.ar  148  TYR148      0.1957
     26  OH        36.2790   20.3660   40.4590 O.3   148  TYR148     -0.2866
     27  N         31.7530   17.8730   39.9370 N.3   153  ILE153     -0.1231
     28  CA        32.8250   17.0110   39.4550 C.3   153  ILE153      0.1692
     29  C         33.3970   16.2450   40.6290 C.2   153  ILE153      0.2592
     30  O         33.6090   16.7870   41.7100 O.2   153  ILE153     -0.2718
     31  CB        33.9070   17.8320   38.7330 C.3   153  ILE153      0.0266
     32  CG1       33.3660   18.2990   37.3830 C.3   153  ILE153      0.0019
     33  CG2       35.1290   17.0050   38.4810 C.3   153  ILE153      0.0020
     34  CD1       34.2360   19.3250   36.6830 C.3   153  ILE153      0.0001
     35  N         33.6110   14.9560   40.4280 N.am  154  TYR154     -0.1962
     36  CA        34.1600   14.1360   41.4870 C.3   154  TYR154      0.1771
     37  C         35.2700   13.2580   40.9250 C.2   154  TYR154      0.2620
     38  O         35.3560   13.0330   39.7170 O.2   154  TYR154     -0.2715
     39  CB        33.0670   13.2840   42.1490 C.3   154  TYR154      0.0574
     40  CG        32.4460   12.1840   41.2980 C.ar  154  TYR154     -0.0198
     41  CD1       32.8830   10.8790   41.3820 C.ar  154  TYR154     -0.0009
     42  CD2       31.4040   12.4580   40.4330 C.ar  154  TYR154     -0.0009
     43  CE1       32.3050    9.8780   40.6150 C.ar  154  TYR154      0.0417
     44  CE2       30.8310   11.4820   39.6700 C.ar  154  TYR154      0.0417
     45  CZ        31.2840   10.1910   39.7590 C.ar  154  TYR154      0.1957
     46  OH        30.6920    9.2310   38.9840 O.3   154  TYR154     -0.2866
     47  N         36.1400   12.8210   41.8170 N.am  155  THR155     -0.1951
     48  CA        37.2220   11.9210   41.4560 C.3   155  THR155      0.1897
     49  C         37.0590   10.6970   42.3410 C.2   155  THR155      0.2313
     50  O         36.8650   10.8160   43.5420 O.2   155  THR155     -0.2863
     51  CB        38.6120   12.5970   41.6080 C.3   155  THR155      0.1794
     52  OG1       38.7680   13.6230   40.6150 O.3   155  THR155     -0.2208
     53  CG2       39.7280   11.6280   41.3720 C.3   155  THR155      0.0378
     54  N         37.8730   11.4050   32.6280 N.3   166  CYS166     -0.1221
     55  CA        39.1530   12.1180   32.7140 C.3   166  CYS166      0.1808
     56  C         40.1230   11.3510   33.6220 C.2   166  CYS166      0.2601
     57  O         39.8600   11.1540   34.8250 O.2   166  CYS166     -0.2717
     58  CB        38.9340   13.5380   33.2220 C.3   166  CYS166      0.0970
     59  SG        40.4550   14.4470   33.4320 S.3   166  CYS166     -0.0800
     60  N         41.2130   10.8630   33.0150 N.am  167  LEU167     -0.1965
     61  CA        42.2230   10.0430   33.6800 C.3   167  LEU167      0.1728
     62  C         43.5420   10.8000   33.7680 C.2   167  LEU167      0.2616
     63  O         43.6480   11.9210   33.2700 O.2   167  LEU167     -0.2715
     64  CB        42.4230    8.7220   32.9250 C.3   167  LEU167      0.0311
     65  CG        41.1590    7.9490   32.5020 C.3   167  LEU167      0.0022
     66  CD1       41.5470    6.5880   31.9120 C.3   167  LEU167      0.0001
     67  CD2       40.1800    7.7330   33.6540 C.3   167  LEU167      0.0001
     68  N         44.5520   10.1980   34.3930 N.am  168  TYR168     -0.1974
     69  CA        45.8270   10.8800   34.6230 C.3   168  TYR168      0.1639
     70  C         46.9780    9.9020   34.5810 C.2   168  TYR168      0.2290
     71  O         46.9680    8.8920   35.2780 O.2   168  TYR168     -0.2864
     72  CB        45.8100   11.5930   35.9700 C.3   168  TYR168      0.0560
     73  CG        47.0170   12.4610   36.2820 C.ar  168  TYR168     -0.0198
     74  CD1       47.1380   13.7430   35.7460 C.ar  168  TYR168     -0.0009
     75  CD2       48.0120   12.0250   37.1540 C.ar  168  TYR168     -0.0009
     76  CE1       48.2460   14.5630   36.0550 C.ar  168  TYR168      0.0417
     77  CE2       49.1230   12.8440   37.4640 C.ar  168  TYR168      0.0417
     78  CZ        49.2200   14.0960   36.9120 C.ar  168  TYR168      0.1957
     79  OH        50.3070   14.8720   37.2380 O.3   168  TYR168     -0.2866
     80  N         46.9610   15.0020   32.1090 N.3   185  ASN185     -0.1240
     81  CA        45.5070   14.8470   32.1450 C.3   185  ASN185      0.1653
     82  C         44.9760   14.4610   30.7840 C.2   185  ASN185      0.2266
     83  O         45.2860   15.1120   29.7990 O.2   185  ASN185     -0.2867
     84  CB        44.8140   16.1390   32.5700 C.3   185  ASN185      0.1155
     85  CG        45.3000   16.6630   33.9080 C.2   185  ASN185      0.2627
     86  OD1       44.9310   16.1400   34.9640 O.2   185  ASN185     -0.2716
     87  ND2       46.1360   17.6980   33.8710 N.am  185  ASN185     -0.0877
     88  N         47.3480    6.2180   36.5180 N.3   226  LEU226     -0.1245
     89  CA        46.7840    6.1910   37.8610 C.3   226  LEU226      0.1561
     90  C         45.4640    5.4580   37.8600 C.2   226  LEU226      0.2260
     91  O         44.7330    5.5010   36.8780 O.2   226  LEU226     -0.2867
     92  CB        46.5470    7.6090   38.4040 C.3   226  LEU226      0.0270
     93  CG        47.5780    8.3140   39.2810 C.3   226  LEU226      0.0019
     94  CD1       46.9670    9.6020   39.8330 C.3   226  LEU226      0.0001
     95  CD2       48.0980    7.4220   40.4150 C.3   226  LEU226      0.0001
     96  N         42.3090    5.9800   38.9220 N.3   228  GLN228     -0.1245
     97  CA        41.3420    6.9660   39.3790 C.3   228  GLN228      0.1566
     98  C         40.6710    7.5390   38.1630 C.2   228  GLN228      0.2260
     99  O         41.2190    7.4500   37.0710 O.2   228  GLN228     -0.2867
    100  CB        42.0210    8.0760   40.1740 C.3   228  GLN228      0.0367
    101  CG        42.7830    9.0600   39.2860 C.3   228  GLN228      0.0905
    102  CD        43.2770   10.2630   40.0360 C.2   228  GLN228      0.2608
    103  OE1       43.6880   10.1600   41.1870 O.2   228  GLN228     -0.2717
    104  NE2       43.2180   11.4250   39.3920 N.am  228  GLN228     -0.0878
    105  N         38.0590   11.0090   36.8850 N.3   230  THR230     -0.1218
    106  CA        37.4150   12.2720   37.2200 C.3   230  THR230      0.1862
    107  C         36.1800   12.3340   36.3450 C.2   230  THR230      0.2287
    108  O         36.2560   12.1150   35.1260 O.2   230  THR230     -0.2866
    109  CB        38.3440   13.4970   36.9970 C.3   230  THR230      0.1770
    110  OG1       39.3570   13.5330   38.0230 O.3   230  THR230     -0.2211
    111  CG2       37.5220   14.8280   37.0230 C.3   230  THR230      0.0375
@<TRIPOS>BOND
     1    83    82    2
     2    82    81    1
     3    66    65    1
     4    80    81    1
     5    81    84    1
     6    65    64    1
     7    65    67    1
     8    84    85    1
     9    54    55    1
    10    55    58    1
    11    55    56    1
    12    64    61    1
    13    60    56   am
    14    60    61    1
    15    58    59    1
    16    63    62    2
    17    56    57    2
    18    61    62    1
    19    62    68   am
    20    87    85   am
    21    85    86    2
    22    68    69    1
    23    70    69    1
    24    70    71    2
    25    69    72    1
    26   108   107    2
    27    14    13   ar
    28    14    12   ar
    29    13    11   ar
    30    12    10   ar
    31    74    76   ar
    32    74    73   ar
    33    72    73    1
    34    76    78   ar
    35    73    75   ar
    36    11     8   ar
    37   107   106    1
    38    10     8   ar
    39    10     9   ar
    40    88    89    1
    41    19    16    1
    42    19    20    1
    43    34    32    1
    44     8     6   ar
    45    91    90    2
    46   105   106    1
    47     1     2    1
    48    78    79    1
    49    78    77   ar
    50    16    17    1
    51    16    15    1
    52     9     7   ar
    53   109   111    1
    54   109   106    1
    55   109   110    1
    56    99    98    2
    57    75    77   ar
    58     2     3    1
    59     2     5    1
    60    32    31    1
    61    21    20   ar
    62    21    23   ar
    63     6     7   ar
    64     6     5    1
    65    20    22   ar
    66    17    18    2
    67     3     4    2
    68    90    89    1
    69    89    92    1
    70    98    97    1
    71    23    25   ar
    72    92    93    1
    73    33    31    1
    74    31    28    1
    75    22    24   ar
    76    96    97    1
    77    46    45    1
    78    93    94    1
    79    93    95    1
    80   101   102    1
    81   101   100    1
    82    97   100    1
    83   104   102   am
    84    28    27    1
    85    28    29    1
    86    25    24   ar
    87    25    26    1
    88    44    45   ar
    89    44    42   ar
    90    38    37    2
    91    45    43   ar
    92   102   103    2
    93    35    29   am
    94    35    36    1
    95    42    40   ar
    96    43    41   ar
    97    52    51    1
    98    29    30    2
    99    37    36    1
   100    37    47   am
   101    40    41   ar
   102    40    39    1
   103    53    51    1
   104    48    51    1
   105    48    47    1
   106    48    49    1
   107    36    39    1
   108    49    50    2
