@<TRIPOS>MOLECULE
tmp/4pa8A00.pdb
 139 134 0 0 0
SMALL
GASTEIGER

@<TRIPOS>ATOM
      1  N         11.6170   -8.8270    9.1500 N.3     7  TRP7       -0.1227
      2  CA        10.6970   -8.8320    8.0310 C.3     7  TRP7        0.1737
      3  C          9.3140   -9.2410    8.5490 C.2     7  TRP7        0.2595
      4  O          8.3030   -8.7770    8.0490 O.2     7  TRP7       -0.2718
      5  CB        11.1440   -9.7480    6.8790 C.3     7  TRP7        0.0564
      6  CG        11.1130  -11.1930    7.1640 C.ar    7  TRP7        0.0003
      7  CD1       12.1650  -12.0170    7.5700 C.ar    7  TRP7        0.0946
      8  CD2        9.9410  -12.0720    7.0490 C.ar    7  TRP7        0.0152
      9  NE1       11.6370  -13.2890    7.7170 N.ar    7  TRP7       -0.2442
     10  CE2       10.3260  -13.3620    7.4000 C.ar    7  TRP7        0.0810
     11  CE3        8.6250  -11.8450    6.6620 C.ar    7  TRP7        0.0012
     12  CZ2        9.4260  -14.4150    7.3970 C.ar    7  TRP7        0.0191
     13  CZ3        7.7130  -12.9100    6.6540 C.ar    7  TRP7        0.0001
     14  CH2        8.1420  -14.1690    7.0110 C.ar    7  TRP7        0.0015
     15  N          9.2420  -10.1480    9.5260 N.am    8  LEU8       -0.1980
     16  CA         7.9460  -10.6300    9.9840 C.3     8  LEU8        0.1596
     17  C          7.1770   -9.5180   10.7100 C.2     8  LEU8        0.2287
     18  O          5.9760   -9.3450   10.5190 O.2     8  LEU8       -0.2864
     19  CB         8.1220  -11.8330   10.8720 C.3     8  LEU8        0.0297
     20  CG         6.8780  -12.4910   11.4140 C.3     8  LEU8        0.0022
     21  CD1        5.9440  -12.9580   10.2870 C.3     8  LEU8        0.0001
     22  CD2        7.2290  -13.7020   12.2680 C.3     8  LEU8        0.0001
     23  N          1.9780  -19.0520   -5.5940 N.3    52  LEU52      -0.1245
     24  CA         2.7730  -17.9660   -4.9940 C.3    52  LEU52       0.1561
     25  C          3.5130  -17.3580   -6.1740 C.2    52  LEU52       0.2260
     26  O          4.3600  -18.0230   -6.8070 O.2    52  LEU52      -0.2867
     27  CB         3.7430  -18.4970   -3.9510 C.3    52  LEU52       0.0270
     28  CG         4.6530  -17.6650   -3.0550 C.3    52  LEU52       0.0019
     29  CD1        5.1280  -18.4270   -1.8160 C.3    52  LEU52       0.0001
     30  CD2        5.8580  -17.2680   -3.8550 C.3    52  LEU52       0.0001
     31  N         -1.2650  -17.2590   -2.0830 N.3    74  LYS74      -0.1245
     32  CA        -0.5260  -16.3170   -1.2430 C.3    74  LYS74       0.1561
     33  C         -0.9020  -14.8880   -1.5990 C.2    74  LYS74       0.2260
     34  O         -0.5390  -14.4450   -2.6960 O.2    74  LYS74      -0.2867
     35  CB         0.9810  -16.5240   -1.3890 C.3    74  LYS74       0.0271
     36  CG         1.7320  -15.9370   -0.2020 C.3    74  LYS74       0.0035
     37  CD         1.7620  -16.9530    0.8990 C.3    74  LYS74       0.0206
     38  CE         2.6390  -16.6120    2.0840 C.3    74  LYS74       0.1093
     39  NZ         2.6930  -17.8350    2.9590 N.3    74  LYS74      -0.1314
     40  N          5.5270  -11.1840   -0.8620 N.3    80  PHE80      -0.1241
     41  CA         5.1860  -12.4240   -1.5480 C.3    80  PHE80       0.1605
     42  C          4.4230  -12.1660   -2.8230 C.2    80  PHE80       0.2264
     43  O          3.9060  -13.0920   -3.4150 O.2    80  PHE80      -0.2867
     44  CB         4.4200  -13.3570   -0.6090 C.3    80  PHE80       0.0534
     45  CG         5.1910  -13.7950    0.5910 C.ar   80  PHE80      -0.0203
     46  CD1        5.1550  -13.1330    1.8030 C.ar   80  PHE80      -0.0042
     47  CD2        6.0440  -14.8960    0.4470 C.ar   80  PHE80      -0.0042
     48  CE1        5.9600  -13.5760    2.8660 C.ar   80  PHE80      -0.0003
     49  CE2        6.7750  -15.3630    1.5300 C.ar   80  PHE80      -0.0003
     50  CZ         6.7430  -14.7130    2.7170 C.ar   80  PHE80      -0.0000
     51  N         -3.8090  -17.5950    1.9660 N.3   101  ASN101     -0.1225
     52  CA        -2.5390  -17.7780    2.6900 C.3   101  ASN101      0.1785
     53  C         -1.8870  -16.3960    2.8000 C.2   101  ASN101      0.2597
     54  O         -1.4460  -15.8030    1.8240 O.2   101  ASN101     -0.2718
     55  CB        -1.7060  -18.7960    1.9380 C.3   101  ASN101      0.1169
     56  CG        -0.5360  -19.2650    2.6910 C.2   101  ASN101      0.2627
     57  OD1        0.0060  -18.5250    3.5020 O.2   101  ASN101     -0.2716
     58  ND2       -0.1420  -20.5350    2.4960 N.am  101  ASN101     -0.0877
     59  N         -1.9240  -15.8780    4.0230 N.am  102  ASP102     -0.1960
     60  CA        -1.4960  -14.4970    4.3010 C.3   102  ASP102      0.1840
     61  C         -1.1790  -14.4390    5.7830 C.2   102  ASP102      0.2622
     62  O         -1.1770  -15.4560    6.4700 O.2   102  ASP102     -0.2715
     63  CB        -2.5800  -13.5060    3.8360 C.3   102  ASP102      0.1450
     64  CG        -2.1530  -12.1050    3.5140 C.2   102  ASP102      0.3671
     65  OD1       -1.1850  -11.5990    4.0990 O.co2 102  ASP102     -0.2456
     66  OD2       -2.7990  -11.4730    2.6370 O.co2 102  ASP102     -0.2456
     67  N         -0.9150  -13.2530    6.2730 N.am  103  PHE103     -0.1974
     68  CA        -0.6160  -12.9740    7.6840 C.3   103  PHE103      0.1639
     69  C         -1.8670  -12.3050    8.2630 C.2   103  PHE103      0.2290
     70  O         -2.0180  -11.0980    8.1970 O.2   103  PHE103     -0.2864
     71  CB         0.6100  -12.0790    7.8220 C.3   103  PHE103      0.0560
     72  CG         1.8510  -12.7530    7.2330 C.ar  103  PHE103     -0.0200
     73  CD1        2.1360  -12.6660    5.8680 C.ar  103  PHE103     -0.0042
     74  CD2        2.6830  -13.4930    8.0530 C.ar  103  PHE103     -0.0042
     75  CE1        3.2180  -13.2820    5.3550 C.ar  103  PHE103     -0.0003
     76  CE2        3.7760  -14.1260    7.5050 C.ar  103  PHE103     -0.0003
     77  CZ         4.0480  -14.0510    6.1670 C.ar  103  PHE103     -0.0000
     78  N         -5.5460  -19.0320    6.5970 N.3   122  LEU122     -0.1245
     79  CA        -4.4840  -19.4880    7.4640 C.3   122  LEU122      0.1561
     80  C         -4.4090  -18.5830    8.6880 C.2   122  LEU122      0.2260
     81  O         -4.4430  -17.3600    8.5240 O.2   122  LEU122     -0.2867
     82  CB        -3.1520  -19.4010    6.6940 C.3   122  LEU122      0.0270
     83  CG        -1.9410  -19.9940    7.4270 C.3   122  LEU122      0.0019
     84  CD1       -2.0210  -21.5150    7.3770 C.3   122  LEU122      0.0001
     85  CD2       -0.6590  -19.4840    6.7920 C.3   122  LEU122      0.0001
     86  N         -1.8180  -18.1110   12.1180 N.3   124  ILE124     -0.1245
     87  CA        -0.4440  -18.5080   12.5390 C.3   124  ILE124      0.1561
     88  C         -0.3320  -18.2960   14.0270 C.2   124  ILE124      0.2260
     89  O         -0.3720  -17.1760   14.5490 O.2   124  ILE124     -0.2867
     90  CB         0.5960  -17.7240   11.7660 C.3   124  ILE124      0.0252
     91  CG1        0.4950  -17.9240   10.2580 C.3   124  ILE124      0.0019
     92  CG2        2.0010  -18.0430   12.2960 C.3   124  ILE124      0.0019
     93  CD1        1.2810  -16.9450    9.4350 C.3   124  ILE124      0.0001
     94  N          2.0270  -18.4770   16.2610 N.3   126  ASN126     -0.1225
     95  CA         3.1540  -17.7950   16.8980 C.3   126  ASN126      0.1785
     96  C          3.2710  -16.3160   16.5490 C.2   126  ASN126      0.2597
     97  O          4.1520  -15.6830   17.0940 O.2   126  ASN126     -0.2718
     98  CB         4.4100  -18.5930   16.6790 C.3   126  ASN126      0.1169
     99  CG         4.9860  -18.4720   15.3240 C.2   126  ASN126      0.2627
    100  OD1        4.4860  -17.8140   14.4840 O.2   126  ASN126     -0.2716
    101  ND2        6.1120  -19.2040   15.2160 N.am  126  ASN126     -0.0877
    102  N          2.3390  -15.7180   15.8010 N.am  127  ILE127     -0.1980
    103  CA         2.3350  -14.2620   15.6960 C.3   127  ILE127      0.1595
    104  C          1.2020  -13.6230   16.4950 C.2   127  ILE127      0.2287
    105  O          1.1640  -12.4130   16.5710 O.2   127  ILE127     -0.2864
    106  CB         2.3200  -13.8040   14.2100 C.3   127  ILE127      0.0276
    107  CG1        1.0390  -14.0960   13.4790 C.3   127  ILE127      0.0022
    108  CG2        3.5460  -14.2990   13.4870 C.3   127  ILE127      0.0022
    109  CD1        0.9570  -13.6320   12.0470 C.3   127  ILE127      0.0001
    110  N         -1.7440  -22.9030   11.8930 N.3   150  LEU150     -0.1245
    111  CA        -0.3550  -23.3330   11.7480 C.3   150  LEU150      0.1561
    112  C          0.3670  -23.3620   13.0830 C.2   150  LEU150      0.2260
    113  O          0.4650  -22.3500   13.7700 O.2   150  LEU150     -0.2867
    114  CB         0.3260  -22.3880   10.7770 C.3   150  LEU150      0.0270
    115  CG         1.7010  -22.7660   10.2510 C.3   150  LEU150      0.0019
    116  CD1        1.9410  -22.0570    8.9340 C.3   150  LEU150      0.0001
    117  CD2        2.8310  -22.3870   11.1970 C.3   150  LEU150      0.0001
    118  N          4.3480  -28.1730   10.0310 N.3   171  PHE171     -0.1241
    119  CA         5.5270  -28.2750    9.1690 C.3   171  PHE171      0.1605
    120  C          6.7070  -29.1030    9.6770 C.2   171  PHE171      0.2264
    121  O          6.6600  -29.5790   10.8100 O.2   171  PHE171     -0.2867
    122  CB         6.0620  -26.8820    8.8690 C.3   171  PHE171      0.0534
    123  CG         5.1900  -26.0970    7.9140 C.ar  171  PHE171     -0.0203
    124  CD1        5.7060  -25.7320    6.6900 C.ar  171  PHE171     -0.0042
    125  CD2        3.8830  -25.7280    8.2070 C.ar  171  PHE171     -0.0042
    126  CE1        4.9440  -25.0160    5.8110 C.ar  171  PHE171     -0.0003
    127  CE2        3.1410  -25.0120    7.2970 C.ar  171  PHE171     -0.0003
    128  CZ         3.6510  -24.6440    6.0910 C.ar  171  PHE171     -0.0000
    129  N          9.9770  -22.5240   12.0730 N.3   175  PHE175     -0.1241
    130  CA         9.9280  -21.1500   11.5920 C.3   175  PHE175      0.1605
    131  C         10.4800  -20.2190   12.6910 C.2   175  PHE175      0.2264
    132  O         11.6440  -20.2380   13.0710 O.2   175  PHE175     -0.2867
    133  CB         8.5390  -20.6780   11.1540 C.3   175  PHE175      0.0534
    134  CG         7.9560  -21.3750    9.9120 C.ar  175  PHE175     -0.0203
    135  CD1        8.7980  -21.9810    9.0040 C.ar  175  PHE175     -0.0042
    136  CD2        6.5780  -21.3290    9.7110 C.ar  175  PHE175     -0.0042
    137  CE1        8.2270  -22.5480    7.8830 C.ar  175  PHE175     -0.0003
    138  CE2        6.0260  -21.8950    8.5870 C.ar  175  PHE175     -0.0003
    139  CZ         6.8730  -22.5040    7.6760 C.ar  175  PHE175     -0.0000
@<TRIPOS>BOND
     1    26    25    2
     2    25    24    1
     3    23    24    1
     4    24    27    1
     5    27    28    1
     6    30    28    1
     7    43    42    2
     8    28    29    1
     9    42    41    1
    10    34    33    2
    11    31    32    1
    12    33    32    1
    13    41    40    1
    14    41    44    1
    15    35    32    1
    16    35    36    1
    17    44    45    1
    18    36    37    1
    19    47    45   ar
    20    47    49   ar
    21    45    46   ar
    22    37    38    1
    23    49    50   ar
    24    46    48   ar
    25    54    53    2
    26    55    52    1
    27    55    56    1
    28    51    52    1
    29    38    39    1
    30    58    56   am
    31    66    64   ar
    32    52    53    1
    33    56    57    2
    34    50    48   ar
    35    53    59   am
    36    64    63    1
    37    64    65   ar
    38    63    60    1
    39    59    60    1
    40    60    61    1
    41    75    73   ar
    42    75    77   ar
    43    61    67   am
    44    61    62    2
    45   126   128   ar
    46   126   124   ar
    47    73    72   ar
    48   128   127   ar
    49    77    76   ar
    50    67    68    1
    51    78    79    1
    52    13    11   ar
    53    13    14   ar
    54    11     8   ar
    55   124   123   ar
    56    82    83    1
    57    82    79    1
    58    85    83    1
    59     5     6    1
    60     5     2    1
    61    14    12   ar
    62     8     6   ar
    63     8    10   ar
    64     6     7   ar
    65    72    71    1
    66    72    74   ar
    67   127   125   ar
    68    84    83    1
    69    12    10   ar
    70    10     9   ar
    71    79    80    1
    72    76    74   ar
    73     7     9   ar
    74   139   137   ar
    75   139   138   ar
    76    68    71    1
    77    68    69    1
    78   137   135   ar
    79   123   125   ar
    80   123   122    1
    81     2     3    1
    82     2     1    1
    83     4     3    2
    84    70    69    2
    85    81    80    2
    86     3    15   am
    87   138   136   ar
    88   122   119    1
    89   116   115    1
    90   135   134   ar
    91   119   120    1
    92   119   118    1
    93    93    91    1
    94    15    16    1
    95   120   121    2
    96   136   134   ar
    97   134   133    1
    98    16    17    1
    99    16    19    1
   100   115   114    1
   101   115   117    1
   102    91    90    1
   103    21    20    1
   104    18    17    2
   105   114   111    1
   106    19    20    1
   107   133   130    1
   108    20    22    1
   109   130   129    1
   110   130   131    1
   111   111   110    1
   112   111   112    1
   113    90    92    1
   114    90    87    1
   115   109   107    1
   116    86    87    1
   117    87    88    1
   118   131   132    2
   119   112   113    2
   120   107   106    1
   121   108   106    1
   122    88    89    2
   123   106   103    1
   124   100    99    2
   125   101    99   am
   126    99    98    1
   127   103   102    1
   128   103   104    1
   129   102    96   am
   130    94    95    1
   131   104   105    2
   132    96    95    1
   133    96    97    2
   134    98    95    1
