@<TRIPOS>MOLECULE
tmp/4pabB01.pdb
 203 195 0 0 0
SMALL
GASTEIGER

@<TRIPOS>ATOM
      1  N         39.6010    4.8790   22.9580 N.3   490  LEU490     -0.1245
      2  CA        38.9110    3.7670   23.6000 C.3   490  LEU490      0.1561
      3  C         39.1370    3.7340   25.1140 C.2   490  LEU490      0.2260
      4  O         38.7980    2.7450   25.7720 O.2   490  LEU490     -0.2867
      5  CB        39.3890    2.4580   22.9880 C.3   490  LEU490      0.0270
      6  CG        39.1090    2.2550   21.5080 C.3   490  LEU490      0.0019
      7  CD1       39.8030    1.0050   20.9870 C.3   490  LEU490      0.0001
      8  CD2       37.5980    2.2000   21.2810 C.3   490  LEU490      0.0001
      9  N         37.2570    1.9130   28.5690 N.3   493  PHE493     -0.1241
     10  CA        37.2200    0.5160   29.0050 C.3   493  PHE493      0.1605
     11  C         37.4400    0.3890   30.5160 C.2   493  PHE493      0.2264
     12  O         38.2580    1.1160   31.1120 O.2   493  PHE493     -0.2867
     13  CB        38.3270   -0.3270   28.3320 C.3   493  PHE493      0.0534
     14  CG        38.1150   -0.6310   26.8520 C.ar  493  PHE493     -0.0203
     15  CD1       36.8610   -0.8900   26.3250 C.ar  493  PHE493     -0.0042
     16  CD2       39.2080   -0.6800   26.0030 C.ar  493  PHE493     -0.0042
     17  CE1       36.6930   -1.1870   24.9650 C.ar  493  PHE493     -0.0003
     18  CE2       39.0610   -0.9740   24.6520 C.ar  493  PHE493     -0.0003
     19  CZ        37.7960   -1.2410   24.1330 C.ar  493  PHE493     -0.0000
     20  N         42.5440  -13.3530   24.2860 N.3   522  ASN522     -0.1225
     21  CA        41.2900  -13.8460   23.6850 C.3   522  ASN522      0.1785
     22  C         40.0300  -13.2030   24.2440 C.2   522  ASN522      0.2597
     23  O         40.0800  -12.4020   25.1860 O.2   522  ASN522     -0.2718
     24  CB        41.2300  -15.3950   23.7080 C.3   522  ASN522      0.1169
     25  CG        41.1480  -15.9820   25.1100 C.2   522  ASN522      0.2627
     26  OD1       40.7560  -15.3140   26.0530 O.2   522  ASN522     -0.2716
     27  ND2       41.5070  -17.2540   25.2380 N.am  522  ASN522     -0.0877
     28  N         38.9050  -13.5380   23.6290 N.am  523  ILE523     -0.1980
     29  CA        37.6100  -13.0600   24.0420 C.3   523  ILE523      0.1595
     30  C         36.9730  -14.1510   24.8860 C.2   523  ILE523      0.2287
     31  O         36.9430  -15.3290   24.4940 O.2   523  ILE523     -0.2864
     32  CB        36.7130  -12.7960   22.8320 C.3   523  ILE523      0.0276
     33  CG1       37.3870  -11.8210   21.8530 C.3   523  ILE523      0.0022
     34  CG2       35.3440  -12.3330   23.2810 C.3   523  ILE523      0.0022
     35  CD1       37.5640  -10.4240   22.3710 C.3   523  ILE523      0.0001
     36  N         31.3060  -10.0520   29.0550 N.3   536  GLU536     -0.1245
     37  CA        32.2500  -10.4070   28.0210 C.3   536  GLU536      0.1567
     38  C         33.5280   -9.6380   28.2990 C.2   536  GLU536      0.2260
     39  O         33.5050   -8.4160   28.3820 O.2   536  GLU536     -0.2867
     40  CB        31.7660  -10.0120   26.6290 C.3   536  GLU536      0.0388
     41  CG        32.7340  -10.4270   25.5260 C.3   536  GLU536      0.1160
     42  CD        32.1830  -10.2250   24.1310 C.2   536  GLU536      0.3649
     43  OE1       32.2290   -9.0810   23.6390 O.co2 536  GLU536     -0.2457
     44  OE2       31.7160  -11.2120   23.5220 O.co2 536  GLU536     -0.2457
     45  N         37.9200   -9.2240   27.4490 N.3   538  THR538     -0.1218
     46  CA        39.0680   -9.5510   26.6540 C.3   538  THR538      0.1862
     47  C         40.1800   -9.7890   27.6540 C.2   538  THR538      0.2287
     48  O         40.4210   -8.9500   28.5120 O.2   538  THR538     -0.2866
     49  CB        39.3720   -8.4100   25.6730 C.3   538  THR538      0.1770
     50  OG1       38.2100   -8.2020   24.8360 O.3   538  THR538     -0.2211
     51  CG2       40.4890   -8.7490   24.7970 C.3   538  THR538      0.0375
     52  N         39.7460   -6.5930   30.1500 N.3   550  ILE550     -0.1231
     53  CA        39.1750   -5.4010   29.5750 C.3   550  ILE550      0.1692
     54  C         37.6880   -5.6550   29.3620 C.2   550  ILE550      0.2593
     55  O         37.3180   -6.7160   28.8550 O.2   550  ILE550     -0.2718
     56  CB        39.8340   -5.0620   28.2250 C.3   550  ILE550      0.0266
     57  CG1       41.3040   -4.6560   28.4230 C.3   550  ILE550      0.0019
     58  CG2       39.1040   -3.9200   27.5340 C.3   550  ILE550      0.0020
     59  CD1       41.5040   -3.3460   29.1480 C.3   550  ILE550      0.0001
     60  N         36.8700   -4.6800   29.7640 N.am  551  THR551     -0.1939
     61  CA        35.4220   -4.7380   29.5930 C.3   551  THR551      0.2028
     62  C         34.9090   -3.3300   29.2250 C.2   551  THR551      0.2642
     63  O         35.6650   -2.3660   29.2300 O.2   551  THR551     -0.2714
     64  CB        34.7540   -5.2680   30.8750 C.3   551  THR551      0.1808
     65  OG1       33.3810   -5.6230   30.6100 O.3   551  THR551     -0.2208
     66  CG2       34.8570   -4.2530   32.0100 C.3   551  THR551      0.0379
     67  N         33.6330   -3.2180   28.8690 N.am  552  GLY552     -0.1954
     68  CA        33.0760   -1.9300   28.5170 C.3   552  GLY552      0.1869
     69  C         32.9560   -1.0280   29.7220 C.2   552  GLY552      0.2309
     70  O         32.8100   -1.5040   30.8490 O.2   552  GLY552     -0.2863
     71  N         47.7450  -11.7610   14.7960 N.3   612  PHE612     -0.1227
     72  CA        46.4610  -11.3540   15.3290 C.3   612  PHE612      0.1736
     73  C         46.3140  -11.9070   16.7480 C.2   612  PHE612      0.2595
     74  O         46.6380  -13.0520   16.9900 O.2   612  PHE612     -0.2718
     75  CB        45.3510  -11.8560   14.4050 C.3   612  PHE612      0.0547
     76  CG        43.9580  -11.5570   14.8880 C.ar  612  PHE612     -0.0202
     77  CD1       43.5630  -10.2570   15.1700 C.ar  612  PHE612     -0.0042
     78  CD2       43.0340  -12.5690   15.0070 C.ar  612  PHE612     -0.0042
     79  CE1       42.2930   -9.9810   15.6110 C.ar  612  PHE612     -0.0003
     80  CE2       41.7510  -12.3060   15.4310 C.ar  612  PHE612     -0.0003
     81  CZ        41.3710  -11.0090   15.7390 C.ar  612  PHE612     -0.0000
     82  N         45.9160  -11.0430   17.6740 N.am  613  LEU613     -0.1980
     83  CA        45.6760  -11.3700   19.0890 C.3   613  LEU613      0.1596
     84  C         46.9400  -11.6040   19.9190 C.2   613  LEU613      0.2287
     85  O         46.8490  -12.0760   21.0520 O.2   613  LEU613     -0.2864
     86  CB        44.7120  -12.5550   19.2620 C.3   613  LEU613      0.0297
     87  CG        43.3010  -12.3440   18.7090 C.3   613  LEU613      0.0022
     88  CD1       42.5120  -13.6400   18.8360 C.3   613  LEU613      0.0001
     89  CD2       42.6040  -11.2110   19.4380 C.3   613  LEU613      0.0001
     90  N         48.1980   -4.6030   21.5430 N.3   628  ILE628     -0.1245
     91  CA        47.4850   -5.8060   21.1750 C.3   628  ILE628      0.1561
     92  C         47.0380   -5.6660   19.7210 C.2   628  ILE628      0.2260
     93  O         46.4100   -4.6640   19.3770 O.2   628  ILE628     -0.2867
     94  CB        46.2340   -5.9790   22.0550 C.3   628  ILE628      0.0252
     95  CG1       46.5930   -5.8540   23.5490 C.3   628  ILE628      0.0019
     96  CG2       45.5550   -7.3150   21.7630 C.3   628  ILE628      0.0019
     97  CD1       45.3870   -5.9540   24.4560 C.3   628  ILE628      0.0001
     98  N         44.4490   -6.2270   17.6130 N.3   630  ILE630     -0.1231
     99  CA        43.0560   -6.5460   17.6670 C.3   630  ILE630      0.1692
    100  C         42.3190   -5.2500   17.3330 C.2   630  ILE630      0.2593
    101  O         42.8380   -4.1560   17.5370 O.2   630  ILE630     -0.2718
    102  CB        42.6580   -7.0760   19.0720 C.3   630  ILE630      0.0266
    103  CG1       41.2230   -7.6230   19.0850 C.3   630  ILE630      0.0019
    104  CG2       42.7910   -5.9750   20.1300 C.3   630  ILE630      0.0020
    105  CD1       40.7860   -8.1710   20.4340 C.3   630  ILE630      0.0001
    106  N         41.1060   -5.3710   16.8250 N.am  631  SER631     -0.1938
    107  CA        40.2840   -4.1900   16.6130 C.3   631  SER631      0.2055
    108  C         38.8230   -4.5760   16.5110 C.2   631  SER631      0.2643
    109  O         38.4770   -5.4660   15.7180 O.2   631  SER631     -0.2714
    110  CB        40.6790   -3.4680   15.3190 C.3   631  SER631      0.2130
    111  OG        39.7750   -2.3820   15.1100 O.3   631  SER631     -0.2179
    112  N         37.9670   -3.8800   17.2600 N.am  632  TYR632     -0.1973
    113  CA        36.5270   -4.1450   17.2030 C.3   632  TYR632      0.1639
    114  C         35.9360   -3.6780   15.8670 C.2   632  TYR632      0.2290
    115  O         34.7610   -3.9180   15.5810 O.2   632  TYR632     -0.2864
    116  CB        35.8180   -3.4730   18.3940 C.3   632  TYR632      0.0560
    117  CG        34.4310   -4.0080   18.7700 C.ar  632  TYR632     -0.0198
    118  CD1       34.2440   -5.3550   19.0450 C.ar  632  TYR632     -0.0009
    119  CD2       33.3380   -3.1540   18.9000 C.ar  632  TYR632     -0.0009
    120  CE1       33.0080   -5.8480   19.4230 C.ar  632  TYR632      0.0417
    121  CE2       32.0840   -3.6320   19.2620 C.ar  632  TYR632      0.0417
    122  CZ        31.9310   -4.9870   19.5230 C.ar  632  TYR632      0.1957
    123  OH        30.7320   -5.5210   19.9080 O.3   632  TYR632     -0.2866
    124  N         45.3750   -2.0270   19.4470 N.3   639  GLU639     -0.1245
    125  CA        44.9800   -1.2300   20.5940 C.3   639  GLU639      0.1567
    126  C         46.2210   -0.9300   21.4080 C.2   639  GLU639      0.2260
    127  O         47.0210   -1.8330   21.6890 O.2   639  GLU639     -0.2867
    128  CB        43.9640   -1.9770   21.4250 C.3   639  GLU639      0.0388
    129  CG        42.6100   -1.9930   20.7510 C.3   639  GLU639      0.1160
    130  CD        41.6200   -2.8810   21.4430 C.2   639  GLU639      0.3649
    131  OE1       41.9780   -3.4530   22.4990 O.co2 639  GLU639     -0.2457
    132  OE2       40.4890   -3.0280   20.9160 O.co2 639  GLU639     -0.2457
    133  N         47.6680    0.3690   24.7760 N.3   641  TYR641     -0.1241
    134  CA        47.4250    0.5890   26.2040 C.3   641  TYR641      0.1605
    135  C         48.5830    1.3760   26.7800 C.2   641  TYR641      0.2264
    136  O         49.7560    1.0160   26.5900 O.2   641  TYR641     -0.2867
    137  CB        47.2160   -0.7510   26.9400 C.3   641  TYR641      0.0534
    138  CG        45.9390   -1.3910   26.4790 C.ar  641  TYR641     -0.0201
    139  CD1       45.8880   -2.0930   25.2810 C.ar  641  TYR641     -0.0009
    140  CD2       44.7540   -1.2280   27.1970 C.ar  641  TYR641     -0.0009
    141  CE1       44.7000   -2.6390   24.8230 C.ar  641  TYR641      0.0417
    142  CE2       43.5670   -1.7740   26.7540 C.ar  641  TYR641      0.0417
    143  CZ        43.5450   -2.4810   25.5630 C.ar  641  TYR641      0.1957
    144  OH        42.3560   -3.0100   25.1040 O.3   641  TYR641     -0.2866
    145  N         30.0960   -8.7150   14.9370 N.3   680  PHE680     -0.1227
    146  CA        30.6070   -8.7890   16.2860 C.3   680  PHE680      0.1736
    147  C         29.4950   -8.4700   17.2680 C.2   680  PHE680      0.2595
    148  O         28.8750   -7.3960   17.1860 O.2   680  PHE680     -0.2718
    149  CB        31.7430   -7.7710   16.4970 C.3   680  PHE680      0.0547
    150  CG        33.0130   -8.0680   15.7570 C.ar  680  PHE680     -0.0202
    151  CD1       33.2660   -9.2960   15.1720 C.ar  680  PHE680     -0.0042
    152  CD2       34.0060   -7.0910   15.6980 C.ar  680  PHE680     -0.0042
    153  CE1       34.4700   -9.5350   14.5170 C.ar  680  PHE680     -0.0003
    154  CE2       35.1930   -7.3090   15.0330 C.ar  680  PHE680     -0.0003
    155  CZ        35.4350   -8.5440   14.4460 C.ar  680  PHE680     -0.0000
    156  N         29.2550   -9.3790   18.2120 N.am  681  ARG681     -0.1980
    157  CA        28.2950   -9.1630   19.2980 C.3   681  ARG681      0.1597
    158  C         28.7840   -8.1070   20.3020 C.2   681  ARG681      0.2287
    159  O         30.0000   -7.9990   20.5600 O.2   681  ARG681     -0.2864
    160  CB        28.0230  -10.4870   20.0460 C.3   681  ARG681      0.0334
    161  CG        27.0600  -11.4550   19.3520 C.3   681  ARG681      0.0492
    162  CD        27.6810  -12.1410   18.1260 C.3   681  ARG681      0.2205
    163  NE        26.7760  -13.1830   17.6110 N.pl3 681  ARG681     -0.0865
    164  CZ        26.6580  -13.5620   16.3420 C.cat 681  ARG681      0.5346
    165  NH1       27.3900  -13.0250   15.3760 N.pl3 681  ARG681      0.1354
    166  NH2       25.7760  -14.4890   16.0360 N.pl3 681  ARG681      0.1354
    167  N         31.9040  -20.1780   19.5560 N.3   700  TYR700     -0.1227
    168  CA        33.3200  -20.2330   19.1910 C.3   700  TYR700      0.1736
    169  C         34.2300  -19.9130   20.3850 C.2   700  TYR700      0.2595
    170  O         35.3230  -20.4810   20.5060 O.2   700  TYR700     -0.2718
    171  CB        33.6000  -19.2760   18.0350 C.3   700  TYR700      0.0548
    172  CG        35.0630  -19.0910   17.7090 C.ar  700  TYR700     -0.0200
    173  CD1       35.7470  -20.0040   16.9100 C.ar  700  TYR700     -0.0009
    174  CD2       35.7600  -17.9930   18.1860 C.ar  700  TYR700     -0.0009
    175  CE1       37.0890  -19.8200   16.5950 C.ar  700  TYR700      0.0417
    176  CE2       37.0960  -17.8080   17.8930 C.ar  700  TYR700      0.0417
    177  CZ        37.7530  -18.7180   17.0950 C.ar  700  TYR700      0.1957
    178  OH        39.0770  -18.5150   16.8010 O.3   700  TYR700     -0.2866
    179  N         33.7630  -19.0240   21.2680 N.am  701  PHE701     -0.1976
    180  CA        34.5080  -18.6030   22.4700 C.3   701  PHE701      0.1639
    181  C         34.2970  -19.4880   23.6930 C.2   701  PHE701      0.2290
    182  O         34.9590  -19.3010   24.7230 O.2   701  PHE701     -0.2864
    183  CB        34.1290  -17.1550   22.8330 C.3   701  PHE701      0.0560
    184  CG        34.2370  -16.2020   21.6850 C.ar  701  PHE701     -0.0200
    185  CD1       35.4720  -15.7820   21.2340 C.ar  701  PHE701     -0.0042
    186  CD2       33.0990  -15.7310   21.0430 C.ar  701  PHE701     -0.0042
    187  CE1       35.5790  -14.8870   20.1810 C.ar  701  PHE701     -0.0003
    188  CE2       33.2040  -14.8530   19.9750 C.ar  701  PHE701     -0.0003
    189  CZ        34.4480  -14.4320   19.5490 C.ar  701  PHE701     -0.0000
    190  N         36.4420  -10.2540    8.2510 N.3   806  THR806     -0.1218
    191  CA        37.4590   -9.4860    8.9800 C.3   806  THR806      0.1862
    192  C         38.8030   -9.5410    8.2770 C.2   806  THR806      0.2287
    193  O         39.0430  -10.4060    7.4370 O.2   806  THR806     -0.2866
    194  CB        37.6410   -9.9690   10.4190 C.3   806  THR806      0.1770
    195  OG1       38.2050  -11.2860   10.4160 O.3   806  THR806     -0.2211
    196  CG2       36.3080   -9.9600   11.1670 C.3   806  THR806      0.0375
    197  N         40.6210  -12.8500    8.6670 N.3   809  THR809     -0.1218
    198  CA        40.0070  -13.8620    7.8100 C.3   809  THR809      0.1862
    199  C         40.4820  -13.7080    6.3580 C.2   809  THR809      0.2287
    200  O         40.9230  -14.6710    5.7310 O.2   809  THR809     -0.2866
    201  CB        38.4800  -13.7770    7.8680 C.3   809  THR809      0.1770
    202  OG1       38.0470  -13.9990    9.2050 O.3   809  THR809     -0.2211
    203  CG2       37.8320  -14.8240    6.9530 C.3   809  THR809      0.0375
@<TRIPOS>BOND
     1   200   199    2
     2   199   198    1
     3   203   201    1
     4   193   192    2
     5   198   201    1
     6   198   197    1
     7   201   202    1
     8   190   191    1
     9   192   191    1
    10   191   194    1
    11   195   194    1
    12   194   196    1
    13    75    76    1
    14    75    72    1
    15   155   153   ar
    16   155   154   ar
    17   153   151   ar
    18    71    72    1
    19    76    78   ar
    20    76    77   ar
    21   145   146    1
    22    78    80   ar
    23   154   152   ar
    24   111   110    1
    25    77    79   ar
    26   151   150   ar
    27   110   107    1
    28    72    73    1
    29   165   164    1
    30    80    81   ar
    31   115   114    2
    32    79    81   ar
    33   152   150   ar
    34   109   108    2
    35   150   149    1
    36   114   113    1
    37   166   164    1
    38   146   149    1
    39   146   147    1
    40   164   163    2
    41   108   107    1
    42   108   112   am
    43   175   173   ar
    44   175   177   ar
    45   107   106    1
    46    73    74    2
    47    73    82   am
    48   178   177    1
    49   106   100   am
    50   173   172   ar
    51   177   176   ar
    52   148   147    2
    53   113   112    1
    54   113   116    1
    55   147   156   am
    56   100   101    2
    57   100    99    1
    58   163   162    1
    59    98    99    1
    60    99   102    1
    61    82    83    1
    62   172   171    1
    63   172   174   ar
    64   176   174   ar
    65   171   168    1
    66   162   161    1
    67   156   157    1
    68   116   117    1
    69    87    88    1
    70    87    86    1
    71    87    89    1
    72   117   119   ar
    73   117   118   ar
    74   119   121   ar
    75   118   120   ar
    76   102   103    1
    77   102   104    1
    78   103   105    1
    79    83    86    1
    80    83    84    1
    81   168   167    1
    82   168   169    1
    83   121   122   ar
    84   157   160    1
    85   157   158    1
    86   161   160    1
    87    93    92    2
    88   120   122   ar
    89   124   125    1
    90   122   123    1
    91   189   188   ar
    92   189   187   ar
    93    92    91    1
    94    84    85    2
    95   188   186   ar
    96   187   185   ar
    97   158   159    2
    98   169   170    2
    99   169   179   am
   100   125   126    1
   101   125   128    1
   102   129   128    1
   103   129   130    1
   104   132   130   ar
   105     7     6    1
   106   186   184   ar
   107    91    90    1
   108    91    94    1
   109   185   184   ar
   110   179   180    1
   111     8     6    1
   112   126   127    2
   113   130   131   ar
   114     6     5    1
   115   184   183    1
   116    96    94    1
   117    33    35    1
   118    33    32    1
   119    94    95    1
   120   180   183    1
   121   180   181    1
   122    32    34    1
   123    32    29    1
   124     1     2    1
   125     5     2    1
   126    44    42   ar
   127    95    97    1
   128     2     3    1
   129    28    29    1
   130    28    22   am
   131    43    42   ar
   132    21    24    1
   133    21    22    1
   134    21    20    1
   135   181   182    2
   136    24    25    1
   137    29    30    1
   138    42    41    1
   139    19    18   ar
   140    19    17   ar
   141    22    23    2
   142    31    30    2
   143    18    16   ar
   144   133   134    1
   145    51    49    1
   146   141   139   ar
   147   141   143   ar
   148    50    49    1
   149    17    15   ar
   150   144   143    1
   151    25    27   am
   152    25    26    2
   153     3     4    2
   154   139   138   ar
   155    41    40    1
   156   143   142   ar
   157    49    46    1
   158    16    14   ar
   159   134   135    1
   160   134   137    1
   161    15    14   ar
   162   138   137    1
   163   138   140   ar
   164   136   135    2
   165    40    37    1
   166    46    45    1
   167    46    47    1
   168   142   140   ar
   169    14    13    1
   170    58    56    1
   171    47    48    2
   172    37    38    1
   173    37    36    1
   174    56    57    1
   175    56    53    1
   176    38    39    2
   177    13    10    1
   178    57    59    1
   179    68    67    1
   180    68    69    1
   181     9    10    1
   182    55    54    2
   183    67    62   am
   184    10    11    1
   185    62    63    2
   186    62    61    1
   187    54    53    1
   188    54    60   am
   189    53    52    1
   190    61    60    1
   191    61    64    1
   192    69    70    2
   193    11    12    2
   194    65    64    1
   195    64    66    1
