@<TRIPOS>MOLECULE
tmp/4padA00.pdb
 98 94 0 0 0
SMALL
GASTEIGER

@<TRIPOS>ATOM
      1  N         22.6240   23.6460   15.1590 N.3    19  GLN19      -0.1231
      2  CA        21.3440   22.9590   14.9460 C.3    19  GLN19       0.1698
      3  C         21.3230   22.4130   13.5180 C.2    19  GLN19       0.2593
      4  O         20.6110   21.4310   13.2140 O.2    19  GLN19      -0.2718
      5  CB        20.2370   23.9430   15.2030 C.3    19  GLN19       0.0381
      6  CG        20.3550   25.1730   14.4120 C.3    19  GLN19       0.0905
      7  CD        19.4580   26.3320   14.8710 C.2    19  GLN19       0.2608
      8  OE1       20.0030   27.3070   15.4940 O.2    19  GLN19      -0.2717
      9  NE2       18.2320   26.3020   14.5580 N.am   19  GLN19      -0.0878
     10  N         22.1120   23.0650   12.6780 N.am   20  GLY20      -0.1942
     11  CA        22.2530   22.7010   11.2620 C.3    20  GLY20       0.2014
     12  C         21.0000   23.1830   10.5310 C.2    20  GLY20       0.2640
     13  O         20.3500   24.1680   10.9440 O.2    20  GLY20      -0.2714
     14  N         20.6900   22.4670    9.4610 N.am   21  SER21      -0.1935
     15  CA        19.5200   22.7470    8.6190 C.3    21  SER21       0.2055
     16  C         18.2340   22.2880    9.3070 C.2    21  SER21       0.2643
     17  O         17.2640   21.8610    8.6430 O.2    21  SER21      -0.2714
     18  CB        19.6490   22.0400    7.2870 C.3    21  SER21       0.2130
     19  OG        18.5450   22.3120    6.4280 O.3    21  SER21      -0.2179
     20  N         18.2600   22.3950   10.6260 N.am   22  CYS22      -0.1953
     21  CA        17.1270   22.0220   11.4840 C.3    22  CYS22       0.1843
     22  C         16.7120   23.2570   12.2860 C.2    22  CYS22       0.2626
     23  O         17.5240   23.8440   13.0330 O.2    22  CYS22      -0.2714
     24  CB        17.3940   20.8170   12.3510 C.3    22  CYS22       0.0997
     25  SG        16.0950   20.3860   13.5510 S.3    22  CYS22      -0.0797
     26  N         15.4490   23.6140   12.1110 N.am   23  GLY23      -0.1954
     27  CA        14.8380   24.7630   12.7920 C.3    23  GLY23       0.1869
     28  C         14.4880   24.2150   14.1760 C.2    23  GLY23       0.2309
     29  O         13.3160   23.8850   14.4620 O.2    23  GLY23      -0.2863
     30  N         16.1930   25.8870   17.2270 N.3    25  CYS25      -0.1235
     31  CA        16.7190   26.9940   18.1030 C.3    25  CYS25       0.1677
     32  C         16.2790   26.7770   19.6110 C.2    25  CYS25       0.2270
     33  O         17.0930   27.0800   20.5490 O.2    25  CYS25      -0.2867
     34  CB        16.4370   28.3390   17.5330 C.3    25  CYS25       0.0956
     35  SG        14.7770   28.2030   16.7000 S.3    25  CYS25      -0.0801
     36  N         11.8250   22.8280   12.8260 N.3    64  ASN64      -0.1225
     37  CA        11.1740   24.0270   12.2850 C.3    64  ASN64       0.1785
     38  C         10.0000   24.5910   13.0860 C.2    64  ASN64       0.2597
     39  O          8.8360   24.5640   12.6310 O.2    64  ASN64      -0.2718
     40  CB        10.6510   23.7340   10.8620 C.3    64  ASN64       0.1169
     41  CG         9.3950   22.9030   10.8990 C.2    64  ASN64       0.2627
     42  OD1        8.5850   22.9910    9.7730 O.2    64  ASN64      -0.2716
     43  ND2        9.0330   22.2280   11.8470 N.am   64  ASN64      -0.0877
     44  N         10.3410   25.0940   14.2620 N.am   65  GLY65      -0.1957
     45  CA         9.3740   25.6970   15.1880 C.3    65  GLY65       0.1869
     46  C          9.3520   24.9750   16.5360 C.2    65  GLY65       0.2309
     47  O          9.4960   23.7360   16.6060 O.2    65  GLY65      -0.2863
     48  N         16.3750   37.2560   14.3440 N.3   136  ALA136     -0.1231
     49  CA        17.5630   36.6950   13.6870 C.3   136  ALA136      0.1694
     50  C         17.3890   36.6870   12.1680 C.2   136  ALA136      0.2591
     51  O         18.3760   36.7640   11.4050 O.2   136  ALA136     -0.2718
     52  CB        17.8050   35.2890   14.2230 C.3   136  ALA136      0.0304
     53  N         16.1290   36.5970   11.7690 N.am  137  ALA137     -0.1980
     54  CA        15.7340   36.5840   10.3550 C.3   137  ALA137      0.1597
     55  C         16.5480   37.7680    9.8300 C.2   137  ALA137      0.2287
     56  O         16.5600   38.0530    8.6130 O.2   137  ALA137     -0.2864
     57  CB        14.2430   36.7930   10.1210 C.3   137  ALA137      0.0319
     58  N         22.8300   38.0090   10.9360 N.3   142  GLN142     -0.1245
     59  CA        23.1810   36.8150   10.1550 C.3   142  GLN142      0.1566
     60  C         24.6400   36.8560    9.6970 C.2   142  GLN142      0.2260
     61  O         25.3000   35.8040    9.5550 O.2   142  GLN142     -0.2867
     62  CB        22.2500   36.7360    8.9780 C.3   142  GLN142      0.0367
     63  CG        21.3090   35.6130    9.0540 C.3   142  GLN142      0.0905
     64  CD        20.3610   35.4730    7.8530 C.2   142  GLN142      0.2608
     65  OE1       20.6600   36.0880    6.7730 O.2   142  GLN142     -0.2717
     66  NE2       19.3600   34.7060    7.9660 N.am  142  GLN142     -0.0878
     67  N         11.6540   35.6940   16.4360 N.3   158  ASP158     -0.1225
     68  CA        11.5490   34.3800   15.7820 C.3   158  ASP158      0.1805
     69  C         12.6760   33.3430   15.7970 C.2   158  ASP158      0.2597
     70  O         12.6630   32.3690   15.0140 O.2   158  ASP158     -0.2718
     71  CB        11.2640   34.5690   14.2730 C.3   158  ASP158      0.1424
     72  CG        12.4700   35.1190   13.5510 C.2   158  ASP158      0.3668
     73  OD1       13.4940   35.5030   14.0950 O.co2 158  ASP158     -0.2456
     74  OD2       12.4020   35.1090   12.3500 O.co2 158  ASP158     -0.2456
     75  N         13.6220   33.5810   16.6960 N.am  159  HIS159     -0.1975
     76  CA        14.7900   32.7070   16.8900 C.3   159  HIS159      0.1656
     77  C         15.1110   32.7700   18.3860 C.2   159  HIS159      0.2291
     78  O         15.0920   33.8570   19.0030 O.2   159  HIS159     -0.2864
     79  CB        15.9370   33.2080   16.0110 C.3   159  HIS159      0.0771
     80  CG        17.1830   32.3570   16.0500 C.ar  159  HIS159      0.0820
     81  ND1       17.1320   30.9680   16.0350 N.ar  159  HIS159     -0.2267
     82  CD2       18.4990   32.6880   16.1320 C.ar  159  HIS159      0.1154
     83  CE1       18.3640   30.5020   16.1080 C.ar  159  HIS159      0.1986
     84  NE2       19.1990   31.5200   16.1420 N.ar  159  HIS159     -0.2212
     85  N         24.1700   28.2850   16.1780 N.3   177  TRP177     -0.1241
     86  CA        24.8200   28.1530   14.8650 C.3   177  TRP177      0.1605
     87  C         26.2280   27.6910   15.2530 C.2   177  TRP177      0.2264
     88  O         26.5630   27.5920   16.4530 O.2   177  TRP177     -0.2867
     89  CB        24.7450   29.4990   14.1380 C.3   177  TRP177      0.0550
     90  CG        23.3050   30.0090   13.7500 C.ar  177  TRP177      0.0003
     91  CD1       22.1160   29.4170   13.9420 C.ar  177  TRP177      0.0946
     92  CD2       23.0080   31.2480   13.1640 C.ar  177  TRP177      0.0152
     93  NE1       21.0590   30.2580   13.4010 N.ar  177  TRP177     -0.2442
     94  CE2       21.5950   31.3430   12.9910 C.ar  177  TRP177      0.0810
     95  CE3       23.8060   32.2980   12.7620 C.ar  177  TRP177      0.0012
     96  CZ2       20.9200   32.4410   12.4380 C.ar  177  TRP177      0.0191
     97  CZ3       23.1170   33.3940   12.1920 C.ar  177  TRP177      0.0001
     98  CH2       21.7350   33.4750   12.0770 C.ar  177  TRP177      0.0015
@<TRIPOS>BOND
     1    19    18    1
     2    65    64    2
     3    18    15    1
     4    64    66   am
     5    64    63    1
     6    56    55    2
     7    15    16    1
     8    15    14    1
     9    17    16    2
    10    62    63    1
    11    62    59    1
    12    16    20   am
    13    14    12   am
    14    61    60    2
    15    60    59    1
    16    42    41    2
    17    55    54    1
    18    57    54    1
    19    59    58    1
    20    54    53    1
    21    12    13    2
    22    12    11    1
    23    20    21    1
    24    40    41    1
    25    40    37    1
    26    41    43   am
    27    11    10    1
    28    51    50    2
    29    21    22    1
    30    21    24    1
    31    53    50   am
    32    98    97   ar
    33    98    96   ar
    34    26    22   am
    35    26    27    1
    36    50    49    1
    37    97    95   ar
    38    37    36    1
    39    37    38    1
    40    22    23    2
    41    74    72   ar
    42    24    25    1
    43    96    94   ar
    44    39    38    2
    45    10     3   am
    46    95    92   ar
    47    27    28    1
    48    94    92   ar
    49    94    93   ar
    50    38    44   am
    51    92    90   ar
    52     4     3    2
    53    93    91   ar
    54     3     2    1
    55    72    73   ar
    56    72    71    1
    57    49    52    1
    58    49    48    1
    59    90    91   ar
    60    90    89    1
    61    89    86    1
    62    28    29    2
    63    44    45    1
    64    71    68    1
    65     6     7    1
    66     6     5    1
    67     9     7   am
    68    86    87    1
    69    86    85    1
    70     7     8    2
    71     2     1    1
    72     2     5    1
    73    70    69    2
    74    45    46    1
    75    87    88    2
    76    68    69    1
    77    68    67    1
    78    69    75   am
    79    79    80    1
    80    79    76    1
    81    81    80   ar
    82    81    83   ar
    83    80    82   ar
    84    83    84   ar
    85    82    84   ar
    86    46    47    2
    87    75    76    1
    88    35    34    1
    89    76    77    1
    90    30    31    1
    91    34    31    1
    92    31    32    1
    93    77    78    2
    94    32    33    2
