@<TRIPOS>MOLECULE
tmp/4paeA01.pdb
 144 142 0 0 0
SMALL
GASTEIGER

@<TRIPOS>ATOM
      1  N         47.8410   -2.0800 -100.1600 N.3    67  PHE67      -0.1228
      2  CA        48.0250   -1.2560  -98.9370 C.3    67  PHE67       0.1721
      3  C         48.3830   -2.1070  -97.7310 C.2    67  PHE67       0.2437
      4  O         47.5580   -2.3230  -96.8510 O.2    67  PHE67      -0.2733
      5  CB        46.8040   -0.4060  -98.6080 C.3    67  PHE67       0.0547
      6  CG        47.1100    0.7520  -97.7130 C.ar   67  PHE67      -0.0202
      7  CD1       47.6920    1.9020  -98.2250 C.ar   67  PHE67      -0.0042
      8  CD2       46.8180    0.7070  -96.3690 C.ar   67  PHE67      -0.0042
      9  CE1       47.9650    2.9910  -97.4100 C.ar   67  PHE67      -0.0003
     10  CE2       47.0940    1.7970  -95.5440 C.ar   67  PHE67      -0.0003
     11  CZ        47.6710    2.9380  -96.0650 C.ar   67  PHE67      -0.0000
     12  N         49.6320   -2.5850  -97.7030 N.am   68  PRO68      -0.2718
     13  CA        50.2940   -3.4260  -96.7190 C.3    68  PRO68       0.1535
     14  C         50.0000   -3.1550  -95.2460 C.2    68  PRO68       0.2598
     15  O         50.2980   -2.0820  -94.7390 O.2    68  PRO68      -0.2715
     16  CB        51.7550   -3.1410  -96.9990 C.3    68  PRO68       0.0310
     17  CG        51.7820   -3.0390  -98.4730 C.3    68  PRO68       0.0237
     18  CD        50.5040   -2.3810  -98.8700 C.3    68  PRO68       0.0939
     19  N         49.4570   -4.1480  -94.5560 N.am   69  ALA69      -0.1964
     20  CA        49.1380   -3.9900  -93.1470 C.3    69  ALA69       0.1728
     21  C         50.4290   -3.8770  -92.4020 C.2    69  ALA69       0.2616
     22  O         51.3280   -4.6480  -92.6770 O.2    69  ALA69      -0.2715
     23  CB        48.3360   -5.1800  -92.6280 C.3    69  ALA69       0.0334
     24  N         50.5320   -2.8860  -91.5190 N.am   70  ASP70      -0.1957
     25  CA        51.6220   -2.7880  -90.5440 C.3    70  ASP70       0.1840
     26  C         51.8030   -4.1490  -89.8900 C.2    70  ASP70       0.2622
     27  O         50.8470   -4.6690  -89.2980 O.2    70  ASP70      -0.2715
     28  CB        51.2910   -1.7860  -89.4300 C.3    70  ASP70       0.1450
     29  CG        51.5010   -0.3410  -89.8250 C.2    70  ASP70       0.3671
     30  OD1       51.9110   -0.0330  -90.9670 O.co2  70  ASP70      -0.2456
     31  OD2       51.2500    0.5080  -88.9450 O.co2  70  ASP70      -0.2456
     32  N         53.0020   -4.7290  -90.0130 N.am   71  TRP71      -0.1974
     33  CA        53.3160   -6.0240  -89.4040 C.3    71  TRP71       0.1640
     34  C         52.4030   -7.2010  -89.8090 C.2    71  TRP71       0.2290
     35  O         52.3000   -8.1800  -89.0960 O.2    71  TRP71      -0.2864
     36  CB        53.2410   -5.8850  -87.8920 C.3    71  TRP71       0.0576
     37  CG        54.0860   -4.8350  -87.3760 C.ar   71  TRP71       0.0006
     38  CD1       55.4450   -4.8140  -87.3800 C.ar   71  TRP71       0.0946
     39  CD2       53.6610   -3.6390  -86.7250 C.ar   71  TRP71       0.0152
     40  NE1       55.8970   -3.6650  -86.7710 N.ar   71  TRP71      -0.2442
     41  CE2       54.8190   -2.9310  -86.3540 C.ar   71  TRP71       0.0810
     42  CE3       52.4160   -3.0980  -86.4210 C.ar   71  TRP71       0.0012
     43  CZ2       54.7700   -1.7060  -85.7050 C.ar   71  TRP71       0.0191
     44  CZ3       52.3660   -1.8720  -85.7610 C.ar   71  TRP71       0.0001
     45  CH2       53.5340   -1.1960  -85.4100 C.ar   71  TRP71       0.0015
     46  N         49.3400   -6.8560  -89.7390 N.3    73  HIS73      -0.1226
     47  CA        48.1750   -6.6250  -88.8980 C.3    73  HIS73       0.1752
     48  C         47.5130   -5.2370  -89.0780 C.2    73  HIS73       0.2596
     49  O         47.9810   -4.2230  -88.5290 O.2    73  HIS73      -0.2718
     50  CB        48.5110   -6.9110  -87.4190 C.3    73  HIS73       0.0759
     51  CG        47.3500   -7.4510  -86.6490 C.ar   73  HIS73       0.0818
     52  ND1       46.4110   -6.6390  -86.0560 N.ar   73  HIS73      -0.2268
     53  CD2       46.9350   -8.7180  -86.4340 C.ar   73  HIS73       0.1154
     54  CE1       45.4730   -7.3780  -85.4950 C.ar   73  HIS73       0.1986
     55  NE2       45.7690   -8.6450  -85.7080 N.ar   73  HIS73      -0.2212
     56  N         46.3930   -5.2430  -89.8180 N.am   74  TYR74      -0.1976
     57  CA        45.4710   -4.0960  -89.9910 C.3    74  TYR74       0.1639
     58  C         44.7220   -3.6820  -88.7290 C.2    74  TYR74       0.2290
     59  O         43.9720   -2.7170  -88.7290 O.2    74  TYR74      -0.2864
     60  CB        44.4090   -4.4280  -91.0500 C.3    74  TYR74       0.0560
     61  CG        44.9190   -4.4510  -92.4830 C.ar   74  TYR74      -0.0198
     62  CD1       45.6380   -3.3880  -92.9840 C.ar   74  TYR74      -0.0009
     63  CD2       44.6550   -5.5150  -93.3370 C.ar   74  TYR74      -0.0009
     64  CE1       46.1070   -3.3730  -94.2810 C.ar   74  TYR74       0.0417
     65  CE2       45.1150   -5.5060  -94.6400 C.ar   74  TYR74       0.0417
     66  CZ        45.8490   -4.4220  -95.1110 C.ar   74  TYR74       0.1957
     67  OH        46.3530   -4.3590  -96.4110 O.3    74  TYR74      -0.2866
     68  N         45.3590   -2.1080  -86.1100 N.3    76  GLY76      -0.1210
     69  CA        45.5200   -0.7160  -85.6950 C.3    76  GLY76       0.1956
     70  C         44.6450    0.2030  -86.5100 C.2    76  GLY76       0.2611
     71  O         43.8350    0.9420  -85.9830 O.2    76  GLY76      -0.2717
     72  N         44.8140    0.1220  -87.8110 N.am   77  LEU77      -0.1979
     73  CA        44.0560    0.9180  -88.7320 C.3    77  LEU77       0.1596
     74  C         42.5430    0.7680  -88.5180 C.2    77  LEU77       0.2287
     75  O         41.7900    1.7540  -88.5430 O.2    77  LEU77      -0.2864
     76  CB        44.4310    0.5010  -90.1510 C.3    77  LEU77       0.0297
     77  CG        43.6240    1.0850  -91.2980 C.3    77  LEU77       0.0022
     78  CD1       43.9670    2.5430  -91.4910 C.3    77  LEU77       0.0001
     79  CD2       43.9250    0.3090  -92.5620 C.3    77  LEU77       0.0001
     80  N         41.0990    2.5990  -85.6660 N.3    80  ARG80      -0.1245
     81  CA        41.1390    4.0230  -85.8600 C.3    80  ARG80       0.1563
     82  C         39.9500    4.4550  -86.6790 C.2    80  ARG80       0.2260
     83  O         39.2660    5.4170  -86.3320 O.2    80  ARG80      -0.2867
     84  CB        42.4340    4.4520  -86.5390 C.3    80  ARG80       0.0307
     85  CG        42.5290    5.9690  -86.6250 C.3    80  ARG80       0.0489
     86  CD        43.8990    6.4440  -87.0280 C.3    80  ARG80       0.2205
     87  NE        43.7830    7.4730  -88.0590 N.pl3  80  ARG80      -0.0865
     88  CZ        44.1820    7.3270  -89.3210 C.cat  80  ARG80       0.5346
     89  NH1       44.7630    6.1840  -89.7520 N.pl3  80  ARG80       0.1354
     90  NH2       44.0160    8.3480  -90.1520 N.pl3  80  ARG80       0.1354
     91  N         43.6880    8.2690  -94.9690 N.3   116  ASN116     -0.1240
     92  CA        43.8880    6.8200  -95.1240 C.3   116  ASN116      0.1653
     93  C         42.8040    5.8760  -94.5940 C.2   116  ASN116      0.2266
     94  O         42.8730    4.6610  -94.8480 O.2   116  ASN116     -0.2867
     95  CB        45.2340    6.3980  -94.5880 C.3   116  ASN116      0.1155
     96  CG        46.3410    6.8630  -95.4680 C.2   116  ASN116      0.2627
     97  OD1       46.2500    6.7600  -96.7010 O.2   116  ASN116     -0.2716
     98  ND2       47.3940    7.4030  -94.8550 N.am  116  ASN116     -0.0877
     99  N         48.8090   -0.1240  -82.3890 N.3   255  GLY255     -0.1210
    100  CA        49.0590    0.7800  -83.5130 C.3   255  GLY255      0.1956
    101  C         50.2040    1.7820  -83.3650 C.2   255  GLY255      0.2611
    102  O         50.9490    1.7850  -82.3540 O.2   255  GLY255     -0.2717
    103  N         50.2710    2.6600  -84.3760 N.am  256  LYS256     -0.1979
    104  CA        51.4510    3.4550  -84.7450 C.3   256  LYS256      0.1596
    105  C         51.0460    4.8190  -85.3340 C.2   256  LYS256      0.2287
    106  O         49.9600    4.9630  -85.8890 O.2   256  LYS256     -0.2864
    107  CB        52.2200    2.6810  -85.8320 C.3   256  LYS256      0.0298
    108  CG        53.7000    2.9940  -85.9480 C.3   256  LYS256      0.0038
    109  CD        54.3410    2.2850  -87.1300 C.3   256  LYS256      0.0206
    110  CE        54.3820    3.2160  -88.3260 C.3   256  LYS256      0.1093
    111  NZ        54.8020    2.5810  -89.6170 N.3   256  LYS256     -0.1314
    112  N         52.1690    7.3010  -88.4600 N.3   258  HIS258     -0.1241
    113  CA        52.8880    7.1880  -89.7190 C.3   258  HIS258      0.1621
    114  C         53.2490    8.5600  -90.2490 C.2   258  HIS258      0.2264
    115  O         52.3790    9.3650  -90.5880 O.2   258  HIS258     -0.2867
    116  CB        52.0370    6.4920  -90.7350 C.3   258  HIS258      0.0745
    117  CG        51.5520    5.1680  -90.2850 C.ar  258  HIS258      0.0817
    118  ND1       50.7420    5.0140  -89.1840 N.ar  258  HIS258     -0.2268
    119  CD2       51.7490    3.9290  -90.7950 C.ar  258  HIS258      0.1154
    120  CE1       50.4720    3.7310  -89.0270 C.ar  258  HIS258      0.1986
    121  NE2       51.0670    3.0530  -89.9940 N.ar  258  HIS258     -0.2212
    122  N         53.3280    0.4490  -96.6960 N.3   291  GLY291     -0.1225
    123  CA        54.2140   -0.1540  -95.7110 C.3   291  GLY291      0.1811
    124  C         55.0040    0.8490  -94.9010 C.2   291  GLY291      0.2280
    125  O         54.4270    1.5540  -94.0570 O.2   291  GLY291     -0.2866
    126  N         55.6070    5.3380  -95.4120 N.3   294  ALA294     -0.1231
    127  CA        54.1980    5.6850  -95.3740 C.3   294  ALA294      0.1694
    128  C         53.9500    6.8490  -94.4060 C.2   294  ALA294      0.2592
    129  O         54.5190    6.8950  -93.2980 O.2   294  ALA294     -0.2718
    130  CB        53.3810    4.4680  -94.9610 C.3   294  ALA294      0.0304
    131  N         53.0890    7.7780  -94.8460 N.am  295  VAL295     -0.1966
    132  CA        52.7280    8.9880  -94.0900 C.3   295  VAL295      0.1727
    133  C         51.2060    9.0460  -93.9070 C.2   295  VAL295      0.2616
    134  O         50.4530    8.6900  -94.8150 O.2   295  VAL295     -0.2715
    135  CB        53.2280   10.2800  -94.7970 C.3   295  VAL295      0.0290
    136  CG1       52.8960   11.5310  -94.0030 C.3   295  VAL295      0.0023
    137  CG2       54.7250   10.2160  -94.9890 C.3   295  VAL295      0.0023
    138  N         50.8090    9.4870  -92.7120 N.am  296  THR296     -0.1951
    139  CA        49.4160    9.6070  -92.2980 C.3   296  THR296      0.1897
    140  C         49.2070   10.8540  -91.4290 C.2   296  THR296      0.2313
    141  O         48.6190   11.8340  -91.8870 O.2   296  THR296     -0.2863
    142  CB        48.9480    8.3640  -91.5200 C.3   296  THR296      0.1794
    143  OG1       48.9420    7.2260  -92.3910 O.3   296  THR296     -0.2208
    144  CG2       47.5480    8.5780  -90.9640 C.3   296  THR296      0.0378
@<TRIPOS>BOND
     1     1     2    1
     2     2     5    1
     3     2     3    1
     4    18    17    1
     5    18    12    1
     6     5     6    1
     7    17    16    1
     8     7     6   ar
     9     7     9   ar
    10     3    12   am
    11     3     4    2
    12     6     8   ar
    13    12    13    1
    14     9    11   ar
    15    16    13    1
    16    13    14    1
    17    97    96    2
    18   122   123    1
    19    67    66    1
    20     8    10   ar
    21    11    10   ar
    22   123   124    1
    23    96    98   am
    24    96    95    1
    25   126   127    1
    26   127   130    1
    27   127   128    1
    28    14    15    2
    29    14    19   am
    30    92    91    1
    31    92    93    1
    32    92    95    1
    33    66    65   ar
    34    66    64   ar
    35   137   135    1
    36   124   125    2
    37    94    93    2
    38   131   128   am
    39   131   132    1
    40   134   133    2
    41   135   132    1
    42   135   136    1
    43    65    63   ar
    44    19    20    1
    45   128   129    2
    46    64    62   ar
    47   132   133    1
    48   133   138   am
    49    63    61   ar
    50    20    23    1
    51    20    21    1
    52    62    61   ar
    53   138   139    1
    54    22    21    2
    55    79    77    1
    56    61    60    1
    57    21    24   am
    58   143   142    1
    59   139   142    1
    60   139   140    1
    61   141   140    2
    62   142   144    1
    63    24    25    1
    64    78    77    1
    65    77    76    1
    66    60    57    1
    67    30    29   ar
    68   119   117   ar
    69   119   121   ar
    70   116   117    1
    71   116   113    1
    72   115   114    2
    73    25    26    1
    74    25    28    1
    75   117   118   ar
    76   114   113    1
    77    90    88    1
    78    76    73    1
    79    32    26   am
    80    32    33    1
    81   121   120   ar
    82    57    56    1
    83    57    58    1
    84    26    27    2
    85    29    28    1
    86    29    31   ar
    87    56    48   am
    88    34    33    1
    89    34    35    2
    90    89    88    1
    91    46    47    1
    92   113   112    1
    93   111   110    1
    94    33    36    1
    95    88    87    2
    96   118   120   ar
    97    48    47    1
    98    48    49    2
    99    47    50    1
   100    73    74    1
   101    73    72    1
   102    59    58    2
   103    75    74    2
   104   110   109    1
   105    87    86    1
   106    36    37    1
   107    72    70   am
   108    50    51    1
   109    38    37   ar
   110    38    40   ar
   111    37    39   ar
   112   109   108    1
   113    86    85    1
   114    40    41   ar
   115    39    42   ar
   116    39    41   ar
   117    82    83    2
   118    82    81    1
   119    51    53   ar
   120    51    52   ar
   121    85    84    1
   122    84    81    1
   123    70    71    2
   124    70    69    1
   125    53    55   ar
   126    42    44   ar
   127    41    43   ar
   128    68    69    1
   129    52    54   ar
   130   108   107    1
   131   106   105    2
   132    81    80    1
   133   107   104    1
   134    44    45   ar
   135    55    54   ar
   136    43    45   ar
   137   105   104    1
   138   104   103    1
   139   103   101   am
   140   100   101    1
   141   100    99    1
   142   101   102    2
