@<TRIPOS>MOLECULE
tmp/4pafA00.pdb
 122 115 0 0 0
SMALL
GASTEIGER

@<TRIPOS>ATOM
      1  N          3.6320   40.9690    2.7010 N.3     8  ILE8       -0.1231
      2  CA         2.9330   42.2170    2.3340 C.3     8  ILE8        0.1692
      3  C          3.6480   43.0140    1.2610 C.2     8  ILE8        0.2592
      4  O          3.1090   44.0080    0.7620 O.2     8  ILE8       -0.2718
      5  CB         2.6580   43.1300    3.5420 C.3     8  ILE8        0.0266
      6  CG1        3.9660   43.6660    4.1310 C.3     8  ILE8        0.0019
      7  CG2        1.7820   42.3880    4.5570 C.3     8  ILE8        0.0020
      8  CD1        3.7240   44.6710    5.2770 C.3     8  ILE8        0.0001
      9  N          4.8380   42.5750    0.8790 N.am    9  THR9       -0.1953
     10  CA         5.6480   43.3290   -0.0640 C.3     9  THR9        0.1897
     11  C          5.2580   43.0960   -1.5080 C.2     9  THR9        0.2313
     12  O          4.8250   42.0080   -1.8800 O.2     9  THR9       -0.2863
     13  CB         7.1330   43.0080    0.1350 C.3     9  THR9        0.1794
     14  OG1        7.3380   41.5990    0.1410 O.3     9  THR9       -0.2208
     15  CG2        7.6000   43.5400    1.4550 C.3     9  THR9        0.0378
     16  N          9.9070   43.5010   -4.8090 N.3    13  HIS13      -0.1241
     17  CA        10.6100   43.7240   -3.5650 C.3    13  HIS13       0.1621
     18  C         11.5930   42.5880   -3.2990 C.2    13  HIS13       0.2264
     19  O         11.3080   41.4220   -3.5910 O.2    13  HIS13      -0.2867
     20  CB         9.6050   43.8540   -2.4330 C.3    13  HIS13       0.0745
     21  CG        10.1810   44.3850   -1.1530 C.ar   13  HIS13       0.0817
     22  ND1       10.9140   43.6050   -0.2960 N.ar   13  HIS13      -0.2268
     23  CD2       10.1180   45.6130   -0.5800 C.ar   13  HIS13       0.1154
     24  CE1       11.2650   44.3100    0.7630 C.ar   13  HIS13       0.1986
     25  NE2       10.7950   45.5390    0.6110 N.ar   13  HIS13      -0.2212
     26  N         12.2810   41.0150   -0.5720 N.3    15  TRP15      -0.1241
     27  CA        11.6810   39.9230    0.2020 C.3    15  TRP15       0.1605
     28  C         10.9100   38.9380   -0.6530 C.2    15  TRP15       0.2264
     29  O         10.9640   37.7360   -0.4120 O.2    15  TRP15      -0.2867
     30  CB        10.7570   40.4440    1.2870 C.3    15  TRP15       0.0550
     31  CG        11.4170   41.2590    2.3200 C.ar   15  TRP15       0.0003
     32  CD1       12.7240   41.6710    2.3550 C.ar   15  TRP15       0.0946
     33  CD2       10.7930   41.7900    3.4790 C.ar   15  TRP15       0.0152
     34  NE1       12.9420   42.4220    3.4780 N.ar   15  TRP15      -0.2442
     35  CE2       11.7700   42.5090    4.1910 C.ar   15  TRP15       0.0810
     36  CE3        9.5060   41.7050    3.9990 C.ar   15  TRP15       0.0012
     37  CZ2       11.4830   43.1560    5.3940 C.ar   15  TRP15       0.0191
     38  CZ3        9.2290   42.3440    5.1860 C.ar   15  TRP15       0.0001
     39  CH2       10.2090   43.0590    5.8680 C.ar   15  TRP15       0.0015
     40  N          7.4410   41.4000    8.6020 N.3    62  THR62      -0.1218
     41  CA         8.1030   42.4390    9.3610 C.3    62  THR62       0.1862
     42  C          8.1980   42.0540   10.8370 C.2    62  THR62       0.2287
     43  O          7.2610   41.5320   11.4410 O.2    62  THR62      -0.2866
     44  CB         7.4150   43.8320    9.2780 C.3    62  THR62       0.1770
     45  OG1        6.1520   43.8130    9.9530 O.3    62  THR62      -0.2211
     46  CG2        7.2400   44.2420    7.8320 C.3    62  THR62       0.0375
     47  N         14.7570   44.8540    5.8240 N.3   116  ALA116     -0.1245
     48  CA        14.6770   45.7480    4.6890 C.3   116  ALA116      0.1562
     49  C         15.6140   46.9320    4.9460 C.2   116  ALA116      0.2260
     50  O         16.5720   46.8260    5.7150 O.2   116  ALA116     -0.2867
     51  CB        13.2610   46.1770    4.4390 C.3   116  ALA116      0.0290
     52  N         15.1000   53.2140    7.8690 N.3   118  ARG118     -0.1245
     53  CA        13.9910   54.1400    7.7130 C.3   118  ARG118      0.1563
     54  C         14.4710   55.5360    7.3670 C.2   118  ARG118      0.2260
     55  O         15.4960   56.0010    7.8950 O.2   118  ARG118     -0.2867
     56  CB        13.1470   54.1690    8.9870 C.3   118  ARG118      0.0307
     57  CG        12.6610   52.7710    9.4310 C.3   118  ARG118      0.0489
     58  CD        12.0390   51.9780    8.3130 C.3   118  ARG118      0.2205
     59  NE        10.7660   52.5660    7.9320 N.pl3 118  ARG118     -0.0865
     60  CZ         9.8670   51.9640    7.1610 C.cat 118  ARG118      0.5346
     61  NH1       10.1100   50.7810    6.6380 N.pl3 118  ARG118      0.1354
     62  NH2        8.7330   52.5680    6.8980 N.pl3 118  ARG118      0.1354
     63  N          2.8470   59.2660    7.4130 N.3   138  ARG138     -0.1245
     64  CA         2.5300   57.8500    7.2960 C.3   138  ARG138      0.1563
     65  C          3.5220   56.9990    8.0170 C.2   138  ARG138      0.2260
     66  O          4.7280   57.2080    7.8530 O.2   138  ARG138     -0.2867
     67  CB         2.5830   57.4400    5.8300 C.3   138  ARG138      0.0307
     68  CG         2.3320   55.9770    5.6250 C.3   138  ARG138      0.0489
     69  CD         3.6160   55.1220    5.5820 C.3   138  ARG138      0.2205
     70  NE         3.2440   53.7050    5.6470 N.pl3 138  ARG138     -0.0865
     71  CZ         4.1140   52.7060    5.5720 C.cat 138  ARG138      0.5346
     72  NH1        3.6890   51.4540    5.6250 N.pl3 138  ARG138      0.1354
     73  NH2        5.4090   52.9580    5.4900 N.pl3 138  ARG138      0.1354
     74  N          4.3180   52.6680    9.2850 N.3   140  THR140     -0.1204
     75  CA         3.9820   51.2710    9.4760 C.3   140  THR140      0.1979
     76  C          3.1830   51.1500   10.7740 C.2   140  THR140      0.2459
     77  O          3.4700   51.8290   11.7430 O.2   140  THR140     -0.2732
     78  CB         5.2810   50.5050    9.6470 C.3   140  THR140      0.1783
     79  OG1        6.1160   50.7770    8.5280 O.3   140  THR140     -0.2211
     80  CG2        5.0520   48.9940    9.7960 C.3   140  THR140      0.0376
     81  N          2.1580   50.2910   10.7960 N.am  141  PRO141     -0.2728
     82  CA         1.3430   50.1620   12.0160 C.3   141  PRO141      0.1401
     83  C          2.0060   49.3480   13.1310 C.2   141  PRO141      0.2269
     84  O          1.7090   48.1760   13.3020 O.2   141  PRO141     -0.2865
     85  CB         0.0630   49.4720   11.5310 C.3   141  PRO141      0.0296
     86  CG         0.4480   48.7820   10.2710 C.3   141  PRO141      0.0237
     87  CD         1.5560   49.6020    9.6450 C.3   141  PRO141      0.0939
     88  N          1.2600   49.7890    2.7690 N.3   160  LEU160     -0.1245
     89  CA         1.9720   50.2110    1.5690 C.3   160  LEU160      0.1561
     90  C          1.1180   50.6430    0.3730 C.2   160  LEU160      0.2260
     91  O          1.4610   51.6360   -0.2610 O.2   160  LEU160     -0.2867
     92  CB         2.9400   49.0990    1.1370 C.3   160  LEU160      0.0270
     93  CG         4.0850   48.8080    2.1200 C.3   160  LEU160      0.0019
     94  CD1        4.9450   47.6580    1.5840 C.3   160  LEU160      0.0001
     95  CD2        4.9550   50.0500    2.3510 C.3   160  LEU160      0.0001
     96  N         11.5540   53.3430    3.4730 N.3   177  ASP177     -0.1239
     97  CA        12.9500   53.0790    3.1000 C.3   177  ASP177      0.1674
     98  C         13.2110   53.3780    1.6360 C.2   177  ASP177      0.2266
     99  O         12.2850   53.6380    0.8600 O.2   177  ASP177     -0.2867
    100  CB        13.3290   51.6430    3.4000 C.3   177  ASP177      0.1410
    101  CG        12.4540   50.6300    2.6730 C.2   177  ASP177      0.3668
    102  OD1       11.7980   50.9920    1.6810 O.co2 177  ASP177     -0.2456
    103  OD2       12.4350   49.4540    3.0960 O.co2 177  ASP177     -0.2456
    104  N         11.5740   51.1530   -1.3080 N.3   180  LEU180     -0.1245
    105  CA        10.1740   51.3910   -1.6200 C.3   180  LEU180      0.1561
    106  C          9.8930   52.8160   -2.0760 C.2   180  LEU180      0.2260
    107  O          8.9670   53.0450   -2.8360 O.2   180  LEU180     -0.2867
    108  CB         9.2930   50.9910   -0.4480 C.3   180  LEU180      0.0270
    109  CG         9.0920   49.4810   -0.3010 C.3   180  LEU180      0.0019
    110  CD1        8.3190   49.1940    0.9820 C.3   180  LEU180      0.0001
    111  CD2        8.3540   48.9400   -1.5070 C.3   180  LEU180      0.0001
    112  N         14.9020   48.0020   10.2670 N.3   199  PHE199     -0.1241
    113  CA        13.6000   47.4460    9.9630 C.3   199  PHE199      0.1605
    114  C         13.7680   45.9510    9.6670 C.2   199  PHE199      0.2264
    115  O         13.8030   45.5300    8.5090 O.2   199  PHE199     -0.2867
    116  CB        12.9720   48.1670    8.7610 C.3   199  PHE199      0.0534
    117  CG        11.4690   48.0340    8.6950 C.ar  199  PHE199     -0.0203
    118  CD1       10.6510   48.7270    9.5920 C.ar  199  PHE199     -0.0042
    119  CD2       10.8840   47.2240    7.7380 C.ar  199  PHE199     -0.0042
    120  CE1        9.2710   48.6010    9.5240 C.ar  199  PHE199     -0.0003
    121  CE2        9.5020   47.0960    7.6640 C.ar  199  PHE199     -0.0003
    122  CZ         8.6970   47.7950    8.5700 C.ar  199  PHE199     -0.0000
@<TRIPOS>BOND
     1    16    17    1
     2    19    18    2
     3    17    18    1
     4    17    20    1
     5   107   106    2
     6    20    21    1
     7   106   105    1
     8    12    11    2
     9   105   104    1
    10   105   108    1
    11    11    10    1
    12   111   109    1
    13    21    23   ar
    14    21    22   ar
    15    28    29    2
    16    28    27    1
    17    23    25   ar
    18    26    27    1
    19   108   109    1
    20   109   110    1
    21    22    24   ar
    22    91    90    2
    23    10    13    1
    24    10     9    1
    25    13    14    1
    26    13    15    1
    27    27    30    1
    28    90    89    1
    29    25    24   ar
    30     4     3    2
    31    99    98    2
    32     9     3   am
    33    92    89    1
    34    92    93    1
    35     3     2    1
    36    30    31    1
    37    89    88    1
    38    94    93    1
    39    98    97    1
    40   102   101   ar
    41    93    95    1
    42    31    32   ar
    43    31    33   ar
    44     2     1    1
    45     2     5    1
    46    32    34   ar
    47   101   103   ar
    48   101   100    1
    49    97   100    1
    50    97    96    1
    51    34    35   ar
    52    33    36   ar
    53    33    35   ar
    54     5     6    1
    55     5     7    1
    56    36    38   ar
    57     6     8    1
    58    35    37   ar
    59    51    48    1
    60    48    49    1
    61    48    47    1
    62    49    50    2
    63    38    39   ar
    64    37    39   ar
    65    73    71    1
    66    71    72    1
    67    71    70    2
    68    69    68    1
    69    69    70    1
    70    68    67    1
    71    67    64    1
    72    61    60    1
    73    62    60    1
    74    60    59    2
    75    64    63    1
    76    64    65    1
    77    54    53    1
    78    54    55    2
    79   121   119   ar
    80   121   122   ar
    81    53    52    1
    82    53    56    1
    83   119   117   ar
    84    46    44    1
    85    66    65    2
    86    59    58    1
    87    58    57    1
    88   115   114    2
    89    79    78    1
    90   122   120   ar
    91    40    41    1
    92   117   116    1
    93   117   118   ar
    94   116   113    1
    95    56    57    1
    96    44    41    1
    97    44    45    1
    98    74    75    1
    99    41    42    1
   100    75    78    1
   101    75    76    1
   102   120   118   ar
   103    87    86    1
   104    87    81    1
   105    78    80    1
   106   114   113    1
   107   113   112    1
   108    86    85    1
   109    76    81   am
   110    76    77    2
   111    81    82    1
   112    42    43    2
   113    85    82    1
   114    82    83    1
   115    83    84    2
