@<TRIPOS>MOLECULE
tmp/4pagA01.pdb
 86 86 0 0 0
SMALL
GASTEIGER

@<TRIPOS>ATOM
      1  N         43.7200    8.5880   24.2600 N.3    33  TYR33      -0.1241
      2  CA        44.5820    9.7690   24.2350 C.3    33  TYR33       0.1605
      3  C         46.0160    9.4140   23.8290 C.2    33  TYR33       0.2264
      4  O         46.5800   10.0410   22.9370 O.2    33  TYR33      -0.2867
      5  CB        44.5950   10.5380   25.5740 C.3    33  TYR33       0.0534
      6  CG        45.6420   11.6090   25.5060 C.ar   33  TYR33      -0.0201
      7  CD1       45.3760   12.8310   24.8970 C.ar   33  TYR33      -0.0009
      8  CD2       46.9380   11.3560   25.9300 C.ar   33  TYR33      -0.0009
      9  CE1       46.3700   13.7850   24.7470 C.ar   33  TYR33       0.0417
     10  CE2       47.9340   12.2940   25.7830 C.ar   33  TYR33       0.0417
     11  CZ        47.6500   13.5080   25.1980 C.ar   33  TYR33       0.1957
     12  OH        48.6540   14.4390   25.0720 O.3    33  TYR33      -0.2866
     13  N         47.8810   20.1110   32.0090 N.3    56  GLU56      -0.1231
     14  CA        48.3640   21.1090   31.0460 C.3    56  GLU56       0.1699
     15  C         49.8750   21.0100   30.7870 C.2    56  GLU56       0.2592
     16  O         50.3590   21.4160   29.7340 O.2    56  GLU56      -0.2718
     17  CB        47.9600   22.5320   31.4710 C.3    56  GLU56       0.0402
     18  CG        48.6860   23.0930   32.6890 C.3    56  GLU56       0.1161
     19  CD        48.1940   22.5270   34.0150 C.2    56  GLU56       0.3649
     20  OE1       47.1960   21.7670   34.0230 O.co2  56  GLU56      -0.2457
     21  OE2       48.8160   22.8430   35.0570 O.co2  56  GLU56      -0.2457
     22  N         50.6130   20.4460   31.7370 N.am   57  LYS57      -0.1966
     23  CA        52.0530   20.2700   31.5890 C.3    57  LYS57       0.1728
     24  C         52.4110   19.0140   30.7720 C.2    57  LYS57       0.2616
     25  O         53.5230   18.9160   30.2570 O.2    57  LYS57      -0.2715
     26  CB        52.7160   20.1960   32.9720 C.3    57  LYS57       0.0311
     27  CG        52.3620   21.3470   33.9200 C.3    57  LYS57       0.0038
     28  CD        52.9880   22.6720   33.5070 C.3    57  LYS57       0.0206
     29  CE        54.5050   22.6450   33.6660 C.3    57  LYS57       0.1093
     30  NZ        55.1400   23.9890   33.5550 N.3    57  LYS57      -0.1314
     31  N         51.4760   18.0660   30.6490 N.am   58  PHE58      -0.1960
     32  CA        51.7550   16.7570   30.0480 C.3    58  PHE58       0.1771
     33  C         50.9070   16.3990   28.8230 C.2    58  PHE58       0.2619
     34  O         51.3070   15.5460   28.0360 O.2    58  PHE58      -0.2715
     35  CB        51.5430   15.6640   31.0970 C.3    58  PHE58       0.0574
     36  CG        52.5270   15.7030   32.2310 C.ar   58  PHE58      -0.0200
     37  CD1       53.7330   15.0350   32.1340 C.ar   58  PHE58      -0.0042
     38  CD2       52.2340   16.3740   33.4030 C.ar   58  PHE58      -0.0042
     39  CE1       54.6330   15.0540   33.1780 C.ar   58  PHE58      -0.0003
     40  CE2       53.1360   16.3970   34.4600 C.ar   58  PHE58      -0.0003
     41  CZ        54.3350   15.7410   34.3440 C.ar   58  PHE58      -0.0000
     42  N         49.7470   17.0360   28.6680 N.am   59  LEU59      -0.1963
     43  CA        48.7610   16.6440   27.6570 C.3    59  LEU59       0.1728
     44  C         48.5700   17.7420   26.6200 C.2    59  LEU59       0.2617
     45  O         48.8080   18.9220   26.8870 O.2    59  LEU59      -0.2715
     46  CB        47.4150   16.3550   28.3330 C.3    59  LEU59       0.0311
     47  CG        47.4320   15.3390   29.4760 C.3    59  LEU59       0.0022
     48  CD1       46.0800   15.3090   30.1730 C.3    59  LEU59       0.0001
     49  CD2       47.8220   13.9590   28.9770 C.3    59  LEU59       0.0001
     50  N         48.1180   17.3490   25.4360 N.am   60  SER60      -0.1936
     51  CA        47.9250   18.2960   24.3460 C.3    60  SER60       0.2055
     52  C         46.8650   19.3330   24.7080 C.2    60  SER60       0.2642
     53  O         45.9410   19.0590   25.4690 O.2    60  SER60      -0.2714
     54  CB        47.5130   17.5660   23.0680 C.3    60  SER60       0.2130
     55  OG        46.1930   17.0660   23.1860 O.3    60  SER60      -0.2179
     56  N         47.0120   20.5290   24.1550 N.am   61  LYS61      -0.1977
     57  CA        46.0080   21.5670   24.3250 C.3    61  LYS61       0.1596
     58  C         44.6500   21.1020   23.7870 C.2    61  LYS61       0.2287
     59  O         43.6190   21.3730   24.4050 O.2    61  LYS61      -0.2864
     60  CB        46.4500   22.8580   23.6390 C.3    61  LYS61       0.0298
     61  CG        45.6910   24.0890   24.1100 C.3    61  LYS61       0.0038
     62  CD        46.6110   25.2980   24.2080 C.3    61  LYS61       0.0206
     63  CE        45.8320   26.5830   24.4320 C.3    61  LYS61       0.1093
     64  NZ        45.0090   26.9500   23.2440 N.3    61  LYS61      -0.1314
     65  N         53.7020    9.7290   26.5870 N.3   303  PHE303     -0.1227
     66  CA        53.2850   11.1330   26.6080 C.3   303  PHE303      0.1736
     67  C         54.1380   12.0500   25.7310 C.2   303  PHE303      0.2596
     68  O         53.7520   13.1880   25.4850 O.2   303  PHE303     -0.2718
     69  CB        53.2420   11.6570   28.0530 C.3   303  PHE303      0.0547
     70  CG        52.1740   11.0100   28.8920 C.ar  303  PHE303     -0.0202
     71  CD1       50.8360   11.3440   28.7020 C.ar  303  PHE303     -0.0042
     72  CD2       52.4910   10.0550   29.8500 C.ar  303  PHE303     -0.0042
     73  CE1       49.8400   10.7400   29.4570 C.ar  303  PHE303     -0.0003
     74  CE2       51.4970    9.4520   30.6090 C.ar  303  PHE303     -0.0003
     75  CZ        50.1700    9.7940   30.4110 C.ar  303  PHE303     -0.0000
     76  N         55.2810   11.5620   25.2500 N.am  304  GLY304     -0.1942
     77  CA        56.1890   12.3960   24.4690 C.3   304  GLY304      0.2014
     78  C         56.8520   13.4650   25.3190 C.2   304  GLY304      0.2638
     79  O         57.1710   14.5420   24.8220 O.2   304  GLY304     -0.2714
     80  N         57.0600   13.1680   26.6010 N.am  305  VAL305     -0.1977
     81  CA        57.5470   14.1520   27.5630 C.3   305  VAL305      0.1596
     82  C         58.8600   13.6890   28.1840 C.2   305  VAL305      0.2287
     83  O         58.9670   12.5530   28.6430 O.2   305  VAL305     -0.2864
     84  CB        56.5130   14.3960   28.6730 C.3   305  VAL305      0.0276
     85  CG1       57.0970   15.2610   29.7810 C.3   305  VAL305      0.0022
     86  CG2       55.2710   15.0570   28.0900 C.3   305  VAL305      0.0022
@<TRIPOS>BOND
     1     4     3    2
     2    54    55    1
     3    54    51    1
     4    64    63    1
     5    60    61    1
     6    60    57    1
     7    58    57    1
     8    58    59    2
     9     3     2    1
    10    61    62    1
    11    56    57    1
    12    56    52   am
    13    62    63    1
    14     2     1    1
    15     2     5    1
    16    51    52    1
    17    51    50    1
    18    77    76    1
    19    77    78    1
    20    52    53    2
    21     9     7   ar
    22     9    11   ar
    23    79    78    2
    24     7     6   ar
    25    12    11    1
    26    11    10   ar
    27    76    67   am
    28    78    80   am
    29    50    44   am
    30    68    67    2
    31     6     5    1
    32     6     8   ar
    33    67    66    1
    34    10     8   ar
    35    65    66    1
    36    80    81    1
    37    66    69    1
    38    44    45    2
    39    44    43    1
    40    81    82    1
    41    81    84    1
    42    43    46    1
    43    43    42    1
    44    34    33    2
    45    69    70    1
    46    86    84    1
    47    82    83    2
    48    46    47    1
    49    42    33   am
    50    84    85    1
    51    71    70   ar
    52    71    73   ar
    53    33    32    1
    54    70    72   ar
    55    49    47    1
    56    73    75   ar
    57    47    48    1
    58    16    15    2
    59    72    74   ar
    60    32    31    1
    61    32    35    1
    62    25    24    2
    63    75    74   ar
    64    31    24   am
    65    24    23    1
    66    15    14    1
    67    15    22   am
    68    14    17    1
    69    14    13    1
    70    35    36    1
    71    17    18    1
    72    23    22    1
    73    23    26    1
    74    37    36   ar
    75    37    39   ar
    76    36    38   ar
    77    18    19    1
    78    26    27    1
    79    39    41   ar
    80    38    40   ar
    81    28    29    1
    82    28    27    1
    83    30    29    1
    84    19    20   ar
    85    19    21   ar
    86    41    40   ar
