@<TRIPOS>MOLECULE
tmp/4pagA03.pdb
 99 98 0 0 0
SMALL
GASTEIGER

@<TRIPOS>ATOM
      1  N         43.7200    8.5880   24.2600 N.3    33  TYR33      -0.1227
      2  CA        44.5820    9.7690   24.2350 C.3    33  TYR33       0.1736
      3  C         46.0160    9.4140   23.8290 C.2    33  TYR33       0.2595
      4  O         46.5800   10.0410   22.9370 O.2    33  TYR33      -0.2718
      5  CB        44.5950   10.5380   25.5740 C.3    33  TYR33       0.0548
      6  CG        45.6420   11.6090   25.5060 C.ar   33  TYR33      -0.0200
      7  CD1       45.3760   12.8310   24.8970 C.ar   33  TYR33      -0.0009
      8  CD2       46.9380   11.3560   25.9300 C.ar   33  TYR33      -0.0009
      9  CE1       46.3700   13.7850   24.7470 C.ar   33  TYR33       0.0417
     10  CE2       47.9340   12.2940   25.7830 C.ar   33  TYR33       0.0417
     11  CZ        47.6500   13.5080   25.1980 C.ar   33  TYR33       0.1957
     12  OH        48.6540   14.4390   25.0720 O.3    33  TYR33      -0.2866
     13  N         46.6070    8.4210   24.4890 N.am   34  VAL34      -0.1966
     14  CA        48.0130    8.1050   24.2430 C.3    34  VAL34       0.1727
     15  C         48.2440    7.4470   22.8780 C.2    34  VAL34       0.2616
     16  O         49.3450    7.5040   22.3650 O.2    34  VAL34      -0.2715
     17  CB        48.6750    7.2800   25.3870 C.3    34  VAL34       0.0290
     18  CG1       48.8330    8.1440   26.6340 C.3    34  VAL34       0.0023
     19  CG2       47.9110    6.0030   25.6910 C.3    34  VAL34       0.0023
     20  N         47.2120    6.8370   22.2900 N.am   35  ILE35      -0.1977
     21  CA        47.3110    6.3310   20.9210 C.3    35  ILE35       0.1596
     22  C         47.2150    7.5140   19.9470 C.2    35  ILE35       0.2287
     23  O         48.1330    7.7550   19.1600 O.2    35  ILE35      -0.2864
     24  CB        46.2430    5.2590   20.6140 C.3    35  ILE35       0.0276
     25  CG1       46.4510    4.0380   21.5090 C.3    35  ILE35       0.0022
     26  CG2       46.3000    4.8330   19.1450 C.3    35  ILE35       0.0022
     27  CD1       45.2820    3.0770   21.5000 C.3    35  ILE35       0.0001
     28  N         45.8620    3.0340   13.7620 N.3   136  LYS136     -0.1245
     29  CA        47.0470    3.6150   14.3840 C.3   136  LYS136      0.1561
     30  C         47.9050    2.4540   14.9000 C.2   136  LYS136      0.2260
     31  O         48.3300    2.4190   16.0720 O.2   136  LYS136     -0.2867
     32  CB        46.6350    4.5340   15.5390 C.3   136  LYS136      0.0271
     33  CG        45.8980    5.8010   15.1180 C.3   136  LYS136      0.0035
     34  CD        46.7570    6.7600   14.3020 C.3   136  LYS136      0.0206
     35  CE        48.0300    7.1360   15.0390 C.3   136  LYS136      0.1093
     36  NZ        48.7020    8.3140   14.4360 N.3   136  LYS136     -0.1314
     37  N         51.0210    1.1490   14.1910 N.3   138  GLU138     -0.1231
     38  CA        52.4260    1.2580   14.6120 C.3   138  GLU138      0.1699
     39  C         52.5380    1.9470   15.9680 C.2   138  GLU138      0.2592
     40  O         53.3140    1.5180   16.8100 O.2   138  GLU138     -0.2718
     41  CB        53.2910    1.9890   13.5870 C.3   138  GLU138      0.0402
     42  CG        53.4930    1.2520   12.2720 C.3   138  GLU138      0.1161
     43  CD        54.0030   -0.1640   12.4420 C.2   138  GLU138      0.3649
     44  OE1       54.8380   -0.4050   13.3440 O.co2 138  GLU138     -0.2457
     45  OE2       53.5760   -1.0380   11.6610 O.co2 138  GLU138     -0.2457
     46  N         51.7640    3.0090   16.1710 N.am  139  ARG139     -0.1980
     47  CA        51.7250    3.6830   17.4580 C.3   139  ARG139      0.1597
     48  C         51.2310    2.7470   18.5600 C.2   139  ARG139      0.2287
     49  O         51.8850    2.6010   19.5860 O.2   139  ARG139     -0.2864
     50  CB        50.8430    4.9360   17.3840 C.3   139  ARG139      0.0334
     51  CG        50.5710    5.5880   18.7270 C.3   139  ARG139      0.0492
     52  CD        51.8330    6.1250   19.3720 C.3   139  ARG139      0.2205
     53  NE        51.5580    6.7830   20.6450 N.pl3 139  ARG139     -0.0865
     54  CZ        52.4910    7.1650   21.5200 C.cat 139  ARG139      0.5346
     55  NH1       53.7860    6.9760   21.2690 N.pl3 139  ARG139      0.1354
     56  NH2       52.1260    7.7500   22.6540 N.pl3 139  ARG139      0.1354
     57  N         58.3110    9.2020   28.1780 N.3   300  GLN300     -0.1231
     58  CA        58.8320    9.5750   26.8660 C.3   300  GLN300      0.1698
     59  C         57.9780    8.9910   25.7570 C.2   300  GLN300      0.2592
     60  O         57.5770    9.7080   24.8420 O.2   300  GLN300     -0.2718
     61  CB        60.2870    9.1300   26.6940 C.3   300  GLN300      0.0381
     62  CG        60.9920    9.7800   25.5060 C.3   300  GLN300      0.0905
     63  CD        60.7570    9.0880   24.1720 C.2   300  GLN300      0.2608
     64  OE1       60.4710    7.8860   24.1050 O.2   300  GLN300     -0.2717
     65  NE2       60.9090    9.8500   23.0890 N.am  300  GLN300     -0.0878
     66  N         57.6810    7.7050   25.8570 N.am  301  LEU301     -0.1966
     67  CA        56.9470    6.9930   24.8100 C.3   301  LEU301      0.1728
     68  C         55.4540    7.2980   24.8710 C.2   301  LEU301      0.2616
     69  O         54.8440    7.6610   23.8510 O.2   301  LEU301     -0.2715
     70  CB        57.1880    5.4840   24.9160 C.3   301  LEU301      0.0311
     71  CG        56.4150    4.6060   23.9230 C.3   301  LEU301      0.0022
     72  CD1       56.8170    4.9310   22.4890 C.3   301  LEU301      0.0001
     73  CD2       56.6260    3.1320   24.2140 C.3   301  LEU301      0.0001
     74  N         54.8620    7.1670   26.0570 N.am  302  PHE302     -0.1960
     75  CA        53.4050    7.3330   26.1970 C.3   302  PHE302      0.1771
     76  C         52.9370    8.7770   26.0540 C.2   302  PHE302      0.2620
     77  O         51.9000    9.0210   25.4440 O.2   302  PHE302     -0.2715
     78  CB        52.8840    6.7080   27.5070 C.3   302  PHE302      0.0574
     79  CG        52.7300    5.2180   27.4320 C.ar  302  PHE302     -0.0200
     80  CD1       53.8350    4.3970   27.4950 C.ar  302  PHE302     -0.0042
     81  CD2       51.4790    4.6390   27.2370 C.ar  302  PHE302     -0.0042
     82  CE1       53.7090    3.0200   27.3950 C.ar  302  PHE302     -0.0003
     83  CE2       51.3440    3.2670   27.1450 C.ar  302  PHE302     -0.0003
     84  CZ        52.4620    2.4520   27.2200 C.ar  302  PHE302     -0.0000
     85  N         53.7020    9.7290   26.5870 N.am  303  PHE303     -0.1960
     86  CA        53.2850   11.1330   26.6080 C.3   303  PHE303      0.1771
     87  C         54.1380   12.0500   25.7310 C.2   303  PHE303      0.2620
     88  O         53.7520   13.1880   25.4850 O.2   303  PHE303     -0.2715
     89  CB        53.2420   11.6570   28.0530 C.3   303  PHE303      0.0574
     90  CG        52.1740   11.0100   28.8920 C.ar  303  PHE303     -0.0200
     91  CD1       50.8360   11.3440   28.7020 C.ar  303  PHE303     -0.0042
     92  CD2       52.4910   10.0550   29.8500 C.ar  303  PHE303     -0.0042
     93  CE1       49.8400   10.7400   29.4570 C.ar  303  PHE303     -0.0003
     94  CE2       51.4970    9.4520   30.6090 C.ar  303  PHE303     -0.0003
     95  CZ        50.1700    9.7940   30.4110 C.ar  303  PHE303     -0.0000
     96  N         55.2810   11.5620   25.2500 N.am  304  GLY304     -0.1954
     97  CA        56.1890   12.3960   24.4690 C.3   304  GLY304      0.1869
     98  C         56.8520   13.4650   25.3190 C.2   304  GLY304      0.2309
     99  O         57.1710   14.5420   24.8220 O.2   304  GLY304     -0.2863
@<TRIPOS>BOND
     1    45    43   ar
     2    42    43    1
     3    42    41    1
     4    43    44   ar
     5    41    38    1
     6    28    29    1
     7    37    38    1
     8    34    35    1
     9    34    33    1
    10    29    30    1
    11    29    32    1
    12    36    35    1
    13    38    39    1
    14    30    31    2
    15    33    32    1
    16    39    46   am
    17    39    40    2
    18    46    47    1
    19    50    47    1
    20    50    51    1
    21    47    48    1
    22    48    49    2
    23    51    52    1
    24    26    24    1
    25    23    22    2
    26    52    53    1
    27    22    21    1
    28    24    21    1
    29    24    25    1
    30    53    54    2
    31    21    20    1
    32    55    54    1
    33    27    25    1
    34    54    56    1
    35    20    15   am
    36    16    15    2
    37    72    71    1
    38    15    14    1
    39     4     3    2
    40    65    63   am
    41     3     2    1
    42     3    13   am
    43    69    68    2
    44    71    73    1
    45    71    70    1
    46    64    63    2
    47    63    62    1
    48     2     1    1
    49     2     5    1
    50    14    13    1
    51    14    17    1
    52    97    96    1
    53    97    98    1
    54     9     7   ar
    55     9    11   ar
    56    67    68    1
    57    67    70    1
    58    67    66    1
    59    99    98    2
    60    60    59    2
    61    68    74   am
    62     7     6   ar
    63    12    11    1
    64    11    10   ar
    65    96    87   am
    66    17    19    1
    67    17    18    1
    68    77    76    2
    69    88    87    2
    70    62    61    1
    71     6     5    1
    72     6     8   ar
    73    87    86    1
    74    59    66   am
    75    59    58    1
    76    10     8   ar
    77    76    75    1
    78    76    85   am
    79    74    75    1
    80    75    78    1
    81    85    86    1
    82    86    89    1
    83    61    58    1
    84    58    57    1
    85    83    84   ar
    86    83    81   ar
    87    84    82   ar
    88    81    79   ar
    89    82    80   ar
    90    79    80   ar
    91    79    78    1
    92    89    90    1
    93    91    90   ar
    94    91    93   ar
    95    90    92   ar
    96    93    95   ar
    97    92    94   ar
    98    95    94   ar
