@<TRIPOS>MOLECULE
tmp/4pagB01.pdb
 113 114 0 0 0
SMALL
GASTEIGER

@<TRIPOS>ATOM
      1  N         72.8940   14.0270    6.9480 N.3    52  ASN52      -0.1225
      2  CA        72.4430   15.4080    6.6990 C.3    52  ASN52       0.1785
      3  C         71.4550   15.9140    7.7550 C.2    52  ASN52       0.2597
      4  O         70.8150   15.1210    8.4400 O.2    52  ASN52      -0.2718
      5  CB        71.7150   15.4840    5.3410 C.3    52  ASN52       0.1169
      6  CG        72.5970   15.1070    4.1680 C.2    52  ASN52       0.2627
      7  OD1       73.8140   15.0610    4.2810 O.2    52  ASN52      -0.2716
      8  ND2       71.9790   14.8450    3.0300 N.am   52  ASN52      -0.0877
      9  N         71.3120   17.2360    7.8580 N.am   53  ASN53      -0.1974
     10  CA        70.2500   17.8610    8.6610 C.3    53  ASN53       0.1688
     11  C         70.2550   17.5110   10.1450 C.2    53  ASN53       0.2292
     12  O         69.2100   17.5490   10.8030 O.2    53  ASN53      -0.2864
     13  CB        68.8730   17.5690    8.0590 C.3    53  ASN53       0.1181
     14  CG        68.7400   18.1100    6.6520 C.2    53  ASN53       0.2629
     15  OD1       68.8720   19.3150    6.4310 O.2    53  ASN53      -0.2716
     16  ND2       68.4990   17.2360    5.6980 N.am   53  ASN53      -0.0877
     17  N         72.8610   11.8520   -4.2060 N.3   229  PRO229     -0.2116
     18  CA        71.8420   12.6840   -4.8520 C.3   229  PRO229      0.1372
     19  C         72.2080   13.1450   -6.2600 C.2   229  PRO229      0.2244
     20  O         71.3070   13.3390   -7.0780 O.2   229  PRO229     -0.2868
     21  CB        71.7090   13.8920   -3.9100 C.3   229  PRO229      0.0268
     22  CG        72.9240   13.8690   -3.0590 C.3   229  PRO229      0.0207
     23  CD        73.3080   12.4380   -2.9260 C.3   229  PRO229      0.0892
     24  N         66.2350    7.3150   -3.7150 N.3   254  LEU254     -0.1231
     25  CA        67.3560    7.9260   -3.0180 C.3   254  LEU254      0.1693
     26  C         67.2610    7.6530   -1.5110 C.2   254  LEU254      0.2592
     27  O         66.2320    7.8940   -0.8870 O.2   254  LEU254     -0.2718
     28  CB        67.3700    9.4280   -3.2850 C.3   254  LEU254      0.0284
     29  CG        68.5190   10.2450   -2.6910 C.3   254  LEU254      0.0019
     30  CD1       69.8700    9.8400   -3.2570 C.3   254  LEU254      0.0001
     31  CD2       68.2580   11.7200   -2.9330 C.3   254  LEU254      0.0001
     32  N         68.3460    7.1560   -0.9300 N.am  255  VAL255     -0.1966
     33  CA        68.3320    6.7110    0.4650 C.3   255  VAL255      0.1712
     34  C         68.2650    7.9460    1.3740 C.2   255  VAL255      0.2458
     35  O         69.0750    8.8490    1.2120 O.2   255  VAL255     -0.2730
     36  CB        69.6080    5.9190    0.8050 C.3   255  VAL255      0.0289
     37  CG1       69.6700    5.6110    2.2900 C.3   255  VAL255      0.0023
     38  CG2       69.6860    4.6320   -0.0010 C.3   255  VAL255      0.0023
     39  N         67.3120    7.9890    2.3300 N.am  256  PRO256     -0.2716
     40  CA        67.3010    9.1180    3.2800 C.3   256  PRO256      0.1536
     41  C         68.5050    9.1750    4.2190 C.2   256  PRO256      0.2598
     42  O         69.0850    8.1280    4.5610 O.2   256  PRO256     -0.2715
     43  CB        66.0070    8.9110    4.0750 C.3   256  PRO256      0.0310
     44  CG        65.1640    8.0360    3.2130 C.3   256  PRO256      0.0237
     45  CD        66.1270    7.1370    2.4920 C.3   256  PRO256      0.0939
     46  N         68.8550   10.4010    4.6270 N.am  257  LYS257     -0.1964
     47  CA        70.1110   10.6830    5.3270 C.3   257  LYS257      0.1728
     48  C         69.9790   11.5120    6.6060 C.2   257  LYS257      0.2616
     49  O         70.9890   11.8010    7.2620 O.2   257  LYS257     -0.2715
     50  CB        71.0410   11.4240    4.3800 C.3   257  LYS257      0.0311
     51  CG        71.3100   10.6510    3.1000 C.3   257  LYS257      0.0038
     52  CD        72.3250   11.3460    2.2330 C.3   257  LYS257      0.0206
     53  CE        72.6900   10.4820    1.0330 C.3   257  LYS257      0.1093
     54  NZ        71.5030   10.0140    0.2720 N.3   257  LYS257     -0.1314
     55  N         68.7510   11.8850    6.9540 N.am  258  SER258     -0.1950
     56  CA        68.4860   12.8430    8.0230 C.3   258  SER258      0.1924
     57  C         68.0060   12.1590    9.2930 C.2   258  SER258      0.2314
     58  O         66.9090   11.6170    9.3020 O.2   258  SER258     -0.2863
     59  CB        67.4080   13.8200    7.5640 C.3   258  SER258      0.2116
     60  OG        67.7880   14.4750    6.3730 O.3   258  SER258     -0.2180
     61  N         62.0120    0.3100    4.9870 N.3   276  TRP276     -0.1241
     62  CA        61.9030    1.2270    3.8590 C.3   276  TRP276      0.1605
     63  C         62.2790    0.4990    2.5590 C.2   276  TRP276      0.2264
     64  O         61.5360    0.5670    1.5920 O.2   276  TRP276     -0.2867
     65  CB        62.7660    2.4650    4.0820 C.3   276  TRP276      0.0550
     66  CG        62.8280    3.3870    2.9190 C.ar  276  TRP276      0.0003
     67  CD1       61.8850    4.2970    2.5410 C.ar  276  TRP276      0.0946
     68  CD2       63.8990    3.5070    1.9830 C.ar  276  TRP276      0.0152
     69  NE1       62.3010    4.9720    1.4250 N.ar  276  TRP276     -0.2442
     70  CE2       63.5420    4.5150    1.0680 C.ar  276  TRP276      0.0810
     71  CE3       65.1370    2.8630    1.8340 C.ar  276  TRP276      0.0012
     72  CZ2       64.3640    4.8820    0.0060 C.ar  276  TRP276      0.0191
     73  CZ3       65.9520    3.2320    0.7860 C.ar  276  TRP276      0.0001
     74  CH2       65.5620    4.2320   -0.1190 C.ar  276  TRP276      0.0015
     75  N         59.2520   16.1710    2.9830 N.3   313  THR313     -0.1203
     76  CA        60.4960   16.9330    2.8340 C.3   313  THR313      0.1994
     77  C         61.7590   16.1000    3.0300 C.2   313  THR313      0.2618
     78  O         62.6810   16.1650    2.2150 O.2   313  THR313     -0.2717
     79  CB        60.5340   18.0990    3.8360 C.3   313  THR313      0.1784
     80  OG1       59.5350   19.0530    3.4750 O.3   313  THR313     -0.2211
     81  CG2       61.8980   18.7810    3.8520 C.3   313  THR313      0.0376
     82  N         61.8150   15.3400    4.1170 N.am  314  TYR314     -0.1961
     83  CA        63.0390   14.6260    4.4630 C.3   314  TYR314      0.1771
     84  C         63.1350   13.2400    3.8500 C.2   314  TYR314      0.2620
     85  O         64.2380   12.7720    3.5970 O.2   314  TYR314     -0.2715
     86  CB        63.1990   14.5430    5.9860 C.3   314  TYR314      0.0574
     87  CG        63.4190   15.9020    6.5930 C.ar  314  TYR314     -0.0198
     88  CD1       64.6510   16.5300    6.4920 C.ar  314  TYR314     -0.0009
     89  CD2       62.3900   16.5720    7.2380 C.ar  314  TYR314     -0.0009
     90  CE1       64.8580   17.7890    7.0360 C.ar  314  TYR314      0.0417
     91  CE2       62.5840   17.8290    7.7860 C.ar  314  TYR314      0.0417
     92  CZ        63.8180   18.4310    7.6800 C.ar  314  TYR314      0.1957
     93  OH        64.0110   19.6690    8.2170 O.3   314  TYR314     -0.2866
     94  N         61.9950   12.5900    3.6050 N.am  315  PHE315     -0.1960
     95  CA        61.9860   11.1710    3.2500 C.3   315  PHE315      0.1771
     96  C         61.1730   10.7680    2.0170 C.2   315  PHE315      0.2619
     97  O         61.2390    9.6090    1.6220 O.2   315  PHE315     -0.2715
     98  CB        61.5010   10.3440    4.4490 C.3   315  PHE315      0.0574
     99  CG        62.0980   10.7670    5.7620 C.ar  315  PHE315     -0.0200
    100  CD1       63.4690   10.7890    5.9400 C.ar  315  PHE315     -0.0042
    101  CD2       61.2900   11.1420    6.8190 C.ar  315  PHE315     -0.0042
    102  CE1       64.0260   11.1840    7.1450 C.ar  315  PHE315     -0.0003
    103  CE2       61.8400   11.5320    8.0260 C.ar  315  PHE315     -0.0003
    104  CZ        63.2090   11.5520    8.1880 C.ar  315  PHE315     -0.0000
    105  N         60.4340   11.7040    1.4140 N.am  316  LYS316     -0.1977
    106  CA        59.5190   11.4200    0.2930 C.3   316  LYS316      0.1596
    107  C         58.4860   10.3480    0.6410 C.2   316  LYS316      0.2287
    108  O         58.1940    9.4670   -0.1600 O.2   316  LYS316     -0.2864
    109  CB        60.2820   11.0360   -0.9870 C.3   316  LYS316      0.0298
    110  CG        61.0920   12.1650   -1.6060 C.3   316  LYS316      0.0038
    111  CD        61.7630   11.7300   -2.9100 C.3   316  LYS316      0.0206
    112  CE        63.1560   12.3430   -3.0630 C.3   316  LYS316      0.1093
    113  NZ        64.0540   11.7760   -4.1250 N.3   316  LYS316     -0.1314
@<TRIPOS>BOND
     1    20    19    2
     2    19    18    1
     3    18    17    1
     4    18    21    1
     5    17    23    1
     6   113   112    1
     7    21    22    1
     8    24    25    1
     9    28    25    1
    10    28    29    1
    11    30    29    1
    12   112   111    1
    13    22    23    1
    14    25    26    1
    15    31    29    1
    16   111   110    1
    17   110   109    1
    18    26    32   am
    19    26    27    2
    20   109   106    1
    21    32    33    1
    22   108   107    2
    23    74    72   ar
    24    74    73   ar
    25    38    36    1
    26    72    70   ar
    27    54    53    1
    28   106   107    1
    29   106   105    1
    30    33    36    1
    31    33    34    1
    32    73    71   ar
    33    36    37    1
    34    53    52    1
    35    70    69   ar
    36    70    68   ar
    37    35    34    2
    38    34    39   am
    39   105    96   am
    40    69    67   ar
    41    64    63    2
    42    97    96    2
    43    71    68   ar
    44    68    66   ar
    45    96    95    1
    46    78    77    2
    47    52    51    1
    48    39    45    1
    49    39    40    1
    50    45    44    1
    51    67    66   ar
    52    63    62    1
    53    76    75    1
    54    76    77    1
    55    76    79    1
    56    66    65    1
    57     8     6   am
    58    77    82   am
    59    51    50    1
    60    44    43    1
    61    95    94    1
    62    95    98    1
    63    40    43    1
    64    40    41    1
    65    80    79    1
    66    85    84    2
    67    94    84   am
    68    79    81    1
    69    84    83    1
    70    62    65    1
    71    62    61    1
    72    82    83    1
    73     6     7    2
    74     6     5    1
    75    41    42    2
    76    41    46   am
    77    50    47    1
    78    98    99    1
    79    83    86    1
    80    46    47    1
    81    47    48    1
    82     5     2    1
    83    16    14   am
    84    99   100   ar
    85    99   101   ar
    86   100   102   ar
    87    86    87    1
    88    60    59    1
    89    15    14    2
    90    88    87   ar
    91    88    90   ar
    92    87    89   ar
    93    48    55   am
    94    48    49    2
    95    14    13    1
    96     2     1    1
    97     2     3    1
    98   101   103   ar
    99    55    56    1
   100    90    92   ar
   101   102   104   ar
   102    89    91   ar
   103    59    56    1
   104    92    91   ar
   105    92    93    1
   106     3     9   am
   107     3     4    2
   108     9    10    1
   109    56    57    1
   110   103   104   ar
   111    13    10    1
   112    10    11    1
   113    57    58    2
   114    11    12    2
