@<TRIPOS>MOLECULE
tmp/4pagA02.pdb
 85 85 0 0 0
SMALL
GASTEIGER

@<TRIPOS>ATOM
      1  N         45.9740   15.2950   37.9650 N.3    53  ASN53      -0.1240
      2  CA        46.4890   16.6540   38.1530 C.3    53  ASN53       0.1653
      3  C         47.4860   17.0710   37.0820 C.2    53  ASN53       0.2266
      4  O         48.1250   16.2370   36.4590 O.2    53  ASN53      -0.2867
      5  CB        47.2560   16.7610   39.4940 C.3    53  ASN53       0.1155
      6  CG        46.3990   16.4630   40.7050 C.2    53  ASN53       0.2627
      7  OD1       45.1630   16.4390   40.6450 O.2    53  ASN53      -0.2716
      8  ND2       47.0550   16.2350   41.8230 N.am   53  ASN53      -0.0877
      9  N         45.9920   13.5600   49.2290 N.3   230  PRO230     -0.2116
     10  CA        47.0900   14.2950   49.8580 C.3   230  PRO230      0.1372
     11  C         46.7630   14.8330   51.2530 C.2   230  PRO230      0.2244
     12  O         47.6760   14.9370   52.0660 O.2   230  PRO230     -0.2868
     13  CB        47.3720   15.4430   48.8790 C.3   230  PRO230      0.0268
     14  CG        46.1540   15.5570   48.0370 C.3   230  PRO230      0.0207
     15  CD        45.5600   14.1830   47.9640 C.3   230  PRO230      0.0892
     16  N         52.2950    8.4490   48.7530 N.3   255  LEU255     -0.1231
     17  CA        51.2000    9.1190   48.0670 C.3   255  LEU255      0.1693
     18  C         51.2460    8.7720   46.5770 C.2   255  LEU255      0.2592
     19  O         52.2700    8.9190   45.9280 O.2   255  LEU255     -0.2718
     20  CB        51.3090   10.6340   48.2650 C.3   255  LEU255      0.0284
     21  CG        50.2140   11.5470   47.7230 C.3   255  LEU255      0.0019
     22  CD1       48.8720   11.2720   48.3790 C.3   255  LEU255      0.0001
     23  CD2       50.6200   13.0080   47.9140 C.3   255  LEU255      0.0001
     24  N         50.1350    8.2970   46.0410 N.am  256  VAL256     -0.1966
     25  CA        50.0810    7.8960   44.6320 C.3   256  VAL256      0.1712
     26  C         50.2240    9.1230   43.7250 C.2   256  VAL256      0.2458
     27  O         49.4790   10.0830   43.8830 O.2   256  VAL256     -0.2730
     28  CB        48.7500    7.1780   44.3060 C.3   256  VAL256      0.0289
     29  CG1       48.6650    6.8170   42.8360 C.3   256  VAL256      0.0023
     30  CG2       48.5870    5.9230   45.1460 C.3   256  VAL256      0.0023
     31  N         51.1760    9.1000   42.7710 N.am  257  PRO257     -0.2716
     32  CA        51.2700   10.1740   41.7840 C.3   257  PRO257      0.1536
     33  C         50.0650   10.2770   40.8610 C.2   257  PRO257      0.2598
     34  O         49.4060    9.2690   40.5480 O.2   257  PRO257     -0.2715
     35  CB        52.5120    9.8050   40.9700 C.3   257  PRO257      0.0310
     36  CG        53.3130    8.9350   41.8730 C.3   257  PRO257      0.0237
     37  CD        52.2940    8.1550   42.6450 C.3   257  PRO257      0.0939
     38  N         49.7980   11.4980   40.4190 N.am  258  LYS258     -0.1978
     39  CA        48.5570   11.8210   39.7160 C.3   258  LYS258      0.1596
     40  C         48.7310   12.6010   38.4230 C.2   258  LYS258      0.2287
     41  O         47.7340   12.9300   37.7810 O.2   258  LYS258     -0.2864
     42  CB        47.6510   12.6270   40.6510 C.3   258  LYS258      0.0298
     43  CG        47.2230   11.8450   41.8700 C.3   258  LYS258      0.0038
     44  CD        46.5500   12.7000   42.9070 C.3   258  LYS258      0.0206
     45  CE        46.1280   11.8350   44.0790 C.3   258  LYS258      0.1093
     46  NZ        47.2920   11.4110   44.8990 N.3   258  LYS258     -0.1314
     47  N         59.5950   16.7750   41.8160 N.3   314  THR314     -0.1203
     48  CA        58.4160   17.6350   41.9070 C.3   314  THR314      0.1994
     49  C         57.1020   16.8850   41.7410 C.2   314  THR314      0.2618
     50  O         56.2050   17.0140   42.5630 O.2   314  THR314     -0.2717
     51  CB        58.4700   18.7490   40.8400 C.3   314  THR314      0.1784
     52  OG1       59.6110   19.5770   41.0790 O.3   314  THR314     -0.2211
     53  CG2       57.2090   19.6120   40.8700 C.3   314  THR314      0.0376
     54  N         56.9790   16.1210   40.6650 N.am  315  TYR315     -0.1961
     55  CA        55.7210   15.4450   40.3720 C.3   315  TYR315      0.1771
     56  C         55.5500   14.0890   41.0510 C.2   315  TYR315      0.2620
     57  O         54.4190   13.6880   41.3250 O.2   315  TYR315     -0.2715
     58  CB        55.5480   15.3050   38.8600 C.3   315  TYR315      0.0574
     59  CG        55.4250   16.6480   38.1840 C.ar  315  TYR315     -0.0198
     60  CD1       54.2740   17.4060   38.3290 C.ar  315  TYR315     -0.0009
     61  CD2       56.4610   17.1690   37.4190 C.ar  315  TYR315     -0.0009
     62  CE1       54.1530   18.6430   37.7260 C.ar  315  TYR315      0.0417
     63  CE2       56.3500   18.4040   36.8110 C.ar  315  TYR315      0.0417
     64  CZ        55.1930   19.1370   36.9660 C.ar  315  TYR315      0.1957
     65  OH        55.0620   20.3660   36.3650 O.3   315  TYR315     -0.2866
     66  N         56.6540   13.3900   41.3210 N.am  316  PHE316     -0.1960
     67  CA        56.5900   11.9680   41.7120 C.3   316  PHE316      0.1771
     68  C         57.3820   11.5580   42.9620 C.2   316  PHE316      0.2619
     69  O         57.3000   10.3990   43.3780 O.2   316  PHE316     -0.2715
     70  CB        57.0440   11.0970   40.5360 C.3   316  PHE316      0.0574
     71  CG        56.4540   11.5140   39.2160 C.ar  316  PHE316     -0.0200
     72  CD1       55.0870   11.5810   39.0570 C.ar  316  PHE316     -0.0042
     73  CD2       57.2640   11.8420   38.1450 C.ar  316  PHE316     -0.0042
     74  CE1       54.5260   11.9730   37.8530 C.ar  316  PHE316     -0.0003
     75  CE2       56.7140   12.2320   36.9300 C.ar  316  PHE316     -0.0003
     76  CZ        55.3420   12.2950   36.7880 C.ar  316  PHE316     -0.0000
     77  N         58.1290   12.4900   43.5560 N.am  317  LYS317     -0.1977
     78  CA        58.9940   12.1980   44.7040 C.3   317  LYS317      0.1596
     79  C         59.9650   11.0560   44.3980 C.2   317  LYS317      0.2287
     80  O         60.2030   10.1760   45.2270 O.2   317  LYS317     -0.2864
     81  CB        58.1700   11.8900   45.9640 C.3   317  LYS317      0.0298
     82  CG        57.3480   13.0580   46.4840 C.3   317  LYS317      0.0038
     83  CD        56.3120   12.5890   47.4980 C.3   317  LYS317      0.0206
     84  CE        55.2340   13.6350   47.7570 C.3   317  LYS317      0.1093
     85  NZ        54.2270   13.1490   48.7460 N.3   317  LYS317     -0.1314
@<TRIPOS>BOND
     1    65    64    1
     2     4     3    2
     3    76    75   ar
     4    76    74   ar
     5    63    64   ar
     6    63    61   ar
     7    75    73   ar
     8    64    62   ar
     9     3     2    1
    10    61    59   ar
    11    62    60   ar
    12    41    40    2
    13    74    72   ar
    14     1     2    1
    15    73    71   ar
    16     2     5    1
    17    59    60   ar
    18    59    58    1
    19    40    39    1
    20    58    55    1
    21    72    71   ar
    22    71    70    1
    23     5     6    1
    24    39    38    1
    25    39    42    1
    26    55    54    1
    27    55    56    1
    28    38    33   am
    29    70    67    1
    30    34    33    2
    31     7     6    2
    32    42    43    1
    33    54    49   am
    34     6     8   am
    35    51    53    1
    36    51    52    1
    37    51    48    1
    38    33    32    1
    39    35    32    1
    40    35    36    1
    41    56    66   am
    42    56    57    2
    43    66    67    1
    44    67    68    1
    45    49    48    1
    46    49    50    2
    47    32    31    1
    48    47    48    1
    49    43    44    1
    50    36    37    1
    51    37    31    1
    52    31    26   am
    53    29    28    1
    54    44    45    1
    55    68    69    2
    56    68    77   am
    57    77    78    1
    58    26    27    2
    59    26    25    1
    60    45    46    1
    61    28    25    1
    62    28    30    1
    63    79    78    1
    64    79    80    2
    65    25    24    1
    66    78    81    1
    67    19    18    2
    68    81    82    1
    69    24    18   am
    70    82    83    1
    71    18    17    1
    72    83    84    1
    73    21    23    1
    74    21    20    1
    75    21    22    1
    76    84    85    1
    77    15    14    1
    78    15     9    1
    79    14    13    1
    80    17    20    1
    81    17    16    1
    82    13    10    1
    83     9    10    1
    84    10    11    1
    85    11    12    2
