@<TRIPOS>MOLECULE
tmp/4paiA00.pdb
 122 115 0 0 0
SMALL
GASTEIGER

@<TRIPOS>ATOM
      1  N          3.6050   41.0140    2.6930 N.3     8  ILE8       -0.1231
      2  CA         2.9040   42.2430    2.3380 C.3     8  ILE8        0.1692
      3  C          3.6150   43.0470    1.2660 C.2     8  ILE8        0.2592
      4  O          3.0830   44.0430    0.7730 O.2     8  ILE8       -0.2718
      5  CB         2.6550   43.1630    3.5510 C.3     8  ILE8        0.0266
      6  CG1        3.9750   43.6880    4.1410 C.3     8  ILE8        0.0019
      7  CG2        1.7700   42.4230    4.5520 C.3     8  ILE8        0.0020
      8  CD1        3.7660   44.7350    5.2350 C.3     8  ILE8        0.0001
      9  N          4.8190   42.6360    0.9100 N.am    9  THR9       -0.1953
     10  CA         5.6350   43.3960   -0.0220 C.3     9  THR9        0.1897
     11  C          5.2230   43.1910   -1.4760 C.2     9  THR9        0.2313
     12  O          4.7750   42.1110   -1.8560 O.2     9  THR9       -0.2863
     13  CB         7.1210   43.0420    0.1390 C.3     9  THR9        0.1794
     14  OG1        7.3040   41.6300    0.1790 O.3     9  THR9       -0.2208
     15  CG2        7.6690   43.6260    1.4130 C.3     9  THR9        0.0378
     16  N          9.9700   43.6790   -4.7050 N.3    13  HIS13      -0.1241
     17  CA        10.6990   43.8550   -3.4640 C.3    13  HIS13       0.1621
     18  C         11.6500   42.6760   -3.2420 C.2    13  HIS13       0.2264
     19  O         11.3310   41.5240   -3.5250 O.2    13  HIS13      -0.2867
     20  CB         9.6910   43.9750   -2.3210 C.3    13  HIS13       0.0745
     21  CG        10.2520   44.4720   -1.0240 C.ar   13  HIS13       0.0817
     22  ND1       11.0080   43.6900   -0.1840 N.ar   13  HIS13      -0.2268
     23  CD2       10.1300   45.6670   -0.4070 C.ar   13  HIS13       0.1154
     24  CE1       11.3290   44.3710    0.8970 C.ar   13  HIS13       0.1986
     25  NE2       10.7960   45.5750    0.7920 N.ar   13  HIS13      -0.2212
     26  N         12.3390   41.0460   -0.5360 N.3    15  TRP15      -0.1241
     27  CA        11.7150   39.9500    0.2080 C.3    15  TRP15       0.1605
     28  C         10.9370   38.9870   -0.6530 C.2    15  TRP15       0.2264
     29  O         10.9580   37.7740   -0.4370 O.2    15  TRP15      -0.2867
     30  CB        10.7960   40.4560    1.3090 C.3    15  TRP15       0.0550
     31  CG        11.4440   41.2800    2.3680 C.ar   15  TRP15       0.0003
     32  CD1       12.7500   41.6700    2.4360 C.ar   15  TRP15       0.0946
     33  CD2       10.7960   41.8170    3.5220 C.ar   15  TRP15       0.0152
     34  NE1       12.9470   42.4200    3.5710 N.ar   15  TRP15      -0.2442
     35  CE2       11.7640   42.5300    4.2540 C.ar   15  TRP15       0.0810
     36  CE3        9.4900   41.7500    4.0140 C.ar   15  TRP15       0.0012
     37  CZ2       11.4580   43.2000    5.4380 C.ar   15  TRP15       0.0191
     38  CZ3        9.1940   42.3880    5.1930 C.ar   15  TRP15       0.0001
     39  CH2       10.1710   43.1110    5.8940 C.ar   15  TRP15       0.0015
     40  N          7.4290   41.3970    8.5950 N.3    62  THR62      -0.1218
     41  CA         8.1110   42.4470    9.3400 C.3    62  THR62       0.1862
     42  C          8.2090   42.0530   10.8250 C.2    62  THR62       0.2287
     43  O          7.2550   41.5360   11.4300 O.2    62  THR62      -0.2866
     44  CB         7.4250   43.8330    9.2560 C.3    62  THR62       0.1770
     45  OG1        6.1790   43.8080    9.9610 O.3    62  THR62      -0.2211
     46  CG2        7.2140   44.2420    7.8170 C.3    62  THR62       0.0375
     47  N         14.8070   44.7990    5.8040 N.3   116  ALA116     -0.1245
     48  CA        14.7180   45.7100    4.6830 C.3   116  ALA116      0.1562
     49  C         15.6890   46.8670    4.9330 C.2   116  ALA116      0.2260
     50  O         16.5860   46.7900    5.7840 O.2   116  ALA116     -0.2867
     51  CB        13.3080   46.1960    4.4710 C.3   116  ALA116      0.0290
     52  N         15.1530   53.2130    7.8430 N.3   118  ARG118     -0.1245
     53  CA        14.0500   54.1390    7.6880 C.3   118  ARG118      0.1563
     54  C         14.5150   55.5420    7.3360 C.2   118  ARG118      0.2260
     55  O         15.5390   56.0210    7.8490 O.2   118  ARG118     -0.2867
     56  CB        13.1970   54.1440    8.9710 C.3   118  ARG118      0.0307
     57  CG        12.7280   52.7360    9.3960 C.3   118  ARG118      0.0489
     58  CD        12.0570   51.9520    8.2680 C.3   118  ARG118      0.2205
     59  NE        10.7910   52.5570    7.8850 N.pl3 118  ARG118     -0.0865
     60  CZ         9.8930   51.9810    7.1000 C.cat 118  ARG118      0.5346
     61  NH1       10.1180   50.8040    6.5560 N.pl3 118  ARG118      0.1354
     62  NH2        8.7430   52.5960    6.8700 N.pl3 118  ARG118      0.1354
     63  N          2.8260   59.2860    7.4100 N.3   138  ARG138     -0.1245
     64  CA         2.5170   57.8700    7.2880 C.3   138  ARG138      0.1563
     65  C          3.5420   57.0310    8.0210 C.2   138  ARG138      0.2260
     66  O          4.7460   57.2400    7.8620 O.2   138  ARG138     -0.2867
     67  CB         2.5310   57.4550    5.8100 C.3   138  ARG138      0.0307
     68  CG         2.3100   55.9870    5.5980 C.3   138  ARG138      0.0489
     69  CD         3.5920   55.1440    5.5520 C.3   138  ARG138      0.2205
     70  NE         3.2430   53.7210    5.6220 N.pl3 138  ARG138     -0.0865
     71  CZ         4.1130   52.7290    5.5680 C.cat 138  ARG138      0.5346
     72  NH1        3.7020   51.4810    5.6600 N.pl3 138  ARG138      0.1354
     73  NH2        5.4130   52.9580    5.4440 N.pl3 138  ARG138      0.1354
     74  N          4.3240   52.6980    9.2580 N.3   140  THR140     -0.1204
     75  CA         3.9850   51.2980    9.4220 C.3   140  THR140      0.1979
     76  C          3.1660   51.1600   10.7120 C.2   140  THR140      0.2459
     77  O          3.4790   51.8230   11.6980 O.2   140  THR140     -0.2732
     78  CB         5.2890   50.5030    9.5920 C.3   140  THR140      0.1783
     79  OG1        6.1620   50.7690    8.4890 O.3   140  THR140     -0.2211
     80  CG2        5.0370   49.0150    9.7100 C.3   140  THR140      0.0376
     81  N          2.1300   50.3030   10.7230 N.am  141  PRO141     -0.2728
     82  CA         1.3310   50.1760   11.9530 C.3   141  PRO141      0.1401
     83  C          2.0050   49.3530   13.0790 C.2   141  PRO141      0.2269
     84  O          1.7100   48.1800   13.2750 O.2   141  PRO141     -0.2865
     85  CB         0.0210   49.5300   11.4750 C.3   141  PRO141      0.0296
     86  CG         0.3940   48.8170   10.1970 C.3   141  PRO141      0.0237
     87  CD         1.5240   49.6170    9.5740 C.3   141  PRO141      0.0939
     88  N          1.1680   49.8780    2.7670 N.3   160  LEU160     -0.1245
     89  CA         1.9000   50.2910    1.5780 C.3   160  LEU160      0.1561
     90  C          1.0600   50.7180    0.3650 C.2   160  LEU160      0.2260
     91  O          1.3940   51.7100   -0.2600 O.2   160  LEU160     -0.2867
     92  CB         2.8810   49.1910    1.1580 C.3   160  LEU160      0.0270
     93  CG         4.0380   48.9120    2.1360 C.3   160  LEU160      0.0019
     94  CD1        4.9070   47.7600    1.6030 C.3   160  LEU160      0.0001
     95  CD2        4.8770   50.1620    2.3340 C.3   160  LEU160      0.0001
     96  N         11.4880   53.4120    3.3770 N.3   177  ASP177     -0.1239
     97  CA        12.8610   53.1100    3.0290 C.3   177  ASP177      0.1674
     98  C         13.1550   53.4570    1.5680 C.2   177  ASP177      0.2266
     99  O         12.2540   53.7200    0.7760 O.2   177  ASP177     -0.2867
    100  CB        13.1570   51.6420    3.3040 C.3   177  ASP177      0.1410
    101  CG        12.1710   50.6980    2.6240 C.2   177  ASP177      0.3668
    102  OD1       11.7630   50.9580    1.4710 O.co2 177  ASP177     -0.2456
    103  OD2       11.8300   49.6690    3.2320 O.co2 177  ASP177     -0.2456
    104  N         11.5410   51.2370   -1.4120 N.3   180  LEU180     -0.1245
    105  CA        10.1470   51.4820   -1.7400 C.3   180  LEU180      0.1561
    106  C          9.8810   52.9100   -2.1980 C.2   180  LEU180      0.2260
    107  O          8.9650   53.1390   -2.9680 O.2   180  LEU180     -0.2867
    108  CB         9.2280   51.0560   -0.5910 C.3   180  LEU180      0.0270
    109  CG         9.0830   49.5500   -0.4260 C.3   180  LEU180      0.0019
    110  CD1        8.3140   49.2300    0.8500 C.3   180  LEU180      0.0001
    111  CD2        8.3960   48.9470   -1.6440 C.3   180  LEU180      0.0001
    112  N         14.9370   47.9930   10.2850 N.3   199  PHE199     -0.1241
    113  CA        13.6230   47.4390    9.9470 C.3   199  PHE199      0.1605
    114  C         13.7940   45.9570    9.6550 C.2   199  PHE199      0.2264
    115  O         13.8310   45.5280    8.5180 O.2   199  PHE199     -0.2867
    116  CB        12.9930   48.1740    8.7620 C.3   199  PHE199      0.0534
    117  CG        11.4920   48.0280    8.6780 C.ar  199  PHE199     -0.0203
    118  CD1       10.6690   48.7230    9.5640 C.ar  199  PHE199     -0.0042
    119  CD2       10.9070   47.2160    7.7100 C.ar  199  PHE199     -0.0042
    120  CE1        9.2850   48.6110    9.4930 C.ar  199  PHE199     -0.0003
    121  CE2        9.5150   47.1010    7.6250 C.ar  199  PHE199     -0.0003
    122  CZ         8.7110   47.7990    8.5310 C.ar  199  PHE199     -0.0000
@<TRIPOS>BOND
     1    16    17    1
     2    19    18    2
     3    17    18    1
     4    17    20    1
     5   107   106    2
     6    20    21    1
     7   106   105    1
     8    12    11    2
     9   105   104    1
    10   105   108    1
    11   111   109    1
    12    11    10    1
    13    21    23   ar
    14    21    22   ar
    15    28    29    2
    16    28    27    1
    17   108   109    1
    18    26    27    1
    19   109   110    1
    20    23    25   ar
    21    91    90    2
    22    22    24   ar
    23    10    13    1
    24    10     9    1
    25    13    14    1
    26    13    15    1
    27    27    30    1
    28    90    89    1
    29     4     3    2
    30    99    98    2
    31    25    24   ar
    32     9     3   am
    33    92    89    1
    34    92    93    1
    35     3     2    1
    36    30    31    1
    37   102   101   ar
    38    98    97    1
    39    89    88    1
    40    94    93    1
    41    93    95    1
    42     2     1    1
    43     2     5    1
    44    31    32   ar
    45    31    33   ar
    46    32    34   ar
    47   101   103   ar
    48   101   100    1
    49    97   100    1
    50    97    96    1
    51    33    36   ar
    52    33    35   ar
    53     5     6    1
    54     5     7    1
    55    34    35   ar
    56    36    38   ar
    57     6     8    1
    58    35    37   ar
    59    51    48    1
    60    48    49    1
    61    48    47    1
    62    49    50    2
    63    38    39   ar
    64    37    39   ar
    65    73    71    1
    66    69    68    1
    67    69    70    1
    68    71    70    2
    69    71    72    1
    70    68    67    1
    71    67    64    1
    72    61    60    1
    73    62    60    1
    74    60    59    2
    75    64    63    1
    76    64    65    1
    77    54    53    1
    78    54    55    2
    79   121   119   ar
    80   121   122   ar
    81    53    52    1
    82    53    56    1
    83   119   117   ar
    84    46    44    1
    85    66    65    2
    86    59    58    1
    87    58    57    1
    88    79    78    1
    89   115   114    2
    90   122   120   ar
    91    40    41    1
    92   117   116    1
    93   117   118   ar
    94   116   113    1
    95    56    57    1
    96    44    41    1
    97    44    45    1
    98    74    75    1
    99    41    42    1
   100    75    78    1
   101    75    76    1
   102   120   118   ar
   103    87    86    1
   104    87    81    1
   105    78    80    1
   106   114   113    1
   107   113   112    1
   108    86    85    1
   109    76    81   am
   110    76    77    2
   111    81    82    1
   112    42    43    2
   113    85    82    1
   114    82    83    1
   115    83    84    2
