@<TRIPOS>MOLECULE
tmp/4pakA00.pdb
 93 84 0 0 0
SMALL
GASTEIGER

@<TRIPOS>ATOM
      1  N         -2.2020   49.0690   37.5520 N.3    10  SER10      -0.1202
      2  CA        -1.3470   49.5810   36.4880 C.3    10  SER10       0.2020
      3  C         -0.7110   48.4790   35.6560 C.2    10  SER10       0.2619
      4  O         -0.0750   48.7880   34.6380 O.2    10  SER10      -0.2717
      5  CB        -0.2450   50.4830   37.0450 C.3    10  SER10       0.2103
      6  OG        -0.7250   51.7640   37.3910 O.3    10  SER10      -0.2182
      7  N         -0.9350   47.2280   36.0320 N.am   11  THR11      -0.1952
      8  CA        -0.3180   46.0700   35.3930 C.3    11  THR11       0.1897
      9  C         -1.3900   45.2450   34.6740 C.2    11  THR11       0.2313
     10  O         -2.5760   45.5740   34.6600 O.2    11  THR11      -0.2863
     11  CB         0.3970   45.2180   36.4350 C.3    11  THR11       0.1794
     12  OG1       -0.5190   44.9460   37.4920 O.3    11  THR11      -0.2208
     13  CG2        1.5830   45.9410   37.0260 C.3    11  THR11       0.0378
     14  N         -0.7990   41.0610   40.0490 N.3    17  GLN17      -0.1245
     15  CA        -1.7700   42.0450   40.5100 C.3    17  GLN17       0.1566
     16  C         -3.1400   41.8420   39.8800 C.2    17  GLN17       0.2260
     17  O         -4.1640   42.1220   40.5090 O.2    17  GLN17      -0.2867
     18  CB        -1.2440   43.4580   40.2850 C.3    17  GLN17       0.0367
     19  CG         0.0950   43.6960   40.9560 C.3    17  GLN17       0.0905
     20  CD         0.5190   45.1400   40.9530 C.2    17  GLN17       0.2608
     21  OE1       -0.0210   45.9470   40.1980 O.2    17  GLN17      -0.2717
     22  NE2        1.5120   45.4750   41.7400 N.am   17  GLN17      -0.0878
     23  N         -0.7600   54.4780   39.2610 N.3    49  GLU49      -0.1245
     24  CA        -0.9480   54.2920   40.6940 C.3    49  GLU49       0.1567
     25  C         -1.1730   55.5780   41.4880 C.2    49  GLU49       0.2260
     26  O         -2.1090   55.6370   42.2930 O.2    49  GLU49      -0.2867
     27  CB         0.1980   53.4980   41.3120 C.3    49  GLU49       0.0388
     28  CG         0.2480   52.0520   40.8410 C.3    49  GLU49       0.1160
     29  CD         1.1820   51.1860   41.6640 C.2    49  GLU49       0.3649
     30  OE1        2.1930   51.7090   42.2110 O.co2  49  GLU49      -0.2457
     31  OE2        0.9210   49.9670   41.7440 O.co2  49  GLU49      -0.2457
     32  N          1.0630   49.2040   44.4880 N.3    67  SER67      -0.1217
     33  CA         2.2920   49.0770   45.2630 C.3    67  SER67       0.1889
     34  C          2.4080   50.2090   46.2660 C.2    67  SER67       0.2288
     35  O          1.7240   51.2270   46.1870 O.2    67  SER67      -0.2866
     36  CB         3.5230   49.1280   44.3650 C.3    67  SER67       0.2089
     37  OG         3.8990   50.4470   44.0160 O.3    67  SER67      -0.2183
     38  N          3.9000   43.1790   45.7370 N.3   122  ASN122     -0.1240
     39  CA         4.4240   43.4380   44.4070 C.3   122  ASN122      0.1653
     40  C          5.6760   42.5650   44.1810 C.2   122  ASN122      0.2266
     41  O          5.7330   41.7990   43.2160 O.2   122  ASN122     -0.2867
     42  CB         4.6650   44.9280   44.2490 C.3   122  ASN122      0.1155
     43  CG         4.9570   45.3420   42.8320 C.2   122  ASN122      0.2627
     44  OD1        4.5440   44.7070   41.8580 O.2   122  ASN122     -0.2716
     45  ND2        5.6680   46.4410   42.7120 N.am  122  ASN122     -0.0877
     46  N         12.3460   44.0820   44.0740 N.3   125  ARG125     -0.1245
     47  CA        12.6350   44.8090   42.8460 C.3   125  ARG125      0.1563
     48  C         14.0700   44.5830   42.3960 C.2   125  ARG125      0.2260
     49  O         14.9850   44.4820   43.2240 O.2   125  ARG125     -0.2867
     50  CB        12.3890   46.3050   43.0640 C.3   125  ARG125      0.0307
     51  CG        10.9900   46.6400   43.6080 C.3   125  ARG125      0.0489
     52  CD        10.7510   48.1330   43.7710 C.3   125  ARG125      0.2205
     53  NE        10.5040   48.8270   42.5120 N.pl3 125  ARG125     -0.0865
     54  CZ         9.3190   48.9850   41.9450 C.cat 125  ARG125      0.5346
     55  NH1        8.2290   48.4620   42.4760 N.pl3 125  ARG125      0.1354
     56  NH2        9.2340   49.6720   40.8200 N.pl3 125  ARG125      0.1354
     57  N         14.4210   55.1720   35.4620 N.3   144  ARG144     -0.1245
     58  CA        13.0980   55.5210   35.9360 C.3   144  ARG144      0.1563
     59  C         12.9190   54.9640   37.3360 C.2   144  ARG144      0.2260
     60  O         13.3380   53.8420   37.6170 O.2   144  ARG144     -0.2867
     61  CB        12.0260   54.9570   35.0030 C.3   144  ARG144      0.0307
     62  CG        10.5910   55.1820   35.4820 C.3   144  ARG144      0.0489
     63  CD        10.1140   54.0400   36.3600 C.3   144  ARG144      0.2205
     64  NE         8.7490   54.2480   36.8080 N.pl3 144  ARG144     -0.0865
     65  CZ         8.0290   53.3260   37.4260 C.cat 144  ARG144      0.5346
     66  NH1        8.5580   52.1430   37.6880 N.pl3 144  ARG144      0.1354
     67  NH2        6.7820   53.5770   37.7730 N.pl3 144  ARG144      0.1354
     68  N          3.7900   54.5310   35.9820 N.3   165  PHE165     -0.1241
     69  CA         4.1230   53.3000   35.2890 C.3   165  PHE165      0.1605
     70  C          3.6190   53.2360   33.8660 C.2   165  PHE165      0.2264
     71  O          4.2460   52.5870   33.0220 O.2   165  PHE165     -0.2867
     72  CB         3.6280   52.0800   36.0550 C.3   165  PHE165      0.0534
     73  CG         4.1570   50.7960   35.4810 C.ar  165  PHE165     -0.0203
     74  CD1        5.4980   50.5210   35.5270 C.ar  165  PHE165     -0.0042
     75  CD2        3.3140   49.8980   34.8630 C.ar  165  PHE165     -0.0042
     76  CE1        6.0060   49.3590   34.9720 C.ar  165  PHE165     -0.0003
     77  CE2        3.8250   48.7270   34.3090 C.ar  165  PHE165     -0.0003
     78  CZ         5.1600   48.4640   34.3650 C.ar  165  PHE165     -0.0000
     79  N         12.0680   46.7370   39.0390 N.3   182  ASN182     -0.1240
     80  CA        10.7590   46.1630   39.3100 C.3   182  ASN182      0.1653
     81  C         10.9260   44.6930   39.6340 C.2   182  ASN182      0.2266
     82  O         11.9530   44.0910   39.2990 O.2   182  ASN182     -0.2867
     83  CB         9.8240   46.3260   38.0910 C.3   182  ASN182      0.1155
     84  CG         8.6960   47.3150   38.3290 C.2   182  ASN182      0.2627
     85  OD1        7.9180   47.1580   39.2710 O.2   182  ASN182     -0.2716
     86  ND2        8.5920   48.3310   37.4880 N.am  182  ASN182     -0.0877
     87  N          6.5810   41.8850   37.3740 N.3   186  VAL186     -0.1245
     88  CA         6.3150   43.0220   36.5000 C.3   186  VAL186      0.1561
     89  C          7.1450   42.9350   35.2230 C.2   186  VAL186      0.2260
     90  O          6.6410   43.1240   34.1160 O.2   186  VAL186     -0.2867
     91  CB         6.5830   44.3520   37.2180 C.3   186  VAL186      0.0252
     92  CG1        6.4810   45.5110   36.2580 C.3   186  VAL186      0.0019
     93  CG2        5.6360   44.5280   38.4120 C.3   186  VAL186      0.0019
@<TRIPOS>BOND
     1    71    70    2
     2    70    69    1
     3    90    89    2
     4    77    78   ar
     5    77    75   ar
     6    78    76   ar
     7     4     3    2
     8    10     9    2
     9     9     8    1
    10    75    73   ar
    11    76    74   ar
    12    61    62    1
    13    61    58    1
    14    89    88    1
    15    69    68    1
    16    69    72    1
    17     8     7    1
    18     8    11    1
    19    57    58    1
    20    73    74   ar
    21    73    72    1
    22    62    63    1
    23     3     7   am
    24     3     2    1
    25    58    59    1
    26    92    91    1
    27    63    64    1
    28    11    13    1
    29    11    12    1
    30     2     5    1
    31     2     1    1
    32    88    91    1
    33    88    87    1
    34    64    65    2
    35     5     6    1
    36    91    93    1
    37    59    60    2
    38    65    66    1
    39    65    67    1
    40    86    84   am
    41    83    84    1
    42    83    80    1
    43    84    85    2
    44    79    80    1
    45    23    24    1
    46    82    81    2
    47    80    81    1
    48    16    17    2
    49    16    15    1
    50    14    15    1
    51    21    20    2
    52    18    15    1
    53    18    19    1
    54    24    27    1
    55    24    25    1
    56    56    54    1
    57    28    27    1
    58    28    29    1
    59    20    19    1
    60    20    22   am
    61    25    26    2
    62    29    31   ar
    63    29    30   ar
    64    44    43    2
    65    54    55    1
    66    54    53    2
    67    48    47    1
    68    48    49    2
    69    53    52    1
    70    45    43   am
    71    43    42    1
    72    47    50    1
    73    47    46    1
    74    50    51    1
    75    41    40    2
    76    51    52    1
    77    37    36    1
    78    40    39    1
    79    42    39    1
    80    36    33    1
    81    39    38    1
    82    32    33    1
    83    33    34    1
    84    35    34    2
