@<TRIPOS>MOLECULE
tmp/4paqA00.pdb
 199 190 0 0 0
SMALL
GASTEIGER

@<TRIPOS>ATOM
      1  N        -28.9580   14.5370   -8.0760 N.3    10  GLY10      -0.1210
      2  CA       -29.7330   15.5930   -7.4480 C.3    10  GLY10       0.1956
      3  C        -30.2880   16.5750   -8.4710 C.2    10  GLY10       0.2612
      4  O        -29.6180   16.8680   -9.4730 O.2    10  GLY10      -0.2717
      5  N        -31.5180   17.0380   -8.2330 N.am   11  GLU11      -0.1965
      6  CA       -32.1590   18.0580   -9.0620 C.3    11  GLU11       0.1733
      7  C        -32.4440   17.6070  -10.4980 C.2    11  GLU11       0.2617
      8  O        -32.5890   18.4390  -11.3950 O.2    11  GLU11      -0.2715
      9  CB       -31.3490   19.3630   -9.0480 C.3    11  GLU11       0.0429
     10  CG       -31.3700   20.0730   -7.6760 C.3    11  GLU11       0.1163
     11  CD       -30.4900   21.3160   -7.6300 C.2    11  GLU11       0.3649
     12  OE1      -29.2550   21.1850   -7.7610 O.co2  11  GLU11      -0.2457
     13  OE2      -31.0340   22.4280   -7.4580 O.co2  11  GLU11      -0.2457
     14  N        -32.5490   16.2970  -10.7110 N.am   12  SER12      -0.1936
     15  CA       -32.8050   15.7750  -12.0530 C.3    12  SER12       0.2055
     16  C        -34.2980   15.8110  -12.3820 C.2    12  SER12       0.2644
     17  O        -34.6850   15.6980  -13.5520 O.2    12  SER12      -0.2714
     18  CB       -32.2330   14.3630  -12.2120 C.3    12  SER12       0.2130
     19  OG       -32.6960   13.5090  -11.1780 O.3    12  SER12      -0.2179
     20  N        -35.1270   15.9910  -11.3540 N.am   13  GLY13      -0.1939
     21  CA       -36.5630   16.1350  -11.5370 C.3    13  GLY13       0.2014
     22  C        -37.4170   15.0000  -10.9670 C.2    13  GLY13       0.2639
     23  O        -38.6090   14.9400  -11.2490 O.2    13  GLY13      -0.2714
     24  N        -36.8280   14.1110  -10.1660 N.am   14  LYS14      -0.1963
     25  CA       -37.5520   12.9400   -9.6520 C.3    14  LYS14       0.1728
     26  C        -38.8030   13.3260   -8.8400 C.2    14  LYS14       0.2617
     27  O        -39.9150   12.8100   -9.0740 O.2    14  LYS14      -0.2715
     28  CB       -36.6220   12.0720   -8.7790 C.3    14  LYS14       0.0311
     29  CG       -35.3400   11.5540   -9.4890 C.3    14  LYS14       0.0038
     30  CD       -34.4490   10.7510   -8.5320 C.3    14  LYS14       0.0206
     31  CE       -33.9000   11.6220   -7.3930 C.3    14  LYS14       0.1093
     32  NZ       -32.9560   12.6660   -7.8690 N.3    14  LYS14      -0.1314
     33  N        -38.6230   14.2320   -7.8820 N.am   15  SER15      -0.1936
     34  CA       -39.7230   14.6000   -7.0050 C.3    15  SER15       0.2055
     35  C        -40.8120   15.3840   -7.7340 C.2    15  SER15       0.2643
     36  O        -41.9600   15.4020   -7.3010 O.2    15  SER15      -0.2714
     37  CB       -39.2010   15.3470   -5.7790 C.3    15  SER15       0.2130
     38  OG       -38.3090   14.5190   -5.0270 O.3    15  SER15      -0.2179
     39  N        -40.4570   16.0180   -8.8470 N.am   16  THR16      -0.1950
     40  CA       -41.4430   16.7370   -9.6500 C.3    16  THR16       0.1897
     41  C        -42.3520   15.7310  -10.3850 C.2    16  THR16       0.2313
     42  O        -43.5620   15.9290  -10.4940 O.2    16  THR16      -0.2863
     43  CB       -40.7390   17.7120  -10.6040 C.3    16  THR16       0.1794
     44  OG1      -39.8950   18.5860   -9.8330 O.3    16  THR16      -0.2208
     45  CG2      -41.7500   18.5460  -11.4020 C.3    16  THR16       0.0378
     46  N        -44.9940   14.7060   -7.9150 N.3    19  LYS19      -0.1245
     47  CA       -46.0680   15.6900   -7.8380 C.3    19  LYS19       0.1561
     48  C        -47.0320   15.5440   -9.0230 C.2    19  LYS19       0.2260
     49  O        -48.2450   15.6580   -8.8660 O.2    19  LYS19      -0.2867
     50  CB       -45.4900   17.1060   -7.8040 C.3    19  LYS19       0.0271
     51  CG       -44.6280   17.3970   -6.5650 C.3    19  LYS19       0.0035
     52  CD       -44.1770   18.8530   -6.5500 C.3    19  LYS19       0.0206
     53  CE       -43.5180   19.2430   -5.2190 C.3    19  LYS19       0.1093
     54  NZ       -42.1920   18.5820   -5.0700 N.3    19  LYS19      -0.1314
     55  N        -33.2150   26.2390  -10.5300 N.3   118  ASP118     -0.1225
     56  CA       -33.7790   26.3740  -11.8710 C.3   118  ASP118      0.1805
     57  C        -35.0440   27.2370  -11.9150 C.2   118  ASP118      0.2598
     58  O        -35.2810   27.9460  -12.8980 O.2   118  ASP118     -0.2718
     59  CB       -34.0520   24.9940  -12.4730 C.3   118  ASP118      0.1424
     60  CG       -32.8120   24.3770  -13.0940 C.2   118  ASP118      0.3668
     61  OD1      -31.8840   25.1320  -13.4740 O.co2 118  ASP118     -0.2456
     62  OD2      -32.7770   23.1350  -13.2090 O.co2 118  ASP118     -0.2456
     63  N        -35.8430   27.1980  -10.8470 N.am  119  SER119     -0.1952
     64  CA       -37.0780   27.9770  -10.7970 C.3   119  SER119      0.1924
     65  C        -36.8690   29.4330  -10.3660 C.2   119  SER119      0.2314
     66  O        -37.8440   30.1390  -10.1060 O.2   119  SER119     -0.2863
     67  CB       -38.0880   27.3330   -9.8410 C.3   119  SER119      0.2116
     68  OG       -38.3560   25.9950  -10.1870 O.3   119  SER119     -0.2180
     69  N        -45.3600   22.5590   -8.4540 N.3   143  LEU143     -0.1231
     70  CA       -44.4370   21.8020   -9.3040 C.3   143  LEU143      0.1693
     71  C        -43.0350   22.4190   -9.3850 C.2   143  LEU143      0.2592
     72  O        -42.0260   21.6990   -9.4710 O.2   143  LEU143     -0.2718
     73  CB       -45.0360   21.6770  -10.7130 C.3   143  LEU143      0.0284
     74  CG       -46.1830   20.6770  -10.8280 C.3   143  LEU143      0.0019
     75  CD1      -46.9800   20.9140  -12.1240 C.3   143  LEU143      0.0001
     76  CD2      -45.6130   19.2420  -10.7900 C.3   143  LEU143      0.0001
     77  N        -42.9770   23.7510   -9.3480 N.am  144  ARG144     -0.1966
     78  CA       -41.7150   24.4790   -9.4780 C.3   144  ARG144      0.1729
     79  C        -40.9080   24.5580   -8.1730 C.2   144  ARG144      0.2617
     80  O        -39.7450   24.9640   -8.1970 O.2   144  ARG144     -0.2715
     81  CB       -41.9620   25.9030   -9.9870 C.3   144  ARG144      0.0348
     82  CG       -42.4990   26.0070  -11.4270 C.3   144  ARG144      0.0492
     83  CD       -41.4310   25.7890  -12.4830 C.3   144  ARG144      0.2205
     84  NE       -41.9640   26.1260  -13.8040 N.pl3 144  ARG144     -0.0865
     85  CZ       -41.2410   26.6080  -14.8130 C.cat 144  ARG144      0.5346
     86  NH1      -39.9350   26.7910  -14.6760 N.pl3 144  ARG144      0.1354
     87  NH2      -41.8300   26.9010  -15.9670 N.pl3 144  ARG144      0.1354
     88  N        -41.4930   24.1710   -7.0420 N.am  145  THR145     -0.1937
     89  CA       -40.7530   24.2840   -5.7740 C.3   145  THR145      0.2028
     90  C        -39.5580   23.3350   -5.7220 C.2   145  THR145      0.2642
     91  O        -39.6000   22.2330   -6.2850 O.2   145  THR145     -0.2714
     92  CB       -41.6380   24.0190   -4.5210 C.3   145  THR145      0.1808
     93  OG1      -42.2240   22.7110   -4.6010 O.3   145  THR145     -0.2208
     94  CG2      -42.7300   25.0700   -4.3930 C.3   145  THR145      0.0379
     95  N        -38.5100   23.7510   -5.0110 N.am  146  ARG146     -0.1963
     96  CA       -37.3040   22.9480   -4.8900 C.3   146  ARG146      0.1729
     97  C        -37.0070   22.6710   -3.4190 C.2   146  ARG146      0.2616
     98  O        -36.7450   23.6060   -2.6510 O.2   146  ARG146     -0.2715
     99  CB       -36.1220   23.6820   -5.5320 C.3   146  ARG146      0.0348
    100  CG       -34.8350   22.8660   -5.6300 C.3   146  ARG146      0.0492
    101  CD       -33.8790   23.2100   -4.5050 C.3   146  ARG146      0.2205
    102  NE       -32.6190   22.4760   -4.5970 N.pl3 146  ARG146     -0.0865
    103  CZ       -31.7810   22.3070   -3.5760 C.cat 146  ARG146      0.5346
    104  NH1      -32.0760   22.8100   -2.3800 N.pl3 146  ARG146      0.1354
    105  NH2      -30.6530   21.6280   -3.7450 N.pl3 146  ARG146      0.1354
    106  N        -37.0830   21.3970   -3.0290 N.am  147  VAL147     -0.1963
    107  CA       -36.6270   20.9420   -1.7100 C.3   147  VAL147      0.1727
    108  C        -35.8440   19.6450   -1.8860 C.2   147  VAL147      0.2616
    109  O        -36.3870   18.6590   -2.4180 O.2   147  VAL147     -0.2715
    110  CB       -37.7940   20.6710   -0.7410 C.3   147  VAL147      0.0290
    111  CG1      -37.2590   20.2700    0.6340 C.3   147  VAL147      0.0023
    112  CG2      -38.6910   21.8880   -0.6100 C.3   147  VAL147      0.0023
    113  N        -34.5780   19.6480   -1.4550 N.am  148  LYS148     -0.1963
    114  CA       -33.7440   18.4440   -1.4940 C.3   148  LYS148      0.1728
    115  C        -34.4520   17.2870   -0.7960 C.2   148  LYS148      0.2616
    116  O        -34.9810   17.4450    0.3060 O.2   148  LYS148     -0.2715
    117  CB       -32.3780   18.6870   -0.8460 C.3   148  LYS148      0.0311
    118  CG       -31.4500   17.4750   -0.9390 C.3   148  LYS148      0.0038
    119  CD       -30.2450   17.5470   -0.0020 C.3   148  LYS148      0.0206
    120  CE       -29.4710   16.2310   -0.0490 C.3   148  LYS148      0.1093
    121  NZ       -28.0380   16.3730    0.3400 N.3   148  LYS148     -0.1314
    122  N        -34.5010   16.1340   -1.4540 N.am  149  THR149     -0.1951
    123  CA       -35.1700   14.9770   -0.8740 C.3   149  THR149      0.1897
    124  C        -34.1960   14.2500    0.0440 C.2   149  THR149      0.2313
    125  O        -33.0890   13.9010   -0.3670 O.2   149  THR149     -0.2863
    126  CB       -35.6750   13.9860   -1.9570 C.3   149  THR149      0.1794
    127  OG1      -36.6190   14.6380   -2.8100 O.3   149  THR149     -0.2208
    128  CG2      -36.3680   12.8080   -1.3030 C.3   149  THR149      0.0378
    129  N        -36.2850    8.9430   -3.9860 N.3   169  VAL169     -0.1245
    130  CA       -35.1730    8.9770   -3.0460 C.3   169  VAL169      0.1561
    131  C        -34.3040   10.1800   -3.4040 C.2   169  VAL169      0.2260
    132  O        -34.4140   10.7020   -4.5150 O.2   169  VAL169     -0.2867
    133  CB       -34.3780    7.6430   -3.1150 C.3   169  VAL169      0.0252
    134  CG1      -33.6890    7.5010   -4.4700 C.3   169  VAL169      0.0019
    135  CG2      -33.3760    7.5420   -1.9920 C.3   169  VAL169      0.0019
    136  N        -31.0930   12.2470   -4.6650 N.3   171  GLY171     -0.1210
    137  CA       -30.0530   11.9480   -5.6330 C.3   171  GLY171      0.1956
    138  C        -28.6760   12.5520   -5.3870 C.2   171  GLY171      0.2611
    139  O        -27.7100   12.1960   -6.0710 O.2   171  GLY171     -0.2717
    140  N        -28.5620   13.4710   -4.4320 N.am  172  GLN172     -0.1979
    141  CA       -27.2430   14.0340   -4.1200 C.3   172  GLN172      0.1601
    142  C        -26.3470   12.9720   -3.4740 C.2   172  GLN172      0.2287
    143  O        -26.8560   11.9910   -2.9200 O.2   172  GLN172     -0.2864
    144  CB       -27.3650   15.2650   -3.2150 C.3   172  GLN172      0.0394
    145  CG       -27.6460   16.5640   -3.9910 C.3   172  GLN172      0.0908
    146  CD       -27.6770   17.7910   -3.0960 C.2   172  GLN172      0.2608
    147  OE1      -27.3340   17.7230   -1.9110 O.2   172  GLN172     -0.2717
    148  NE2      -28.0940   18.9200   -3.6570 N.am  172  GLN172     -0.0878
    149  N        -34.7840   14.7820  -18.9770 N.3   237  ASN237     -0.1225
    150  CA       -35.6860   15.7800  -18.4370 C.3   237  ASN237      0.1785
    151  C        -35.1270   17.1900  -18.6100 C.2   237  ASN237      0.2597
    152  O        -33.9830   17.3700  -19.0620 O.2   237  ASN237     -0.2718
    153  CB       -35.9280   15.4690  -16.9530 C.3   237  ASN237      0.1169
    154  CG       -37.0470   16.2910  -16.3550 C.2   237  ASN237      0.2627
    155  OD1      -38.0950   16.4840  -16.9840 O.2   237  ASN237     -0.2716
    156  ND2      -36.8310   16.8010  -15.1320 N.am  237  ASN237     -0.0877
    157  N        -35.9390   18.1810  -18.2440 N.am  238  LYS238     -0.1980
    158  CA       -35.5960   19.5950  -18.4110 C.3   238  LYS238      0.1596
    159  C        -35.3220   19.9350  -19.8800 C.2   238  LYS238      0.2287
    160  O        -34.4390   20.7370  -20.1980 O.2   238  LYS238     -0.2864
    161  CB       -34.4370   19.9960  -17.4890 C.3   238  LYS238      0.0298
    162  CG       -34.7940   19.8630  -16.0020 C.3   238  LYS238      0.0038
    163  CD       -33.7060   20.3910  -15.0630 C.3   238  LYS238      0.0206
    164  CE       -34.1850   20.2930  -13.6160 C.3   238  LYS238      0.1093
    165  NZ       -33.2350   20.8910  -12.6440 N.3   238  LYS238     -0.1314
    166  N        -37.0660   21.6870  -21.7040 N.3   240  ASP240     -0.1225
    167  CA       -37.4140   23.0890  -21.9100 C.3   240  ASP240      0.1805
    168  C        -36.2170   23.9890  -21.6170 C.2   240  ASP240      0.2597
    169  O        -35.8980   24.8900  -22.3930 O.2   240  ASP240     -0.2718
    170  CB       -38.6540   23.4870  -21.0820 C.3   240  ASP240      0.1424
    171  CG       -38.4440   23.3550  -19.5630 C.2   240  ASP240      0.3668
    172  OD1      -37.7830   22.3910  -19.0920 O.co2 240  ASP240     -0.2456
    173  OD2      -38.9840   24.2130  -18.8260 O.co2 240  ASP240     -0.2456
    174  N        -35.5370   23.7180  -20.5110 N.am  241  LEU241     -0.1979
    175  CA       -34.3450   24.4740  -20.1440 C.3   241  LEU241      0.1596
    176  C        -33.2020   24.1840  -21.1080 C.2   241  LEU241      0.2287
    177  O        -32.4330   25.0860  -21.4720 O.2   241  LEU241     -0.2864
    178  CB       -33.9240   24.1210  -18.7130 C.3   241  LEU241      0.0297
    179  CG       -34.9760   24.4150  -17.6470 C.3   241  LEU241      0.0022
    180  CD1      -34.4140   24.1560  -16.2620 C.3   241  LEU241      0.0001
    181  CD2      -35.4660   25.8480  -17.7600 C.3   241  LEU241      0.0001
    182  N        -40.4230   17.3470  -19.9350 N.3   293  CYS293     -0.1221
    183  CA       -40.3290   18.5430  -19.1030 C.3   293  CYS293      0.1808
    184  C        -41.1840   18.2030  -17.9000 C.2   293  CYS293      0.2601
    185  O        -42.4160   18.1940  -17.9900 O.2   293  CYS293     -0.2717
    186  CB       -40.9070   19.7680  -19.8210 C.3   293  CYS293      0.0970
    187  SG       -41.0730   21.2330  -18.7650 S.3   293  CYS293     -0.0800
    188  N        -40.5460   17.8840  -16.7810 N.am  294  ALA294     -0.1965
    189  CA       -41.2870   17.3580  -15.6390 C.3   294  ALA294      0.1728
    190  C        -42.3070   18.3410  -15.0480 C.2   294  ALA294      0.2616
    191  O        -43.2870   17.9240  -14.4300 O.2   294  ALA294     -0.2715
    192  CB       -40.3220   16.8520  -14.5570 C.3   294  ALA294      0.0334
    193  N        -42.0900   19.6390  -15.2270 N.am  295  THR295     -0.1951
    194  CA       -43.0220   20.6120  -14.6770 C.3   295  THR295      0.1897
    195  C        -44.2440   20.8010  -15.5950 C.2   295  THR295      0.2313
    196  O        -45.2480   21.3970  -15.1900 O.2   295  THR295     -0.2863
    197  CB       -42.3220   21.9460  -14.4310 C.3   295  THR295      0.1794
    198  OG1      -41.5900   22.2970  -15.6050 O.3   295  THR295     -0.2208
    199  CG2      -41.3470   21.8280  -13.2320 C.3   295  THR295      0.0378
@<TRIPOS>BOND
     1   169   168    2
     2   167   166    1
     3   167   168    1
     4   167   170    1
     5   168   174   am
     6   177   176    2
     7   176   175    1
     8   170   171    1
     9   174   175    1
    10   160   159    2
    11   175   178    1
    12   182   183    1
    13   159   158    1
    14   186   183    1
    15   186   187    1
    16   171   172   ar
    17   171   173   ar
    18   183   184    1
    19   152   151    2
    20   149   150    1
    21   178   179    1
    22   151   150    1
    23   151   157   am
    24   150   153    1
    25   158   157    1
    26   158   161    1
    27   185   184    2
    28   184   188   am
    29   181   179    1
    30   179   180    1
    31   161   162    1
    32   155   154    2
    33   153   154    1
    34   188   189    1
    35   154   156   am
    36   162   163    1
    37    87    85    1
    38   189   190    1
    39   189   192    1
    40   198   197    1
    41   195   196    2
    42   195   194    1
    43   193   190   am
    44   193   194    1
    45   163   164    1
    46   190   191    2
    47    85    86    1
    48    85    84    2
    49   194   197    1
    50   197   199    1
    51    84    83    1
    52   164   165    1
    53    17    16    2
    54    61    60   ar
    55    62    60   ar
    56    60    59    1
    57    58    57    2
    58    83    82    1
    59    59    56    1
    60    16    15    1
    61    16    20   am
    62    18    15    1
    63    18    19    1
    64    75    74    1
    65    15    14    1
    66    57    56    1
    67    57    63   am
    68    56    55    1
    69    21    20    1
    70    21    22    1
    71    82    81    1
    72    45    43    1
    73     8     7    2
    74    23    22    2
    75    22    24   am
    76    63    64    1
    77    74    76    1
    78    74    73    1
    79    64    65    1
    80    64    67    1
    81    73    70    1
    82    14     7   am
    83    43    44    1
    84    43    40    1
    85     7     6    1
    86    42    41    2
    87    41    40    1
    88    65    66    2
    89    68    67    1
    90    24    25    1
    91    81    78    1
    92    25    26    1
    93    25    28    1
    94    40    39    1
    95    29    28    1
    96    29    30    1
    97    78    77    1
    98    78    79    1
    99     4     3    2
   100    72    71    2
   101    71    77   am
   102    71    70    1
   103    70    69    1
   104    27    26    2
   105     6     9    1
   106     6     5    1
   107     9    10    1
   108    48    49    2
   109    48    47    1
   110    39    35   am
   111    26    33   am
   112    30    31    1
   113     3     5   am
   114     3     2    1
   115    80    79    2
   116    79    88   am
   117     1     2    1
   118    46    47    1
   119    33    34    1
   120    32    31    1
   121    47    50    1
   122    50    51    1
   123    12    11   ar
   124    35    36    2
   125    35    34    1
   126    10    11    1
   127    11    13   ar
   128    88    89    1
   129    34    37    1
   130    51    52    1
   131    52    53    1
   132    91    90    2
   133   139   138    2
   134    37    38    1
   135    89    90    1
   136    89    92    1
   137    90    95   am
   138   137   138    1
   139   137   136    1
   140   100    99    1
   141   100   101    1
   142    99    96    1
   143   138   140   am
   144    53    54    1
   145    95    96    1
   146    96    97    1
   147    93    92    1
   148   102   101    1
   149   102   103    2
   150    92    94    1
   151   132   131    2
   152   134   133    1
   153   140   141    1
   154   141   142    1
   155   141   144    1
   156   145   144    1
   157   145   146    1
   158   129   130    1
   159   105   103    1
   160   148   146   am
   161   103   104    1
   162   142   143    2
   163    97   106   am
   164    97    98    2
   165   131   130    1
   166   133   130    1
   167   133   135    1
   168   146   147    2
   169   106   107    1
   170   127   126    1
   171   109   108    2
   172   126   128    1
   173   126   123    1
   174   108   107    1
   175   108   113   am
   176   107   110    1
   177   114   113    1
   178   114   117    1
   179   114   115    1
   180   122   123    1
   181   122   115   am
   182   118   117    1
   183   118   119    1
   184   123   124    1
   185   115   116    2
   186   110   112    1
   187   110   111    1
   188   125   124    2
   189   120   119    1
   190   120   121    1
