@<TRIPOS>MOLECULE
tmp/4pb1A00.pdb
 143 134 0 0 0
SMALL
GASTEIGER

@<TRIPOS>ATOM
      1  N         44.0690  -21.8060  -10.6780 N.3   152  GLY152     -0.1210
      2  CA        45.1930  -20.9380  -10.9860 C.3   152  GLY152      0.1956
      3  C         45.1840  -20.3230  -12.3740 C.2   152  GLY152      0.2612
      4  O         44.3440  -20.6470  -13.2110 O.2   152  GLY152     -0.2717
      5  N         46.1450  -19.4380  -12.6170 N.am  153  GLN153     -0.1965
      6  CA        46.2120  -18.6700  -13.8580 C.3   153  GLN153      0.1733
      7  C         46.4970  -19.5260  -15.0890 C.2   153  GLN153      0.2617
      8  O         46.2400  -19.1050  -16.2150 O.2   153  GLN153     -0.2715
      9  CB        47.2780  -17.5770  -13.7360 C.3   153  GLN153      0.0408
     10  CG        48.6690  -18.0910  -13.4250 C.3   153  GLN153      0.0908
     11  CD        49.6450  -16.9680  -13.1500 C.2   153  GLN153      0.2608
     12  OE1       49.4090  -15.8210  -13.5300 O.2   153  GLN153     -0.2717
     13  NE2       50.7470  -17.2870  -12.4800 N.am  153  GLN153     -0.0878
     14  N         47.0310  -20.7220  -14.8750 N.am  154  THR154     -0.1937
     15  CA        47.3510  -21.6160  -15.9830 C.3   154  THR154      0.2028
     16  C         46.2760  -22.6820  -16.1650 C.2   154  THR154      0.2642
     17  O         46.1080  -23.2260  -17.2570 O.2   154  THR154     -0.2714
     18  CB        48.7140  -22.3020  -15.7780 C.3   154  THR154      0.1808
     19  OG1       48.8060  -22.7960  -14.4350 O.3   154  THR154     -0.2208
     20  CG2       49.8470  -21.3160  -16.0240 C.3   154  THR154      0.0379
     21  N         45.5460  -22.9720  -15.0930 N.am  155  GLU155     -0.1976
     22  CA        44.5080  -23.9960  -15.1270 C.3   155  GLU155      0.1602
     23  C         43.1750  -23.4280  -15.6090 C.2   155  GLU155      0.2287
     24  O         42.3790  -24.1340  -16.2260 O.2   155  GLU155     -0.2864
     25  CB        44.3390  -24.6370  -13.7460 C.3   155  GLU155      0.0415
     26  CG        45.5340  -25.4650  -13.2800 C.3   155  GLU155      0.1163
     27  CD        46.6790  -24.6220  -12.7360 C.2   155  GLU155      0.3649
     28  OE1       46.5070  -23.3940  -12.5860 O.co2 155  GLU155     -0.2457
     29  OE2       47.7550  -25.1920  -12.4560 O.co2 155  GLU155     -0.2457
     30  N         44.4500  -19.4620   -6.3840 N.3   184  ALA184     -0.1245
     31  CA        43.8850  -20.7710   -6.6840 C.3   184  ALA184      0.1562
     32  C         43.3730  -21.4160   -5.4010 C.2   184  ALA184      0.2260
     33  O         43.7920  -21.0430   -4.3040 O.2   184  ALA184     -0.2867
     34  CB        44.9140  -21.6560   -7.3590 C.3   184  ALA184      0.0290
     35  N         46.2510  -23.0180   -2.8180 N.3   187  VAL187     -0.1245
     36  CA        46.9950  -22.0690   -1.9920 C.3   187  VAL187      0.1561
     37  C         46.0730  -21.2890   -1.0600 C.2   187  VAL187      0.2260
     38  O         46.5020  -20.8260   -0.0030 O.2   187  VAL187     -0.2867
     39  CB        47.8000  -21.0690   -2.8500 C.3   187  VAL187      0.0252
     40  CG1       48.9910  -21.7570   -3.4980 C.3   187  VAL187      0.0019
     41  CG2       46.9080  -20.4170   -3.8970 C.3   187  VAL187      0.0019
     42  N         46.9190  -20.6260    2.8160 N.3   191  TYR191     -0.1241
     43  CA        46.9170  -19.3510    3.5260 C.3   191  TYR191      0.1605
     44  C         45.9540  -19.3890    4.7060 C.2   191  TYR191      0.2264
     45  O         46.2220  -18.8170    5.7620 O.2   191  TYR191     -0.2867
     46  CB        46.5410  -18.2120    2.5740 C.3   191  TYR191      0.0534
     47  CG        47.4530  -18.0980    1.3750 C.ar  191  TYR191     -0.0201
     48  CD1       48.8050  -18.3990    1.4780 C.ar  191  TYR191     -0.0009
     49  CD2       46.9620  -17.7030    0.1380 C.ar  191  TYR191     -0.0009
     50  CE1       49.6430  -18.3030    0.3860 C.ar  191  TYR191      0.0417
     51  CE2       47.7940  -17.6030   -0.9630 C.ar  191  TYR191      0.0417
     52  CZ        49.1340  -17.9050   -0.8310 C.ar  191  TYR191      0.1957
     53  OH        49.9680  -17.8090   -1.9200 O.3   191  TYR191     -0.2866
     54  N         53.3470  -28.9980   -7.1560 N.3   247  LEU247     -0.1245
     55  CA        53.1450  -27.6320   -6.6870 C.3   247  LEU247      0.1561
     56  C         53.6500  -27.4600   -5.2580 C.2   247  LEU247      0.2260
     57  O         54.2830  -26.4540   -4.9340 O.2   247  LEU247     -0.2867
     58  CB        51.6660  -27.2530   -6.7730 C.3   247  LEU247      0.0270
     59  CG        51.3030  -25.8390   -6.3180 C.3   247  LEU247      0.0019
     60  CD1       52.0270  -24.8010   -7.1630 C.3   247  LEU247      0.0001
     61  CD2       49.7980  -25.6270   -6.3690 C.3   247  LEU247      0.0001
     62  N         56.6710  -24.8390   -4.2480 N.3   251  VAL251     -0.1245
     63  CA        56.4010  -23.7780   -3.2840 C.3   251  VAL251      0.1561
     64  C         57.3480  -23.8840   -2.0900 C.2   251  VAL251      0.2260
     65  O         57.8960  -22.8810   -1.6320 O.2   251  VAL251     -0.2867
     66  CB        54.9350  -23.8150   -2.7970 C.3   251  VAL251      0.0252
     67  CG1       54.7610  -22.9780   -1.5380 C.3   251  VAL251      0.0019
     68  CG2       53.9980  -23.3340   -3.8970 C.3   251  VAL251      0.0019
     69  N         60.8320  -22.8720   -3.0010 N.3   254  MET254     -0.1245
     70  CA        60.8460  -21.4260   -3.1920 C.3   254  MET254      0.1570
     71  C         60.9100  -20.6960   -1.8530 C.2   254  MET254      0.2261
     72  O         61.6410  -19.7210   -1.7110 O.2   254  MET254     -0.2867
     73  CB        59.6160  -20.9730   -3.9880 C.3   254  MET254      0.0387
     74  CG        59.4690  -19.4560   -4.1230 C.3   254  MET254      0.0595
     75  SD        58.5480  -18.6690   -2.7780 S.3   254  MET254     -0.1393
     76  CE        56.9370  -19.4320   -2.9850 C.3   254  MET254      0.0692
     77  N         56.4310  -12.8000   -4.3020 N.3   319  ASN319     -0.1225
     78  CA        55.1160  -13.3920   -4.5100 C.3   319  ASN319      0.1785
     79  C         54.2810  -13.3300   -3.2320 C.2   319  ASN319      0.2597
     80  O         54.8050  -13.0570   -2.1530 O.2   319  ASN319     -0.2718
     81  CB        55.2320  -14.8390   -5.0120 C.3   319  ASN319      0.1169
     82  CG        55.9840  -15.7400   -4.0510 C.2   319  ASN319      0.2627
     83  OD1       55.4530  -16.1420   -3.0150 O.2   319  ASN319     -0.2716
     84  ND2       57.2190  -16.0850   -4.4050 N.am  319  ASN319     -0.0877
     85  N         52.9820  -13.5820   -3.3650 N.am  320  GLU320     -0.1965
     86  CA        52.0430  -13.3940   -2.2650 C.3   320  GLU320      0.1733
     87  C         52.2090  -14.4400   -1.1670 C.2   320  GLU320      0.2616
     88  O         51.7740  -14.2350   -0.0350 O.2   320  GLU320     -0.2715
     89  CB        50.6020  -13.4110   -2.7880 C.3   320  GLU320      0.0429
     90  CG        49.9880  -14.7980   -2.9380 C.3   320  GLU320      0.1163
     91  CD        50.5790  -15.6000   -4.0860 C.2   320  GLU320      0.3649
     92  OE1       51.3040  -15.0160   -4.9200 O.co2 320  GLU320     -0.2457
     93  OE2       50.3130  -16.8180   -4.1560 O.co2 320  GLU320     -0.2457
     94  N         52.8430  -15.5570   -1.5020 N.am  321  PHE321     -0.1974
     95  CA        53.0510  -16.6210   -0.5320 C.3   321  PHE321      0.1639
     96  C         54.1170  -16.2090    0.4840 C.2   321  PHE321      0.2290
     97  O         53.9640  -16.4390    1.6850 O.2   321  PHE321     -0.2864
     98  CB        53.4440  -17.9200   -1.2370 C.3   321  PHE321      0.0560
     99  CG        52.8840  -19.1530   -0.5880 C.ar  321  PHE321     -0.0200
    100  CD1       52.1700  -20.0800   -1.3320 C.ar  321  PHE321     -0.0042
    101  CD2       53.0730  -19.3900    0.7640 C.ar  321  PHE321     -0.0042
    102  CE1       51.6510  -21.2180   -0.7370 C.ar  321  PHE321     -0.0003
    103  CE2       52.5590  -20.5250    1.3640 C.ar  321  PHE321     -0.0003
    104  CZ        51.8460  -21.4400    0.6140 C.ar  321  PHE321     -0.0000
    105  N         47.9570  -13.4530   -7.6090 N.3   354  PHE354     -0.1241
    106  CA        49.1900  -13.9620   -8.2080 C.3   354  PHE354      0.1605
    107  C         49.9560  -12.8650   -8.9540 C.2   354  PHE354      0.2264
    108  O         50.9550  -13.1370   -9.6230 O.2   354  PHE354     -0.2867
    109  CB        48.8870  -15.1220   -9.1670 C.3   354  PHE354      0.0534
    110  CG        48.5740  -16.4290   -8.4790 C.ar  354  PHE354     -0.0203
    111  CD1       48.7200  -16.5680   -7.1080 C.ar  354  PHE354     -0.0042
    112  CD2       48.1460  -17.5250   -9.2140 C.ar  354  PHE354     -0.0042
    113  CE1       48.4360  -17.7730   -6.4830 C.ar  354  PHE354     -0.0003
    114  CE2       47.8610  -18.7300   -8.5940 C.ar  354  PHE354     -0.0003
    115  CZ        48.0060  -18.8530   -7.2280 C.ar  354  PHE354     -0.0000
    116  N         52.4620  -10.7960   -9.8340 N.3   356  ASN356     -0.1240
    117  CA        53.8770  -10.4850   -9.6670 C.3   356  ASN356      0.1653
    118  C         54.6260  -10.7600  -10.9660 C.2   356  ASN356      0.2266
    119  O         54.0740  -11.3620  -11.8890 O.2   356  ASN356     -0.2867
    120  CB        54.4880  -11.2840   -8.5110 C.3   356  ASN356      0.1155
    121  CG        54.3490  -12.7830   -8.6920 C.2   356  ASN356      0.2627
    122  OD1       55.1030  -13.4030   -9.4410 O.2   356  ASN356     -0.2716
    123  ND2       53.3890  -13.3760   -7.9920 N.am  356  ASN356     -0.0877
    124  N         57.1300  -12.7310  -11.6020 N.3   358  SER358     -0.1202
    125  CA        57.4980  -14.1250  -11.8260 C.3   358  SER358      0.2020
    126  C         56.3540  -14.9380  -12.4180 C.2   358  SER358      0.2619
    127  O         56.5680  -16.0170  -12.9710 O.2   358  SER358     -0.2717
    128  CB        57.9740  -14.7660  -10.5230 C.3   358  SER358      0.2103
    129  OG        59.2300  -14.2390  -10.1350 O.3   358  SER358     -0.2182
    130  N         55.1390  -14.4150  -12.3060 N.am  359  SER359     -0.1951
    131  CA        53.9720  -15.1000  -12.8420 C.3   359  SER359      0.1924
    132  C         53.8830  -14.9500  -14.3600 C.2   359  SER359      0.2314
    133  O         53.1380  -15.6760  -15.0170 O.2   359  SER359     -0.2863
    134  CB        52.6970  -14.5790  -12.1770 C.3   359  SER359      0.2116
    135  OG        52.6020  -15.0300  -10.8360 O.3   359  SER359     -0.2180
    136  N         55.4600  -17.9740  -15.8570 N.3   362  ILE362     -0.1245
    137  CA        54.5100  -19.0670  -15.7170 C.3   362  ILE362      0.1561
    138  C         53.4000  -18.9390  -16.7620 C.2   362  ILE362      0.2260
    139  O         52.9130  -19.9400  -17.2850 O.2   362  ILE362     -0.2867
    140  CB        53.9070  -19.1040  -14.2950 C.3   362  ILE362      0.0252
    141  CG1       55.0210  -19.2470  -13.2550 C.3   362  ILE362      0.0019
    142  CG2       52.9060  -20.2420  -14.1550 C.3   362  ILE362      0.0019
    143  CD1       54.5280  -19.3060  -11.8220 C.3   362  ILE362      0.0001
@<TRIPOS>BOND
     1   139   138    2
     2    17    16    2
     3   138   137    1
     4    24    23    2
     5     8     7    2
     6    16    15    1
     7    16    21   am
     8    20    18    1
     9    15    18    1
    10    15    14    1
    11   136   137    1
    12    18    19    1
    13   137   140    1
    14    23    22    1
    15    22    21    1
    16    22    25    1
    17     7    14   am
    18     7     6    1
    19   133   132    2
    20   132   131    1
    21   140   142    1
    22   140   141    1
    23     6     9    1
    24     6     5    1
    25    25    26    1
    26     9    10    1
    27    12    11    2
    28    10    11    1
    29    26    27    1
    30   141   143    1
    31     4     3    2
    32    11    13   am
    33   127   126    2
    34   131   130    1
    35   131   134    1
    36    27    28   ar
    37    27    29   ar
    38     5     3   am
    39   126   130   am
    40   126   125    1
    41     3     2    1
    42   134   135    1
    43   119   118    2
    44   125   124    1
    45   125   128    1
    46     2     1    1
    47   118   117    1
    48   128   129    1
    49   116   117    1
    50   117   120    1
    51   108   107    2
    52   122   121    2
    53   112   114   ar
    54   112   110   ar
    55   109   110    1
    56   109   106    1
    57   107   106    1
    58   121   120    1
    59   121   123   am
    60   114   115   ar
    61   110   111   ar
    62   106   105    1
    63    34    31    1
    64   115   113   ar
    65    60    59    1
    66    54    55    1
    67   111   113   ar
    68    58    55    1
    69    58    59    1
    70    55    56    1
    71    31    30    1
    72    31    32    1
    73    61    59    1
    74    32    33    2
    75    56    57    2
    76    81    78    1
    77    81    82    1
    78    92    91   ar
    79    78    77    1
    80    78    79    1
    81    84    82   am
    82    62    63    1
    83    93    91   ar
    84    74    73    1
    85    74    75    1
    86    91    90    1
    87    82    83    2
    88    73    70    1
    89    41    39    1
    90    68    66    1
    91    40    39    1
    92    85    79   am
    93    85    86    1
    94    63    66    1
    95    63    64    1
    96    79    80    2
    97    70    69    1
    98    70    71    1
    99    76    75    1
   100    90    89    1
   101    39    36    1
   102    35    36    1
   103    66    67    1
   104    89    86    1
   105    86    87    1
   106    64    65    2
   107    36    37    1
   108    53    52    1
   109    71    72    2
   110    94    87   am
   111    94    95    1
   112   100   102   ar
   113   100    99   ar
   114    98    99    1
   115    98    95    1
   116    87    88    2
   117    37    38    2
   118    51    52   ar
   119    51    49   ar
   120    52    50   ar
   121   102   104   ar
   122    99   101   ar
   123    95    96    1
   124    49    47   ar
   125    50    48   ar
   126    96    97    2
   127   104   103   ar
   128   101   103   ar
   129    47    48   ar
   130    47    46    1
   131    46    43    1
   132    42    43    1
   133    43    44    1
   134    44    45    2
