@<TRIPOS>MOLECULE
tmp/4pbgA00.pdb
 176 175 0 0 0
SMALL
GASTEIGER

@<TRIPOS>ATOM
      1  N         13.2960   75.9190    4.4700 N.3    19  GLN19      -0.1245
      2  CA        12.8230   74.8860    5.4020 C.3    19  GLN19       0.1566
      3  C         11.7780   75.3690    6.4510 C.2    19  GLN19       0.2260
      4  O         10.7740   74.6880    6.6970 O.2    19  GLN19      -0.2867
      5  CB        14.0240   74.2620    6.1530 C.3    19  GLN19       0.0367
      6  CG        15.0250   73.5270    5.2610 C.3    19  GLN19       0.0905
      7  CD        16.1170   72.8300    6.0440 C.2    19  GLN19       0.2608
      8  OE1       17.2530   73.3030    6.1100 O.2    19  GLN19      -0.2717
      9  NE2       15.7740   71.7080    6.6580 N.am   19  GLN19      -0.0878
     10  N         21.4090   79.8490    1.5180 N.3   116  HIS116     -0.1226
     11  CA        21.2490   78.5270    2.1530 C.3   116  HIS116      0.1752
     12  C         20.4890   77.5690    1.2200 C.2   116  HIS116      0.2596
     13  O         19.2810   77.3980    1.3330 O.2   116  HIS116     -0.2718
     14  CB        20.4750   78.6630    3.4460 C.3   116  HIS116      0.0759
     15  CG        20.5680   77.4690    4.3370 C.ar  116  HIS116      0.0818
     16  ND1       21.0710   77.5390    5.6170 N.ar  116  HIS116     -0.2268
     17  CD2       20.1630   76.1900    4.1630 C.ar  116  HIS116      0.1154
     18  CE1       20.9630   76.3580    6.1990 C.ar  116  HIS116      0.1986
     19  NE2       20.4160   75.5220    5.3370 N.ar  116  HIS116     -0.2212
     20  N         21.1940   76.9740    0.2780 N.am  117  PHE117     -0.1976
     21  CA        20.5880   76.0400   -0.6800 C.3   117  PHE117      0.1639
     22  C         19.4440   76.6110   -1.5150 C.2   117  PHE117      0.2290
     23  O         18.6880   75.8360   -2.0930 O.2   117  PHE117     -0.2864
     24  CB        20.0730   74.7570    0.0180 C.3   117  PHE117      0.0560
     25  CG        21.1040   74.0360    0.8410 C.ar  117  PHE117     -0.0200
     26  CD1       22.4520   74.3290    0.7370 C.ar  117  PHE117     -0.0042
     27  CD2       20.7150   73.0410    1.7270 C.ar  117  PHE117     -0.0042
     28  CE1       23.3980   73.6270    1.5090 C.ar  117  PHE117     -0.0003
     29  CE2       21.6600   72.3390    2.5040 C.ar  117  PHE117     -0.0003
     30  CZ        22.9970   72.6350    2.3900 C.ar  117  PHE117     -0.0000
     31  N         26.0380   78.8120    3.0600 N.3   159  ASN159     -0.1225
     32  CA        25.9490   77.7480    4.0320 C.3   159  ASN159      0.1785
     33  C         26.2440   76.4120    3.3330 C.2   159  ASN159      0.2597
     34  O         25.5640   76.0220    2.3700 O.2   159  ASN159     -0.2718
     35  CB        24.5790   77.7030    4.6980 C.3   159  ASN159      0.1169
     36  CG        24.4050   76.4720    5.5970 C.2   159  ASN159      0.2627
     37  OD1       24.6370   76.5230    6.8060 O.2   159  ASN159     -0.2716
     38  ND2       23.9920   75.3560    4.9990 N.am  159  ASN159     -0.0877
     39  N         27.3310   75.7820    3.7570 N.am  160  GLU160     -0.1979
     40  CA        27.7110   74.4840    3.2380 C.3   160  GLU160      0.1602
     41  C         27.8840   74.3260    1.7380 C.2   160  GLU160      0.2287
     42  O         27.0970   73.6350    1.0900 O.2   160  GLU160     -0.2864
     43  CB        26.7010   73.4640    3.7130 C.3   160  GLU160      0.0415
     44  CG        26.5710   73.4400    5.2020 C.3   160  GLU160      0.1163
     45  CD        25.8770   72.2150    5.6900 C.2   160  GLU160      0.3649
     46  OE1       24.8720   71.7750    5.0900 O.co2 160  GLU160     -0.2457
     47  OE2       26.3400   71.7000    6.7110 O.co2 160  GLU160     -0.2457
     48  N         20.6910   64.5800   -5.3050 N.3   173  LYS173     -0.1231
     49  CA        19.4660   64.7070   -4.4960 C.3   173  LYS173      0.1693
     50  C         18.9070   66.1290   -4.3930 C.2   173  LYS173      0.2592
     51  O         17.7860   66.3430   -3.9200 O.2   173  LYS173     -0.2718
     52  CB        19.6280   64.0930   -3.0990 C.3   173  LYS173      0.0285
     53  CG        20.8400   64.5610   -2.3240 C.3   173  LYS173      0.0035
     54  CD        20.6440   64.2530   -0.8490 C.3   173  LYS173      0.0206
     55  CE        21.8400   64.6070   -0.0120 C.3   173  LYS173      0.1093
     56  NZ        21.5450   64.3560    1.4230 N.3   173  LYS173     -0.1314
     57  N         19.7250   67.1080   -4.7580 N.am  174  PHE174     -0.1976
     58  CA        19.3050   68.5030   -4.7400 C.3   174  PHE174      0.1639
     59  C         19.2010   68.8230   -6.2260 C.2   174  PHE174      0.2290
     60  O         19.9320   68.2450   -7.0440 O.2   174  PHE174     -0.2864
     61  CB        20.3840   69.4240   -4.1290 C.3   174  PHE174      0.0560
     62  CG        20.5480   69.3410   -2.6100 C.ar  174  PHE174     -0.0200
     63  CD1       19.7170   68.5510   -1.8100 C.ar  174  PHE174     -0.0042
     64  CD2       21.5750   70.0560   -1.9930 C.ar  174  PHE174     -0.0042
     65  CE1       19.9170   68.4720   -0.4050 C.ar  174  PHE174     -0.0003
     66  CE2       21.7780   69.9830   -0.6130 C.ar  174  PHE174     -0.0003
     67  CZ        20.9440   69.1830    0.1760 C.ar  174  PHE174     -0.0000
     68  N         29.8060   73.1530   10.5120 N.3   297  ASN297     -0.1240
     69  CA        28.6010   72.3240   10.6570 C.3   297  ASN297      0.1653
     70  C         29.0870   70.8730   10.6960 C.2   297  ASN297      0.2266
     71  O         29.7350   70.4220    9.7550 O.2   297  ASN297     -0.2867
     72  CB        27.6740   72.4860    9.4510 C.3   297  ASN297      0.1155
     73  CG        27.1190   73.8860    9.3140 C.2   297  ASN297      0.2627
     74  OD1       27.5210   74.7960   10.0210 O.2   297  ASN297     -0.2716
     75  ND2       26.1820   74.0590    8.3960 N.am  297  ASN297     -0.0877
     76  N         27.9780   66.7090   11.6470 N.3   299  TYR299     -0.1241
     77  CA        27.0150   65.7130   12.1090 C.3   299  TYR299      0.1605
     78  C         27.6140   64.3150   12.3320 C.2   299  TYR299      0.2264
     79  O         27.3340   63.6750   13.3480 O.2   299  TYR299     -0.2867
     80  CB        25.8520   65.6180   11.1560 C.3   299  TYR299      0.0534
     81  CG        25.0410   66.8900   11.0220 C.ar  299  TYR299     -0.0201
     82  CD1       25.3800   67.8570   10.0780 C.ar  299  TYR299     -0.0009
     83  CD2       23.9140   67.1170   11.8150 C.ar  299  TYR299     -0.0009
     84  CE1       24.6290   68.9880    9.9160 C.ar  299  TYR299      0.0417
     85  CE2       23.1560   68.2550   11.6540 C.ar  299  TYR299      0.0417
     86  CZ        23.5350   69.1860   10.7010 C.ar  299  TYR299      0.1957
     87  OH        22.8180   70.3350   10.5160 O.3   299  TYR299     -0.2866
     88  N         23.3040   57.7570    9.3770 N.3   347  TRP347     -0.1241
     89  CA        24.2520   58.7530    9.8600 C.3   347  TRP347      0.1605
     90  C         24.9580   58.2340   11.1040 C.2   347  TRP347      0.2264
     91  O         24.3100   57.9690   12.0940 O.2   347  TRP347     -0.2867
     92  CB        23.5090   60.0640   10.1570 C.3   347  TRP347      0.0550
     93  CG        23.1400   60.8160    8.9150 C.ar  347  TRP347      0.0003
     94  CD1       22.8270   60.2850    7.6890 C.ar  347  TRP347      0.0946
     95  CD2       23.1120   62.2380    8.7510 C.ar  347  TRP347      0.0152
     96  NE1       22.6140   61.2920    6.7750 N.ar  347  TRP347     -0.2442
     97  CE2       22.7810   62.4980    7.3990 C.ar  347  TRP347      0.0810
     98  CE3       23.3430   63.3200    9.6100 C.ar  347  TRP347      0.0012
     99  CZ2       22.6810   63.7900    6.8950 C.ar  347  TRP347      0.0191
    100  CZ3       23.2440   64.5870    9.1190 C.ar  347  TRP347      0.0001
    101  CH2       22.9150   64.8240    7.7700 C.ar  347  TRP347      0.0015
    102  N         26.0990   74.3380   13.4200 N.3   375  CYS375     -0.1235
    103  CA        25.0640   73.2970   13.2510 C.3   375  CYS375      0.1677
    104  C         25.5410   71.9040   13.7600 C.2   375  CYS375      0.2270
    105  O         26.6170   71.4140   13.4040 O.2   375  CYS375     -0.2867
    106  CB        24.6260   73.1980   11.7610 C.3   375  CYS375      0.0956
    107  SG        22.9890   73.9160   11.2560 S.3   375  CYS375     -0.0801
    108  N         21.1500   72.3370   15.3230 N.3   421  TRP421     -0.1241
    109  CA        20.2490   72.2190   14.2050 C.3   421  TRP421      0.1605
    110  C         19.2210   71.2280   14.7110 C.2   421  TRP421      0.2264
    111  O         19.6180   70.1230   15.0570 O.2   421  TRP421     -0.2867
    112  CB        20.9590   71.6590   12.9750 C.3   421  TRP421      0.0550
    113  CG        19.9740   71.4330   11.8910 C.ar  421  TRP421      0.0003
    114  CD1       19.2880   70.2800   11.6360 C.ar  421  TRP421      0.0946
    115  CD2       19.4090   72.4280   11.0330 C.ar  421  TRP421      0.0152
    116  NE1       18.3200   70.4940   10.6950 N.ar  421  TRP421     -0.2442
    117  CE2       18.3710   71.8020   10.2990 C.ar  421  TRP421      0.0810
    118  CE3       19.6780   73.7950   10.8130 C.ar  421  TRP421      0.0012
    119  CZ2       17.5970   72.4950    9.3570 C.ar  421  TRP421      0.0191
    120  CZ3       18.9170   74.4800    9.8770 C.ar  421  TRP421      0.0001
    121  CH2       17.8870   73.8320    9.1570 C.ar  421  TRP421      0.0015
    122  N         13.1140   68.2030    6.1270 N.3   428  SER428     -0.1202
    123  CA        14.4660   68.0600    5.6370 C.3   428  SER428      0.2020
    124  C         14.3480   68.1200    4.1140 C.2   428  SER428      0.2619
    125  O         13.3280   67.7250    3.5570 O.2   428  SER428     -0.2717
    126  CB        15.0400   66.7270    6.1380 C.3   428  SER428      0.2103
    127  OG        16.2770   66.3930    5.5330 O.3   428  SER428     -0.2182
    128  N         15.3520   68.6880    3.4580 N.am  429  TRP429     -0.1961
    129  CA        15.3560   68.8310    2.0150 C.3   429  TRP429      0.1771
    130  C         15.1650   67.4780    1.2950 C.2   429  TRP429      0.2620
    131  O         14.3070   67.3570    0.4300 O.2   429  TRP429     -0.2715
    132  CB        16.6760   69.4360    1.5440 C.3   429  TRP429      0.0590
    133  CG        17.1390   70.6640    2.2770 C.ar  429  TRP429      0.0006
    134  CD1       18.0200   70.7100    3.3200 C.ar  429  TRP429      0.0946
    135  CD2       16.8480   72.0260    1.9340 C.ar  429  TRP429      0.0152
    136  NE1       18.3090   72.0020    3.6280 N.ar  429  TRP429     -0.2442
    137  CE2       17.6050   72.8340    2.7990 C.ar  429  TRP429      0.0810
    138  CE3       16.0240   72.6330    0.9780 C.ar  429  TRP429      0.0012
    139  CZ2       17.5680   74.2360    2.7400 C.ar  429  TRP429      0.0191
    140  CZ3       15.9830   74.0210    0.9180 C.ar  429  TRP429      0.0001
    141  CH2       16.7500   74.8060    1.7960 C.ar  429  TRP429      0.0015
    142  N         15.9660   66.4680    1.6450 N.am  430  SER430     -0.1936
    143  CA        15.8400   65.1790    0.9940 C.3   430  SER430      0.2055
    144  C         15.2850   64.0260    1.8280 C.2   430  SER430      0.2643
    145  O         15.2420   62.8870    1.3460 O.2   430  SER430     -0.2714
    146  CB        17.1620   64.7850    0.3410 C.3   430  SER430      0.2130
    147  OG        18.2720   65.0170    1.2090 O.3   430  SER430     -0.2179
    148  N         14.8600   64.3020    3.0630 N.am  431  ASN431     -0.1971
    149  CA        14.3070   63.2460    3.9240 C.3   431  ASN431      0.1688
    150  C         12.8880   63.5080    4.4320 C.2   431  ASN431      0.2292
    151  O         12.4450   62.8600    5.3950 O.2   431  ASN431     -0.2864
    152  CB        15.2150   62.9800    5.1140 C.3   431  ASN431      0.1181
    153  CG        16.6640   62.8510    4.7240 C.2   431  ASN431      0.2629
    154  OD1       17.2710   63.7820    4.2030 O.2   431  ASN431     -0.2716
    155  ND2       17.2230   61.6810    4.9450 N.am  431  ASN431     -0.0877
    156  N         12.1140   63.2610    9.4040 N.3   435  LYS435     -0.1245
    157  CA        13.4120   63.3780   10.0470 C.3   435  LYS435      0.1561
    158  C         13.5000   64.6580   10.8760 C.2   435  LYS435      0.2260
    159  O         14.0930   65.6650   10.4550 O.2   435  LYS435     -0.2867
    160  CB        14.5130   63.3330    8.9880 C.3   435  LYS435      0.0271
    161  CG        15.8920   63.1080    9.5680 C.3   435  LYS435      0.0035
    162  CD        16.9220   62.8450    8.5140 C.3   435  LYS435      0.0206
    163  CE        18.2930   62.8970    9.0980 C.3   435  LYS435      0.1093
    164  NZ        19.3300   62.7600    8.0160 N.3   435  LYS435     -0.1314
    165  N         14.5530   67.2600   13.9100 N.3   437  TYR437     -0.1241
    166  CA        15.7640   67.6290   14.6510 C.3   437  TYR437      0.1605
    167  C         15.5390   68.6420   15.7720 C.2   437  TYR437      0.2264
    168  O         16.4220   68.8610   16.5980 O.2   437  TYR437     -0.2867
    169  CB        16.7700   68.2940   13.7300 C.3   437  TYR437      0.0534
    170  CG        17.6170   67.4140   12.8260 C.ar  437  TYR437     -0.0201
    171  CD1       17.1410   66.9950   11.6030 C.ar  437  TYR437     -0.0009
    172  CD2       18.9510   67.1340   13.1420 C.ar  437  TYR437     -0.0009
    173  CE1       17.9480   66.3410   10.7230 C.ar  437  TYR437      0.0417
    174  CE2       19.7720   66.4790   12.2620 C.ar  437  TYR437      0.0417
    175  CZ        19.2730   66.0770   11.0510 C.ar  437  TYR437      0.1957
    176  OH        20.0870   65.3740   10.1680 O.3   437  TYR437     -0.2866
@<TRIPOS>BOND
     1    60    59    2
     2    59    58    1
     3    48    49    1
     4    57    58    1
     5    57    50   am
     6    58    61    1
     7    49    50    1
     8    49    52    1
     9    50    51    2
    10    61    62    1
    11    52    53    1
    12    62    64   ar
    13    62    63   ar
    14    53    54    1
    15    23    22    2
    16    64    66   ar
    17    63    65   ar
    18    22    21    1
    19    54    55    1
    20    21    24    1
    21    21    20    1
    22    66    67   ar
    23    65    67   ar
    24    55    56    1
    25    24    25    1
    26    20    12   am
    27   146   143    1
    28   146   147    1
    29   131   130    2
    30    26    25   ar
    31    26    28   ar
    32    25    27   ar
    33   140   138   ar
    34   140   141   ar
    35   138   135   ar
    36   143   142    1
    37   143   144    1
    38    42    41    2
    39    12    13    2
    40    12    11    1
    41   130   142   am
    42   130   129    1
    43   145   144    2
    44    28    30   ar
    45    10    11    1
    46   132   129    1
    47   132   133    1
    48    27    29   ar
    49    41    40    1
    50   141   139   ar
    51   144   148   am
    52   135   133   ar
    53   135   137   ar
    54   129   128    1
    55    11    14    1
    56   133   134   ar
    57    34    33    2
    58    30    29   ar
    59   139   137   ar
    60   137   136   ar
    61    31    32    1
    62   148   149    1
    63    40    43    1
    64    40    39    1
    65   134   136   ar
    66    33    39   am
    67    33    32    1
    68    14    15    1
    69   128   124   am
    70   125   124    2
    71    43    44    1
    72   149   150    1
    73   149   152    1
    74    32    35    1
    75   124   123    1
    76    17    15   ar
    77    17    19   ar
    78   154   153    2
    79    15    16   ar
    80   150   151    2
    81     1     2    1
    82    35    36    1
    83   153   155   am
    84   153   152    1
    85    38    36   am
    86    46    45   ar
    87    44    45    1
    88     6     7    1
    89     6     5    1
    90    19    18   ar
    91     2     5    1
    92     2     3    1
    93   127   126    1
    94    36    37    2
    95    16    18   ar
    96   123   122    1
    97   123   126    1
    98    45    47   ar
    99     7     8    2
   100     7     9   am
   101     3     4    2
   102    96    97   ar
   103    96    94   ar
   104    99    97   ar
   105    99   101   ar
   106    97    95   ar
   107    94    93   ar
   108   101   100   ar
   109   164   163    1
   110    75    73   am
   111   162   163    1
   112   162   161    1
   113    95    93   ar
   114    95    98   ar
   115    93    92    1
   116   160   161    1
   117   160   157    1
   118   100    98   ar
   119   121   119   ar
   120   121   120   ar
   121    73    72    1
   122    73    74    2
   123   119   117   ar
   124    88    89    1
   125   156   157    1
   126    72    69    1
   127    71    70    2
   128    89    92    1
   129    89    90    1
   130   120   118   ar
   131    84    82   ar
   132    84    86   ar
   133   157   158    1
   134    82    81   ar
   135   176   175    1
   136   117   116   ar
   137   117   115   ar
   138   159   158    2
   139    68    69    1
   140    87    86    1
   141    69    70    1
   142   116   114   ar
   143    86    85   ar
   144   173   175   ar
   145   173   171   ar
   146   118   115   ar
   147    81    80    1
   148    81    83   ar
   149   115   113   ar
   150   175   174   ar
   151    90    91    2
   152    80    77    1
   153   107   106    1
   154   171   170   ar
   155   114   113   ar
   156    76    77    1
   157    85    83   ar
   158   106   103    1
   159   113   112    1
   160    77    78    1
   161   174   172   ar
   162    78    79    2
   163   170   172   ar
   164   170   169    1
   165   112   109    1
   166   103   102    1
   167   103   104    1
   168   105   104    2
   169   169   166    1
   170   165   166    1
   171   109   110    1
   172   109   108    1
   173   166   167    1
   174   110   111    2
   175   167   168    2
