@<TRIPOS>MOLECULE
tmp/4pbqA00.pdb
 150 143 0 0 0
SMALL
GASTEIGER

@<TRIPOS>ATOM
      1  N         19.8590    3.6050   28.3340 N.3     9  TYR9       -0.1241
      2  CA        19.1210    4.1120   29.4840 C.3     9  TYR9        0.1605
      3  C         19.1610    3.2810   30.7660 C.2     9  TYR9        0.2264
      4  O         18.7180    3.7470   31.8270 O.2     9  TYR9       -0.2867
      5  CB        17.6530    4.3350   29.0960 C.3     9  TYR9        0.0534
      6  CG        16.7610    3.1410   28.8140 C.ar    9  TYR9       -0.0201
      7  CD1       16.2580    2.3620   29.8490 C.ar    9  TYR9       -0.0009
      8  CD2       16.3390    2.8540   27.5120 C.ar    9  TYR9       -0.0009
      9  CE1       15.3840    1.3200   29.6010 C.ar    9  TYR9        0.0417
     10  CE2       15.4540    1.7990   27.2610 C.ar    9  TYR9        0.0417
     11  CZ        14.9860    1.0480   28.3060 C.ar    9  TYR9        0.1957
     12  OH        14.0980    0.0120   28.0550 O.3     9  TYR9       -0.2866
     13  N         16.2770    8.1530   26.0690 N.3    49  GLU49      -0.1245
     14  CA        16.1360    7.1510   25.0360 C.3    49  GLU49       0.1567
     15  C         15.7870    7.7460   23.6800 C.2    49  GLU49       0.2260
     16  O         16.3160    7.3200   22.6640 O.2    49  GLU49      -0.2867
     17  CB        15.0560    6.1560   25.4760 C.3    49  GLU49       0.0388
     18  CG        15.0050    4.8880   24.6540 C.3    49  GLU49       0.1160
     19  CD        13.8790    3.9710   25.0530 C.2    49  GLU49       0.3649
     20  OE1       13.1450    4.3210   26.0020 O.co2  49  GLU49      -0.2457
     21  OE2       13.7330    2.9020   24.4030 O.co2  49  GLU49      -0.2457
     22  N         14.9130    0.7930   23.3170 N.3    67  GLY67      -0.1210
     23  CA        13.7180    0.0380   22.9900 C.3    67  GLY67       0.1956
     24  C         13.1760    0.4580   21.6370 C.2    67  GLY67       0.2612
     25  O         13.9260    0.8300   20.7180 O.2    67  GLY67      -0.2717
     26  N         11.8510    0.4180   21.4970 N.am   68  LEU68      -0.1965
     27  CA        11.2540    0.4520   20.1660 C.3    68  LEU68       0.1728
     28  C         10.6570    1.8260   19.8110 C.2    68  LEU68       0.2616
     29  O          9.6850    1.9080   19.0680 O.2    68  LEU68      -0.2715
     30  CB        10.1290   -0.6090   20.0900 C.3    68  LEU68       0.0311
     31  CG        10.4950   -2.0270   20.5570 C.3    68  LEU68       0.0022
     32  CD1        9.3700   -3.0340   20.2830 C.3    68  LEU68       0.0001
     33  CD2       11.7610   -2.5070   19.8860 C.3    68  LEU68       0.0001
     34  N         11.2310    2.9040   20.3300 N.am   69  LEU69      -0.1977
     35  CA        10.6360    4.2290   20.1540 C.3    69  LEU69       0.1596
     36  C         10.6170    4.6930   18.6960 C.2    69  LEU69       0.2287
     37  O          9.7930    5.5460   18.3410 O.2    69  LEU69      -0.2864
     38  CB        11.3310    5.2650   21.0250 C.3    69  LEU69       0.0297
     39  CG        11.3260    5.0580   22.5320 C.3    69  LEU69       0.0022
     40  CD1       11.9280    6.2530   23.1910 C.3    69  LEU69       0.0001
     41  CD2        9.9010    4.7710   23.0530 C.3    69  LEU69       0.0001
     42  N          6.4410   -5.3310   21.0260 N.3    81  GLU81      -0.1245
     43  CA         5.8030   -4.9180   22.2660 C.3    81  GLU81       0.1567
     44  C          4.2640   -4.9900   22.2140 C.2    81  GLU81       0.2260
     45  O          3.5960   -4.5690   23.1460 O.2    81  GLU81      -0.2867
     46  CB         6.2600   -3.5120   22.6550 C.3    81  GLU81       0.0388
     47  CG         7.6780   -3.5060   23.2850 C.3    81  GLU81       0.1160
     48  CD         8.2340   -2.1030   23.5380 C.2    81  GLU81       0.3649
     49  OE1        7.8080   -1.1580   22.8260 O.co2  81  GLU81      -0.2457
     50  OE2        9.0450   -1.9420   24.4910 O.co2  81  GLU81      -0.2457
     51  N         15.2110   -6.7290   27.6600 N.3   119  ASN119     -0.1240
     52  CA        14.9460   -5.9820   28.8690 C.3   119  ASN119      0.1653
     53  C         13.9110   -6.7400   29.7120 C.2   119  ASN119      0.2266
     54  O         14.0550   -6.8600   30.9200 O.2   119  ASN119     -0.2867
     55  CB        14.5190   -4.5480   28.5400 C.3   119  ASN119      0.1155
     56  CG        15.6870   -3.6960   28.1150 C.2   119  ASN119      0.2627
     57  OD1       16.8010   -3.9390   28.5430 O.2   119  ASN119     -0.2716
     58  ND2       15.4460   -2.7130   27.2700 N.am  119  ASN119     -0.0877
     59  N          7.1070   -6.6270   30.9950 N.3   122  ARG122     -0.1245
     60  CA         6.8070   -5.4850   31.8270 C.3   122  ARG122      0.1563
     61  C          5.7660   -5.8110   32.9080 C.2   122  ARG122      0.2260
     62  O          4.7930   -6.5260   32.6620 O.2   122  ARG122     -0.2867
     63  CB         6.3220   -4.3230   30.9450 C.3   122  ARG122      0.0307
     64  CG         7.3510   -3.9260   29.8910 C.3   122  ARG122      0.0489
     65  CD         6.8580   -2.8980   28.9640 C.3   122  ARG122      0.2205
     66  NE         6.8800   -1.5260   29.4700 N.pl3 122  ARG122     -0.0865
     67  CZ         7.8980   -0.6890   29.3390 C.cat 122  ARG122      0.5346
     68  NH1        9.0030   -1.0740   28.7070 N.pl3 122  ARG122      0.1354
     69  NH2        7.8010    0.5340   29.8010 N.pl3 122  ARG122      0.1354
     70  N          2.1700    6.3980   34.6660 N.3   142  ARG142     -0.1245
     71  CA         3.0910    6.8580   33.6440 C.3   142  ARG142      0.1563
     72  C          3.2430    5.7690   32.5990 C.2   142  ARG142      0.2260
     73  O          3.3500    4.5880   32.9390 O.2   142  ARG142     -0.2867
     74  CB         4.4580    7.1900   34.2230 C.3   142  ARG142      0.0307
     75  CG         5.4900    7.5730   33.1970 C.3   142  ARG142      0.0489
     76  CD         6.3180    6.4030   32.7360 C.3   142  ARG142      0.2205
     77  NE         7.3410    6.7780   31.7730 N.pl3 142  ARG142     -0.0865
     78  CZ         8.1530    5.9050   31.2010 C.cat 142  ARG142      0.5346
     79  NH1        8.0600    4.6040   31.5080 N.pl3 142  ARG142      0.1354
     80  NH2        9.0550    6.3200   30.3320 N.pl3 142  ARG142      0.1354
     81  N          5.4980    5.0580   28.6510 N.3   144  PRO144     -0.2102
     82  CA         6.6230    5.6250   27.8720 C.3   144  PRO144      0.1504
     83  C          6.1840    6.5210   26.7160 C.2   144  PRO144      0.2576
     84  O          4.9710    6.7290   26.4810 O.2   144  PRO144     -0.2718
     85  CB         7.3530    4.4000   27.3350 C.3   144  PRO144      0.0282
     86  CG         6.4780    3.2190   27.6100 C.3   144  PRO144      0.0208
     87  CD         5.4980    3.5920   28.6770 C.3   144  PRO144      0.0893
     88  N          7.1860    7.0720   26.0270 N.am  145  LEU145     -0.1966
     89  CA         6.9890    7.9780   24.9020 C.3   145  LEU145      0.1728
     90  C          6.6330    7.2240   23.6120 C.2   145  LEU145      0.2616
     91  O          7.3380    7.3100   22.5980 O.2   145  LEU145     -0.2715
     92  CB         8.2680    8.7900   24.6960 C.3   145  LEU145      0.0311
     93  CG         8.6990    9.6340   25.9080 C.3   145  LEU145      0.0022
     94  CD1       10.0670   10.2680   25.6140 C.3   145  LEU145      0.0001
     95  CD2        7.7020   10.7050   26.2610 C.3   145  LEU145      0.0001
     96  N          5.4920    6.5370   23.6660 N.am  146  ASN146     -0.1972
     97  CA         5.0730    5.5960   22.6500 C.3   146  ASN146      0.1688
     98  C          3.5720    5.3930   22.7980 C.2   146  ASN146      0.2292
     99  O          3.1170    4.9030   23.8110 O.2   146  ASN146     -0.2864
    100  CB         5.8340    4.2870   22.8330 C.3   146  ASN146      0.1181
    101  CG         5.4230    3.2160   21.8360 C.2   146  ASN146      0.2629
    102  OD1        4.3920    3.3010   21.1770 O.2   146  ASN146     -0.2716
    103  ND2        6.2440    2.1790   21.7460 N.am  146  ASN146     -0.0877
    104  N          1.5250    2.3870   24.2410 N.3   149  PHE149     -0.1241
    105  CA         1.3900    2.1780   25.6600 C.3   149  PHE149      0.1605
    106  C          0.2800    3.0570   26.2270 C.2   149  PHE149      0.2264
    107  O         -0.4110    2.6620   27.1830 O.2   149  PHE149     -0.2867
    108  CB         2.7210    2.4770   26.3620 C.3   149  PHE149      0.0534
    109  CG         3.7610    1.4230   26.1430 C.ar  149  PHE149     -0.0203
    110  CD1        4.4780    1.3440   24.9410 C.ar  149  PHE149     -0.0042
    111  CD2        4.0320    0.5100   27.1430 C.ar  149  PHE149     -0.0042
    112  CE1        5.4460    0.3660   24.7570 C.ar  149  PHE149     -0.0003
    113  CE2        5.0120   -0.4640   26.9640 C.ar  149  PHE149     -0.0003
    114  CZ         5.6990   -0.5470   25.7690 C.ar  149  PHE149     -0.0000
    115  N         11.3100    8.6440   30.9530 N.3   163  LEU163     -0.1245
    116  CA        11.5980    7.8330   32.1020 C.3   163  LEU163      0.1561
    117  C         12.2070    8.6620   33.2210 C.2   163  LEU163      0.2260
    118  O         11.9730    8.3880   34.3950 O.2   163  LEU163     -0.2867
    119  CB        12.5710    6.7280   31.6670 C.3   163  LEU163      0.0270
    120  CG        13.0140    5.7150   32.7110 C.3   163  LEU163      0.0019
    121  CD1       11.8710    4.9220   33.2390 C.3   163  LEU163      0.0001
    122  CD2       14.0720    4.8180   32.0990 C.3   163  LEU163      0.0001
    123  N          7.2780   -1.4430   33.7400 N.3   180  ASN180     -0.1226
    124  CA         8.6160   -1.6920   33.2180 C.3   180  ASN180      0.1770
    125  C          9.0200   -3.0780   33.6900 C.2   180  ASN180      0.2439
    126  O          8.3550   -3.6600   34.5510 O.2   180  ASN180     -0.2733
    127  CB         9.6100   -0.6090   33.7120 C.3   180  ASN180      0.1168
    128  CG        10.0090    0.3890   32.6070 C.2   180  ASN180      0.2627
    129  OD1       10.5020    0.0090   31.5470 O.2   180  ASN180     -0.2716
    130  ND2        9.7960    1.6620   32.8690 N.am  180  ASN180     -0.0877
    131  N         10.0960   -3.6250   33.1270 N.am  181  PRO181     -0.2729
    132  CA        10.5440   -4.9400   33.5870 C.3   181  PRO181      0.1401
    133  C         11.0310   -4.9100   35.0290 C.2   181  PRO181      0.2269
    134  O         11.4450   -3.8500   35.5280 O.2   181  PRO181     -0.2865
    135  CB        11.6770   -5.2970   32.6020 C.3   181  PRO181      0.0296
    136  CG        11.4080   -4.4400   31.3900 C.3   181  PRO181      0.0237
    137  CD        10.8310   -3.1660   31.9440 C.3   181  PRO181      0.0939
    138  N          9.5660   -6.2260   26.3450 N.3   204  SER204     -0.1203
    139  CA        10.4250   -5.1680   25.8210 C.3   204  SER204      0.2005
    140  C         11.8210   -5.6810   25.4570 C.2   204  SER204      0.2460
    141  O         12.6010   -6.0380   26.3410 O.2   204  SER204     -0.2732
    142  CB        10.5450   -4.0770   26.8640 C.3   204  SER204      0.2103
    143  OG         9.4090   -3.2290   26.8880 O.3   204  SER204     -0.2182
    144  N         12.1400   -5.7050   24.1660 N.am  205  PRO205     -0.2728
    145  CA        13.5190   -5.9940   23.7470 C.3   205  PRO205      0.1401
    146  C         14.3940   -4.7610   23.8810 C.2   205  PRO205      0.2269
    147  O         13.8880   -3.6410   23.8310 O.2   205  PRO205     -0.2865
    148  CB        13.3760   -6.3180   22.2720 C.3   205  PRO205      0.0296
    149  CG        11.9760   -6.1100   21.9160 C.3   205  PRO205      0.0237
    150  CD        11.2930   -5.3950   23.0080 C.3   205  PRO205      0.0939
@<TRIPOS>BOND
     1    37    36    2
     2    36    35    1
     3    29    28    2
     4    28    27    1
     5    28    34   am
     6    33    31    1
     7    30    27    1
     8    30    31    1
     9    35    34    1
    10    35    38    1
    11    27    26    1
    12    32    31    1
    13    25    24    2
    14    38    39    1
    15    42    43    1
    16   102   101    2
    17    26    24   am
    18    24    23    1
    19   103   101   am
    20   101   100    1
    21   149   148    1
    22   149   150    1
    23    44    43    1
    24    44    45    2
    25    43    46    1
    26   148   145    1
    27    39    41    1
    28    39    40    1
    29    91    90    2
    30    97    98    1
    31    97   100    1
    32    97    96    1
    33    46    47    1
    34    16    15    2
    35    98    99    2
    36    49    48   ar
    37    23    22    1
    38   150   144    1
    39    47    48    1
    40    48    50   ar
    41    90    96   am
    42    90    89    1
    43    15    14    1
    44   145   146    1
    45   145   144    1
    46   147   146    2
    47   144   140   am
    48   104   105    1
    49    21    19   ar
    50    18    19    1
    51    18    17    1
    52    92    89    1
    53    92    93    1
    54   112   110   ar
    55   112   114   ar
    56    89    88    1
    57   110   109   ar
    58    14    17    1
    59    14    13    1
    60    19    20   ar
    61   140   139    1
    62   140   141    2
    63    94    93    1
    64   105   106    1
    65   105   108    1
    66   114   113   ar
    67   139   138    1
    68   139   142    1
    69    93    95    1
    70    88    83   am
    71   109   108    1
    72   109   111   ar
    73   106   107    2
    74    84    83    2
    75    83    82    1
    76   142   143    1
    77   113   111   ar
    78    10     8   ar
    79    10    11   ar
    80    58    56   am
    81    85    86    1
    82    85    82    1
    83     8     6   ar
    84    86    87    1
    85    51    52    1
    86    82    81    1
    87    12    11    1
    88    56    55    1
    89    56    57    2
    90    11     9   ar
    91     1     2    1
    92    55    52    1
    93    81    87    1
    94    68    67    1
    95     6     5    1
    96     6     7   ar
    97    52    53    1
    98    65    66    1
    99    65    64    1
   100     5     2    1
   101    67    66    2
   102    67    69    1
   103     2     3    1
   104     9     7   ar
   105    53    54    2
   106    64    63    1
   107    80    78    1
   108     3     4    2
   109    63    60    1
   110   115   116    1
   111    59    60    1
   112    78    79    1
   113    78    77    2
   114   136   137    1
   115   136   135    1
   116   129   128    2
   117   119   116    1
   118   119   120    1
   119    77    76    1
   120    60    61    1
   121   137   131    1
   122   122   120    1
   123   116   117    1
   124    72    73    2
   125    72    71    1
   126   135   132    1
   127   128   130   am
   128   128   127    1
   129    62    61    2
   130   120   121    1
   131    76    75    1
   132   131   132    1
   133   131   125   am
   134    75    74    1
   135   124   125    1
   136   124   127    1
   137   124   123    1
   138   117   118    2
   139   132   133    1
   140    71    74    1
   141    71    70    1
   142   125   126    2
   143   133   134    2
