@<TRIPOS>MOLECULE
tmp/4pbsA00.pdb
 173 163 0 0 0
SMALL
GASTEIGER

@<TRIPOS>ATOM
      1  N         76.2340   50.5640   -2.9190 N.3    32  GLY32      -0.1210
      2  CA        75.1920   49.5570   -2.8750 C.3    32  GLY32       0.1956
      3  C         75.7180   48.2140   -2.4290 C.2    32  GLY32       0.2612
      4  O         76.9020   47.9080   -2.5450 O.2    32  GLY32      -0.2717
      5  N         74.8120   47.4140   -1.8710 N.am   33  ILE33      -0.1965
      6  CA        75.1120   46.0500   -1.4630 C.3    33  ILE33       0.1727
      7  C         73.7820   45.3260   -1.4280 C.2    33  ILE33       0.2617
      8  O         72.7510   45.9340   -1.1760 O.2    33  ILE33      -0.2715
      9  CB        75.8220   46.0160   -0.0850 C.3    33  ILE33       0.0290
     10  CG1       76.1510   44.5810    0.3080 C.3    33  ILE33       0.0022
     11  CG2       74.9370   46.6620    0.9800 C.3    33  ILE33       0.0023
     12  CD1       76.9820   44.4550    1.5560 C.3    33  ILE33       0.0001
     13  N         73.8010   44.0280   -1.6840 N.am   34  GLY34      -0.1940
     14  CA        72.5960   43.2290   -1.6390 C.3    34  GLY34       0.2014
     15  C         72.7510   42.0680   -0.6830 C.2    34  GLY34       0.2639
     16  O         73.8580   41.5740   -0.4560 O.2    34  GLY34      -0.2714
     17  N         71.6230   41.6160   -0.1410 N.am   35  PHE35      -0.1959
     18  CA        71.5670   40.4850    0.7800 C.3    35  PHE35       0.1771
     19  C         70.3880   39.6050    0.4030 C.2    35  PHE35       0.2619
     20  O         69.2460   40.0710    0.4230 O.2    35  PHE35      -0.2715
     21  CB        71.3910   40.9340    2.2460 C.3    35  PHE35       0.0574
     22  CG        72.5020   41.7940    2.7800 C.ar   35  PHE35      -0.0200
     23  CD1       73.7110   41.2300    3.1720 C.ar   35  PHE35      -0.0042
     24  CD2       72.3290   43.1690    2.9190 C.ar   35  PHE35      -0.0042
     25  CE1       74.7320   42.0200    3.6760 C.ar   35  PHE35      -0.0003
     26  CE2       73.3510   43.9680    3.4230 C.ar   35  PHE35      -0.0003
     27  CZ        74.5470   43.3950    3.8030 C.ar   35  PHE35      -0.0000
     28  N         70.6450   38.3360    0.1090 N.am   36  GLU36      -0.1977
     29  CA        69.5420   37.3870    0.0810 C.3    36  GLU36       0.1602
     30  C         68.9640   37.3380    1.4840 C.2    36  GLU36       0.2287
     31  O         69.7220   37.1460    2.4420 O.2    36  GLU36      -0.2864
     32  CB        69.9860   35.9930   -0.3380 C.3    36  GLU36       0.0415
     33  CG        70.5940   35.8930   -1.7210 C.3    36  GLU36       0.1163
     34  CD        70.9640   34.4620   -2.0680 C.2    36  GLU36       0.3649
     35  OE1       70.3530   33.5230   -1.5090 O.co2  36  GLU36      -0.2457
     36  OE2       71.8760   34.2670   -2.8930 O.co2  36  GLU36      -0.2457
     37  N         72.4060   52.2690   -0.6810 N.3    63  ILE63      -0.1245
     38  CA        71.3100   51.5080   -1.2700 C.3    63  ILE63       0.1561
     39  C         71.5010   50.0640   -0.8410 C.2    63  ILE63       0.2260
     40  O         72.5530   49.4710   -1.1130 O.2    63  ILE63      -0.2867
     41  CB        71.2920   51.6140   -2.8080 C.3    63  ILE63       0.0252
     42  CG1       71.1240   53.0710   -3.2450 C.3    63  ILE63       0.0019
     43  CG2       70.1610   50.7650   -3.3780 C.3    63  ILE63       0.0019
     44  CD1       70.8880   53.2570   -4.7180 C.3    63  ILE63       0.0001
     45  N         69.9620   46.3370   -1.3100 N.3    65  GLU65      -0.1245
     46  CA        69.0190   45.5020   -2.0500 C.3    65  GLU65       0.1567
     47  C         68.6010   44.3340   -1.1680 C.2    65  GLU65       0.2260
     48  O         69.4370   43.4960   -0.7940 O.2    65  GLU65      -0.2867
     49  CB        69.6000   44.9850   -3.3630 C.3    65  GLU65       0.0388
     50  CG        68.5540   44.1220   -4.1140 C.3    65  GLU65       0.1160
     51  CD        69.0440   43.5650   -5.4430 C.2    65  GLU65       0.3649
     52  OE1       68.5410   42.4880   -5.8620 O.co2  65  GLU65      -0.2457
     53  OE2       69.9110   44.2060   -6.0760 O.co2  65  GLU65      -0.2457
     54  N         67.3530   41.1980   -1.5910 N.3    67  ALA67      -0.1245
     55  CA        67.4700   40.5030   -2.8740 C.3    67  ALA67       0.1562
     56  C         66.5580   39.2770   -2.8780 C.2    67  ALA67       0.2260
     57  O         67.0040   38.1290   -2.8840 O.2    67  ALA67      -0.2867
     58  CB        68.9280   40.1340   -3.1330 C.3    67  ALA67       0.0290
     59  N         67.0080   37.1860   -6.1950 N.3    70  HIS70      -0.1241
     60  CA        68.2290   36.3920   -6.1510 C.3    70  HIS70       0.1621
     61  C         68.0670   35.1940   -5.2250 C.2    70  HIS70       0.2264
     62  O         68.4950   34.0770   -5.5490 O.2    70  HIS70      -0.2867
     63  CB        69.4090   37.2500   -5.6970 C.3    70  HIS70       0.0745
     64  CG        69.9930   38.1070   -6.7750 C.ar   70  HIS70       0.0817
     65  ND1       70.9000   37.6300   -7.6930 N.ar   70  HIS70      -0.2268
     66  CD2       69.8210   39.4200   -7.0660 C.ar   70  HIS70       0.1154
     67  CE1       71.2470   38.6030   -8.5170 C.ar   70  HIS70       0.1986
     68  NE2       70.6090   39.7020   -8.1550 N.ar   70  HIS70      -0.2212
     69  N         62.3020   46.0290   -9.3840 N.3   108  PHE108     -0.1241
     70  CA        62.8140   46.4650  -10.6750 C.3   108  PHE108      0.1605
     71  C         63.3540   45.3440  -11.5480 C.2   108  PHE108      0.2264
     72  O         63.4460   45.5340  -12.7680 O.2   108  PHE108     -0.2867
     73  CB        63.9130   47.5240  -10.4910 C.3   108  PHE108      0.0534
     74  CG        65.0510   47.0810   -9.6040 C.ar  108  PHE108     -0.0203
     75  CD1       64.9710   47.2280   -8.2200 C.ar  108  PHE108     -0.0042
     76  CD2       66.2000   46.5300  -10.1530 C.ar  108  PHE108     -0.0042
     77  CE1       66.0030   46.8300   -7.4010 C.ar  108  PHE108     -0.0003
     78  CE2       67.2450   46.1320   -9.3490 C.ar  108  PHE108     -0.0003
     79  CZ        67.1470   46.2850   -7.9560 C.ar  108  PHE108     -0.0000
     80  N         78.7440   30.9800   -3.8850 N.3   137  ILE137     -0.1245
     81  CA        77.4380   31.5790   -3.6460 C.3   137  ILE137      0.1561
     82  C         76.3070   30.5800   -3.8200 C.2   137  ILE137      0.2260
     83  O         75.2930   30.6550   -3.1120 O.2   137  ILE137     -0.2867
     84  CB        77.2170   32.7860   -4.5770 C.3   137  ILE137      0.0252
     85  CG1       78.1640   33.9240   -4.2270 C.3   137  ILE137      0.0019
     86  CG2       75.7670   33.2390   -4.5330 C.3   137  ILE137      0.0019
     87  CD1       78.2110   34.9530   -5.3070 C.3   137  ILE137      0.0001
     88  N         71.5150   34.1060  -12.1460 N.3   151  TYR151     -0.1241
     89  CA        71.8290   34.8660  -10.9390 C.3   151  TYR151      0.1605
     90  C         72.9450   35.8860  -11.1550 C.2   151  TYR151      0.2264
     91  O         72.7440   37.0880  -10.9310 O.2   151  TYR151     -0.2867
     92  CB        72.1980   33.8800   -9.8250 C.3   151  TYR151      0.0534
     93  CG        72.4110   34.4410   -8.4270 C.ar  151  TYR151     -0.0201
     94  CD1       73.5130   35.2190   -8.1270 C.ar  151  TYR151     -0.0009
     95  CD2       71.5370   34.1300   -7.3970 C.ar  151  TYR151     -0.0009
     96  CE1       73.7390   35.6880   -6.8450 C.ar  151  TYR151      0.0417
     97  CE2       71.7450   34.5960   -6.1130 C.ar  151  TYR151      0.0417
     98  CZ        72.8430   35.3810   -5.8420 C.ar  151  TYR151      0.1957
     99  OH        73.0550   35.8350   -4.5660 O.3   151  TYR151     -0.2866
    100  N         72.6540   40.0650  -11.0900 N.3   155  GLN155     -0.1245
    101  CA        73.3610   40.9210  -10.1460 C.3   155  GLN155      0.1566
    102  C         74.1880   41.9660  -10.8780 C.2   155  GLN155      0.2260
    103  O         74.2330   43.1340  -10.4650 O.2   155  GLN155     -0.2867
    104  CB        74.2430   40.0770   -9.2290 C.3   155  GLN155      0.0367
    105  CG        74.8820   40.8430   -8.0630 C.3   155  GLN155      0.0905
    106  CD        75.4650   39.9150   -7.0040 C.2   155  GLN155      0.2608
    107  OE1       74.9670   38.8100   -6.8020 O.2   155  GLN155     -0.2717
    108  NE2       76.5410   40.3490   -6.3440 N.am  155  GLN155     -0.0878
    109  N         71.8590   44.5670  -12.0080 N.3   158  GLY158     -0.1210
    110  CA        71.4370   45.3800  -10.8780 C.3   158  GLY158      0.1956
    111  C         72.3900   46.5270  -10.6210 C.2   158  GLY158      0.2612
    112  O         71.9600   47.6610  -10.3760 O.2   158  GLY158     -0.2717
    113  N         73.7010   46.2490  -10.6730 N.am  159  CYS159     -0.1970
    114  CA        74.6970   47.3130  -10.5740 C.3   159  CYS159      0.1712
    115  C         74.4360   48.3780  -11.6190 C.2   159  CYS159      0.2296
    116  O         74.3900   49.5760  -11.3180 O.2   159  CYS159     -0.2864
    117  CB        76.1080   46.7460  -10.7550 C.3   159  CYS159      0.0983
    118  SG        76.7200   45.8320   -9.3670 S.3   159  CYS159     -0.0798
    119  N         70.8780   50.1970  -10.9130 N.3   162  LEU162     -0.1245
    120  CA        70.8840   51.0840   -9.7600 C.3   162  LEU162      0.1561
    121  C         71.9060   52.2040   -9.8770 C.2   162  LEU162      0.2260
    122  O         71.8080   53.1730   -9.1220 O.2   162  LEU162     -0.2867
    123  CB        71.1220   50.2970   -8.4700 C.3   162  LEU162      0.0270
    124  CG        69.9620   49.3450   -8.1610 C.3   162  LEU162      0.0019
    125  CD1       70.0790   48.7070   -6.7860 C.3   162  LEU162      0.0001
    126  CD2       68.6430   50.0690   -8.3130 C.3   162  LEU162      0.0001
    127  N         75.0310   52.6230   -9.0190 N.3   164  VAL164     -0.1245
    128  CA        75.9400   52.8900   -7.9080 C.3   164  VAL164      0.1561
    129  C         77.3440   53.1890   -8.4280 C.2   164  VAL164      0.2260
    130  O         77.7600   52.6990   -9.4810 O.2   164  VAL164     -0.2867
    131  CB        75.9660   51.6960   -6.9370 C.3   164  VAL164      0.0252
    132  CG1       74.6120   51.5190   -6.2530 C.3   164  VAL164      0.0019
    133  CG2       76.3520   50.4220   -7.6670 C.3   164  VAL164      0.0019
    134  N         80.2540   49.1710   -5.3550 N.3   167  ALA167     -0.1231
    135  CA        79.6120   47.9430   -4.9170 C.3   167  ALA167      0.1694
    136  C         80.4260   47.3430   -3.7810 C.2   167  ALA167      0.2591
    137  O         81.6630   47.3090   -3.8330 O.2   167  ALA167     -0.2718
    138  CB        79.4750   46.9440   -6.0690 C.3   167  ALA167      0.0304
    139  N         79.7350   46.8860   -2.7580 N.am  168  VAL168     -0.1980
    140  CA        80.3640   46.3100   -1.5840 C.3   168  VAL168      0.1595
    141  C         79.8840   44.8750   -1.4500 C.2   168  VAL168      0.2287
    142  O         78.7320   44.5560   -1.7480 O.2   168  VAL168     -0.2864
    143  CB        80.0230   47.1240   -0.3180 C.3   168  VAL168      0.0276
    144  CG1       80.6980   46.5190    0.9300 C.3   168  VAL168      0.0022
    145  CG2       80.3980   48.5830   -0.5130 C.3   168  VAL168      0.0022
    146  N         83.4550   36.6390   -1.6290 N.3   172  GLU172     -0.1231
    147  CA        82.8490   35.6370   -2.4930 C.3   172  GLU172      0.1699
    148  C         82.1730   36.2660   -3.7000 C.2   172  GLU172      0.2592
    149  O         81.9820   35.5760   -4.7080 O.2   172  GLU172     -0.2718
    150  CB        81.8430   34.7710   -1.7260 C.3   172  GLU172      0.0402
    151  CG        80.5690   35.4820   -1.3200 C.3   172  GLU172      0.1161
    152  CD        80.7370   36.3350   -0.0750 C.2   172  GLU172      0.3649
    153  OE1       79.7790   37.0900    0.2490 O.co2 172  GLU172     -0.2457
    154  OE2       81.8140   36.2330    0.5670 O.co2 172  GLU172     -0.2457
    155  N         81.8430   37.5590   -3.6310 N.am  173  GLN173     -0.1979
    156  CA        81.1860   38.2880   -4.7060 C.3   173  GLN173      0.1601
    157  C         82.1540   38.7830   -5.7720 C.2   173  GLN173      0.2287
    158  O         81.7050   39.3690   -6.7630 O.2   173  GLN173     -0.2864
    159  CB        80.4120   39.5010   -4.1560 C.3   173  GLN173      0.0394
    160  CG        79.5530   39.2480   -2.9240 C.3   173  GLN173      0.0908
    161  CD        78.4670   38.2370   -3.1890 C.2   173  GLN173      0.2608
    162  OE1       77.7720   38.2890   -4.2250 O.2   173  GLN173     -0.2717
    163  NE2       78.3320   37.2760   -2.2790 N.am  173  GLN173     -0.0878
    164  N         81.6190   40.5380   -9.4100 N.3   177  HIS177     -0.1241
    165  CA        82.0030   41.9420   -9.5600 C.3   177  HIS177      0.1621
    166  C         82.9430   42.1400  -10.7370 C.2   177  HIS177      0.2264
    167  O         82.7950   43.1050  -11.4940 O.2   177  HIS177     -0.2867
    168  CB        82.6300   42.4650   -8.2750 C.3   177  HIS177      0.0745
    169  CG        81.6300   42.7930   -7.2160 C.ar  177  HIS177      0.0817
    170  ND1       81.9750   42.9700   -5.8930 N.ar  177  HIS177     -0.2268
    171  CD2       80.2950   43.0030   -7.2900 C.ar  177  HIS177      0.1154
    172  CE1       80.8890   43.2520   -5.1940 C.ar  177  HIS177      0.1986
    173  NE2       79.8570   43.2740   -6.0180 N.ar  177  HIS177     -0.2212
@<TRIPOS>BOND
     1    72    71    2
     2    88    89    1
     3   109   110    1
     4   115   116    2
     5   115   114    1
     6    71    70    1
     7   167   166    2
     8    90    89    1
     9    90    91    2
    10   100   101    1
    11    89    92    1
    12   119   120    1
    13   102   103    2
    14   102   101    1
    15   110   111    1
    16   117   114    1
    17   117   118    1
    18   166   165    1
    19    70    73    1
    20    70    69    1
    21   113   111   am
    22   113   114    1
    23   111   112    2
    24    73    74    1
    25    76    74   ar
    26    76    78   ar
    27   101   104    1
    28   121   120    1
    29   121   122    2
    30    92    93    1
    31   120   123    1
    32    74    75   ar
    33   165   164    1
    34   165   168    1
    35   130   129    2
    36    78    79   ar
    37   104   105    1
    38   127   128    1
    39    67    68   ar
    40    67    65   ar
    41   123   124    1
    42   129   128    1
    43    93    94   ar
    44    93    95   ar
    45   126   124    1
    46   168   169    1
    47    75    77   ar
    48   124   125    1
    49    68    66   ar
    50    94    96   ar
    51   105   106    1
    52    79    77   ar
    53   128   131    1
    54    65    64   ar
    55   133   131    1
    56    95    97   ar
    57   171   169   ar
    58   171   173   ar
    59   169   170   ar
    60    66    64   ar
    61   106   107    2
    62   106   108   am
    63   131   132    1
    64    96    98   ar
    65    64    63    1
    66   158   157    2
    67    59    60    1
    68    60    63    1
    69    60    61    1
    70    97    98   ar
    71    53    51   ar
    72   138   135    1
    73   173   172   ar
    74   170   172   ar
    75    52    51   ar
    76    98    99    1
    77   157   156    1
    78    62    61    2
    79    51    50    1
    80   134   135    1
    81    87    85    1
    82   135   136    1
    83    44    42    1
    84   149   148    2
    85   156   159    1
    86   156   155    1
    87    84    86    1
    88    84    85    1
    89    84    81    1
    90   162   161    2
    91   159   160    1
    92    50    49    1
    93    80    81    1
    94   137   136    2
    95    82    81    1
    96    82    83    2
    97   136   139   am
    98   148   155   am
    99   148   147    1
   100    43    41    1
   101    49    46    1
   102    42    41    1
   103   161   160    1
   104   161   163   am
   105    58    55    1
   106     1     2    1
   107    36    34   ar
   108    57    56    2
   109    56    55    1
   110     2     3    1
   111    55    54    1
   112    41    38    1
   113   139   140    1
   114     4     3    2
   115   147   150    1
   116   147   146    1
   117     3     5   am
   118    34    33    1
   119    34    35   ar
   120    46    45    1
   121    46    47    1
   122     5     6    1
   123   142   141    2
   124   150   151    1
   125    33    32    1
   126    13    14    1
   127    13     7   am
   128    14    15    1
   129   140   141    1
   130   140   143    1
   131     6     7    1
   132     6     9    1
   133     7     8    2
   134   151   152    1
   135    38    39    1
   136    38    37    1
   137    47    48    2
   138    40    39    2
   139    15    16    2
   140    15    17   am
   141   145   143    1
   142    32    29    1
   143   143   144    1
   144    17    18    1
   145     9    10    1
   146     9    11    1
   147   152   153   ar
   148   152   154   ar
   149    29    28    1
   150    29    30    1
   151    28    19   am
   152    10    12    1
   153    19    20    2
   154    19    18    1
   155    18    21    1
   156    30    31    2
   157    21    22    1
   158    22    24   ar
   159    22    23   ar
   160    24    26   ar
   161    23    25   ar
   162    26    27   ar
   163    25    27   ar
