@<TRIPOS>MOLECULE
tmp/4pbtA01.pdb
 184 176 0 0 0
SMALL
GASTEIGER

@<TRIPOS>ATOM
      1  N         76.3630   50.1730   -2.9690 N.3    32  GLY32      -0.1210
      2  CA        75.3320   49.1610   -2.8700 C.3    32  GLY32       0.1956
      3  C         75.8870   47.8200   -2.4410 C.2    32  GLY32       0.2612
      4  O         77.0420   47.4850   -2.7030 O.2    32  GLY32      -0.2717
      5  N         75.0340   47.0510   -1.7670 N.am   33  ILE33      -0.1965
      6  CA        75.3480   45.6840   -1.3720 C.3    33  ILE33       0.1727
      7  C         74.0430   44.9060   -1.3090 C.2    33  ILE33       0.2617
      8  O         72.9840   45.4600   -1.0020 O.2    33  ILE33      -0.2715
      9  CB        76.0980   45.6300   -0.0190 C.3    33  ILE33       0.0290
     10  CG1       76.5690   44.2050    0.2740 C.3    33  ILE33       0.0022
     11  CG2       75.2130   46.1490    1.1040 C.3    33  ILE33       0.0023
     12  CD1       77.3760   44.0770    1.5470 C.3    33  ILE33       0.0001
     13  N         74.1210   43.6190   -1.6090 N.am   34  GLY34      -0.1940
     14  CA        72.9500   42.7550   -1.6320 C.3    34  GLY34       0.2014
     15  C         73.1020   41.5910   -0.6750 C.2    34  GLY34       0.2639
     16  O         74.2000   41.0560   -0.5060 O.2    34  GLY34      -0.2714
     17  N         71.9920   41.2040   -0.0490 N.am   35  PHE35      -0.1959
     18  CA        71.9520   40.0620    0.8520 C.3    35  PHE35       0.1771
     19  C         70.7720   39.1780    0.4850 C.2    35  PHE35       0.2619
     20  O         69.6380   39.6590    0.3960 O.2    35  PHE35      -0.2715
     21  CB        71.8210   40.4960    2.3180 C.3    35  PHE35       0.0574
     22  CG        72.9360   41.3760    2.7990 C.ar   35  PHE35      -0.0200
     23  CD1       74.1160   40.8280    3.2700 C.ar   35  PHE35      -0.0042
     24  CD2       72.7950   42.7540    2.8000 C.ar   35  PHE35      -0.0042
     25  CE1       75.1400   41.6370    3.7210 C.ar   35  PHE35      -0.0003
     26  CE2       73.8150   43.5680    3.2490 C.ar   35  PHE35      -0.0003
     27  CZ        74.9900   43.0090    3.7110 C.ar   35  PHE35      -0.0000
     28  N         71.0350   37.8980    0.2710 N.am   36  GLU36      -0.1977
     29  CA        69.9480   36.9320    0.2250 C.3    36  GLU36       0.1602
     30  C         69.3270   36.8420    1.6140 C.2    36  GLU36       0.2287
     31  O         70.0550   36.6610    2.5980 O.2    36  GLU36      -0.2864
     32  CB        70.4490   35.5610   -0.2260 C.3    36  GLU36       0.0415
     33  CG        71.0600   35.5390   -1.6180 C.3    36  GLU36       0.1163
     34  CD        71.4290   34.1370   -2.0710 C.2    36  GLU36       0.3649
     35  OE1       70.8470   33.1670   -1.5410 O.co2  36  GLU36      -0.2457
     36  OE2       72.3020   34.0050   -2.9540 O.co2  36  GLU36      -0.2457
     37  N         72.5450   51.9290   -0.5930 N.3    63  ILE63      -0.1231
     38  CA        71.4060   51.1650   -1.0850 C.3    63  ILE63       0.1692
     39  C         71.6330   49.7080   -0.7110 C.2    63  ILE63       0.2592
     40  O         72.7250   49.1720   -0.9290 O.2    63  ILE63      -0.2718
     41  CB        71.2290   51.3130   -2.6090 C.3    63  ILE63       0.0266
     42  CG1       71.2870   52.7880   -3.0130 C.3    63  ILE63       0.0019
     43  CG2       69.9220   50.6770   -3.0610 C.3    63  ILE63       0.0020
     44  CD1       71.1900   53.0180   -4.5060 C.3    63  ILE63       0.0001
     45  N         70.6130   49.0740   -0.1380 N.am   64  ILE64      -0.1966
     46  CA        70.6840   47.6810    0.2900 C.3    64  ILE64       0.1727
     47  C         69.6160   46.9060   -0.4680 C.2    64  ILE64       0.2616
     48  O         68.4220   47.2080   -0.3510 O.2    64  ILE64      -0.2715
     49  CB        70.4850   47.5380    1.8080 C.3    64  ILE64       0.0290
     50  CG1       71.4700   48.4320    2.5660 C.3    64  ILE64       0.0022
     51  CG2       70.6370   46.0830    2.2280 C.3    64  ILE64       0.0023
     52  CD1       72.9210   48.0650    2.3520 C.3    64  ILE64       0.0001
     53  N         70.0410   45.9120   -1.2440 N.am   65  GLU65      -0.1977
     54  CA        69.1090   45.0570   -1.9670 C.3    65  GLU65       0.1602
     55  C         68.7760   43.8370   -1.1180 C.2    65  GLU65       0.2287
     56  O         69.6590   43.0290   -0.8070 O.2    65  GLU65      -0.2864
     57  CB        69.6760   44.6140   -3.3160 C.3    65  GLU65       0.0415
     58  CG        68.7580   43.6300   -4.0400 C.3    65  GLU65       0.1163
     59  CD        69.3820   43.0170   -5.2810 C.2    65  GLU65       0.3649
     60  OE1       68.9510   41.9140   -5.6780 O.co2  65  GLU65      -0.2457
     61  OE2       70.2950   43.6350   -5.8630 O.co2  65  GLU65      -0.2457
     62  N         67.7960   40.7830   -1.7160 N.3    67  ALA67      -0.1245
     63  CA        67.8230   39.9970   -2.9500 C.3    67  ALA67       0.1562
     64  C         66.8730   38.8080   -2.8330 C.2    67  ALA67       0.2260
     65  O         67.2630   37.6800   -2.5210 O.2    67  ALA67      -0.2867
     66  CB        69.2460   39.5420   -3.2560 C.3    67  ALA67       0.0290
     67  N         67.3460   36.6050   -6.1300 N.3    70  HIS70      -0.1241
     68  CA        68.6230   35.9080   -6.0130 C.3    70  HIS70       0.1621
     69  C         68.5050   34.7110   -5.0780 C.2    70  HIS70       0.2264
     70  O         68.9430   33.6030   -5.4080 O.2    70  HIS70      -0.2867
     71  CB        69.7090   36.8690   -5.5260 C.3    70  HIS70       0.0745
     72  CG        70.3200   37.6950   -6.6150 C.ar   70  HIS70       0.0817
     73  ND1       71.1900   37.1690   -7.5460 N.ar   70  HIS70      -0.2268
     74  CD2       70.1950   39.0090   -6.9170 C.ar   70  HIS70       0.1154
     75  CE1       71.5700   38.1230   -8.3780 C.ar   70  HIS70       0.1986
     76  NE2       70.9810   39.2490   -8.0180 N.ar   70  HIS70      -0.2212
     77  N         62.8380   45.7400   -9.6590 N.3   108  TRP108     -0.1241
     78  CA        63.3610   46.1620  -10.9510 C.3   108  TRP108      0.1605
     79  C         63.7760   45.0150  -11.8620 C.2   108  TRP108      0.2264
     80  O         64.0070   45.2570  -13.0520 O.2   108  TRP108     -0.2867
     81  CB        64.5640   47.1040  -10.7670 C.3   108  TRP108      0.0550
     82  CG        65.8070   46.4370  -10.2350 C.ar  108  TRP108      0.0003
     83  CD1       66.6820   45.6540  -10.9340 C.ar  108  TRP108      0.0946
     84  CD2       66.3230   46.5160   -8.8990 C.ar  108  TRP108      0.0152
     85  NE1       67.6990   45.2300  -10.1150 N.ar  108  TRP108     -0.2442
     86  CE2       67.5040   45.7470   -8.8610 C.ar  108  TRP108      0.0810
     87  CE3       65.8980   47.1570   -7.7310 C.ar  108  TRP108      0.0012
     88  CZ2       68.2640   45.6020   -7.7020 C.ar  108  TRP108      0.0191
     89  CZ3       66.6550   47.0120   -6.5820 C.ar  108  TRP108      0.0001
     90  CH2       67.8240   46.2410   -6.5760 C.ar  108  TRP108      0.0015
     91  N         79.3320   30.5980   -4.0370 N.3   137  ILE137     -0.1245
     92  CA        78.0450   31.2320   -3.7700 C.3   137  ILE137      0.1561
     93  C         76.9110   30.2310   -3.9470 C.2   137  ILE137      0.2260
     94  O         75.9730   30.1900   -3.1430 O.2   137  ILE137     -0.2867
     95  CB        77.8340   32.4540   -4.6830 C.3   137  ILE137      0.0252
     96  CG1       78.8940   33.5210   -4.4050 C.3   137  ILE137      0.0019
     97  CG2       76.4380   33.0240   -4.4940 C.3   137  ILE137      0.0019
     98  CD1       78.7960   34.7260   -5.3170 C.3   137  ILE137      0.0001
     99  N         72.0250   33.5720  -12.1680 N.3   151  TYR151     -0.1241
    100  CA        72.3180   34.3510  -10.9670 C.3   151  TYR151      0.1605
    101  C         73.3950   35.4080  -11.1760 C.2   151  TYR151      0.2264
    102  O         73.1440   36.5820  -10.8620 O.2   151  TYR151     -0.2867
    103  CB        72.7110   33.3740   -9.8500 C.3   151  TYR151      0.0534
    104  CG        72.8610   33.9830   -8.4730 C.ar  151  TYR151     -0.0201
    105  CD1       73.9780   34.7380   -8.1420 C.ar  151  TYR151     -0.0009
    106  CD2       71.8990   33.7720   -7.4940 C.ar  151  TYR151     -0.0009
    107  CE1       74.1230   35.2820   -6.8820 C.ar  151  TYR151      0.0417
    108  CE2       72.0370   34.3120   -6.2310 C.ar  151  TYR151      0.0417
    109  CZ        73.1500   35.0660   -5.9310 C.ar  151  TYR151      0.1957
    110  OH        73.2910   35.6050   -4.6750 O.3   151  TYR151     -0.2866
    111  N         73.0420   39.8120  -11.1000 N.3   155  GLN155     -0.1245
    112  CA        73.7570   40.7090  -10.2000 C.3   155  GLN155      0.1566
    113  C         74.5710   41.7300  -10.9830 C.2   155  GLN155      0.2260
    114  O         74.6850   42.8910  -10.5720 O.2   155  GLN155     -0.2867
    115  CB        74.6510   39.8970   -9.2630 C.3   155  GLN155      0.0367
    116  CG        75.3500   40.7090   -8.1850 C.3   155  GLN155      0.0905
    117  CD        75.9990   39.8290   -7.1320 C.2   155  GLN155      0.2608
    118  OE1       75.5980   38.6830   -6.9320 O.2   155  GLN155     -0.2717
    119  NE2       77.0110   40.3610   -6.4560 N.am  155  GLN155     -0.0878
    120  N         71.9710   44.2550  -12.4060 N.3   158  SER158     -0.1202
    121  CA        71.4910   45.2020  -11.4040 C.3   158  SER158      0.2020
    122  C         72.4930   46.3280  -11.1890 C.2   158  SER158      0.2618
    123  O         72.1080   47.4970  -11.0630 O.2   158  SER158     -0.2717
    124  CB        71.2030   44.4800  -10.0880 C.3   158  SER158      0.2103
    125  OG        70.1150   43.5830  -10.2240 O.3   158  SER158     -0.2182
    126  N         73.7850   45.9950  -11.1450 N.am  159  ILE159     -0.1979
    127  CA        74.8190   47.0180  -11.0090 C.3   159  ILE159      0.1595
    128  C         74.7270   48.0230  -12.1500 C.2   159  ILE159      0.2287
    129  O         74.8910   49.2330  -11.9500 O.2   159  ILE159     -0.2864
    130  CB        76.2110   46.3610  -10.9460 C.3   159  ILE159      0.0276
    131  CG1       76.3710   45.5740   -9.6440 C.3   159  ILE159      0.0022
    132  CG2       77.3000   47.4100  -11.0740 C.3   159  ILE159      0.0022
    133  CD1       77.6880   44.8350   -9.5350 C.3   159  ILE159      0.0001
    134  N         70.9090   49.9280  -12.0610 N.3   162  LYS162     -0.1245
    135  CA        70.7260   50.9070  -10.9980 C.3   162  LYS162      0.1561
    136  C         71.8620   51.9180  -10.9040 C.2   162  LYS162      0.2260
    137  O         71.6820   52.9690  -10.2780 O.2   162  LYS162     -0.2867
    138  CB        70.5620   50.1960   -9.6520 C.3   162  LYS162      0.0271
    139  CG        69.4510   49.1530   -9.6390 C.3   162  LYS162      0.0035
    140  CD        68.0850   49.7890   -9.8420 C.3   162  LYS162      0.0206
    141  CE        67.7360   50.7190   -8.6930 C.3   162  LYS162      0.1093
    142  NZ        66.4050   51.3600   -8.8800 N.3   162  LYS162     -0.1314
    143  N         75.1070   52.0890   -9.4710 N.3   164  VAL164     -0.1245
    144  CA        75.8680   52.4290   -8.2750 C.3   164  VAL164      0.1561
    145  C         77.3140   52.7260   -8.6580 C.2   164  VAL164      0.2260
    146  O         77.8420   52.2060   -9.6500 O.2   164  VAL164     -0.2867
    147  CB        75.7960   51.2950   -7.2350 C.3   164  VAL164      0.0252
    148  CG1       74.4310   51.2700   -6.5680 C.3   164  VAL164      0.0019
    149  CG2       76.1160   49.9560   -7.8840 C.3   164  VAL164      0.0019
    150  N         79.9060   46.6570   -2.8520 N.3   168  VAL168     -0.1245
    151  CA        80.5570   46.0910   -1.6780 C.3   168  VAL168      0.1561
    152  C         80.0830   44.6580   -1.4920 C.2   168  VAL168      0.2260
    153  O         78.9490   44.3050   -1.8340 O.2   168  VAL168     -0.2867
    154  CB        80.2770   46.9270   -0.4090 C.3   168  VAL168      0.0252
    155  CG1       81.0220   46.3460    0.7840 C.3   168  VAL168      0.0019
    156  CG2       80.6690   48.3780   -0.6330 C.3   168  VAL168      0.0019
    157  N         84.0300   36.4060   -1.8410 N.3   172  GLU172     -0.1231
    158  CA        83.3960   35.4440   -2.7320 C.3   172  GLU172      0.1699
    159  C         82.6730   36.1110   -3.8940 C.2   172  GLU172      0.2592
    160  O         82.3000   35.4190   -4.8470 O.2   172  GLU172     -0.2718
    161  CB        82.4170   34.5590   -1.9540 C.3   172  GLU172      0.0402
    162  CG        81.0860   35.2210   -1.6260 C.3   172  GLU172      0.1161
    163  CD        81.1820   36.2030   -0.4760 C.2   172  GLU172      0.3649
    164  OE1       80.2400   37.0060   -0.3010 O.co2 172  GLU172     -0.2457
    165  OE2       82.1930   36.1690    0.2560 O.co2 172  GLU172     -0.2457
    166  N         82.4730   37.4260   -3.8420 N.am  173  GLN173     -0.1979
    167  CA        81.7950   38.1630   -4.8990 C.3   173  GLN173      0.1601
    168  C         82.7510   38.7120   -5.9490 C.2   173  GLN173      0.2287
    169  O         82.2960   39.3510   -6.9030 O.2   173  GLN173     -0.2864
    170  CB        80.9910   39.3230   -4.2990 C.3   173  GLN173      0.0394
    171  CG        80.1020   38.9330   -3.1340 C.3   173  GLN173      0.0908
    172  CD        79.0090   37.9710   -3.5390 C.2   173  GLN173      0.2608
    173  OE1       78.4180   38.1010   -4.6110 O.2   173  GLN173     -0.2717
    174  NE2       78.7370   36.9920   -2.6850 N.am  173  GLN173     -0.0878
    175  N         82.1260   40.4390   -9.5930 N.3   177  HIS177     -0.1241
    176  CA        82.4980   41.8390   -9.7680 C.3   177  HIS177      0.1621
    177  C         83.5000   42.0060  -10.9020 C.2   177  HIS177      0.2264
    178  O         83.4540   43.0020  -11.6350 O.2   177  HIS177     -0.2867
    179  CB        83.0510   42.4000   -8.4590 C.3   177  HIS177      0.0745
    180  CG        82.0010   42.6510   -7.4220 C.ar  177  HIS177      0.0817
    181  ND1       82.2960   42.8140   -6.0860 N.ar  177  HIS177     -0.2268
    182  CD2       80.6560   42.7710   -7.5260 C.ar  177  HIS177      0.1154
    183  CE1       81.1790   43.0210   -5.4110 C.ar  177  HIS177      0.1986
    184  NE2       80.1690   43.0000   -6.2630 N.ar  177  HIS177     -0.2212
@<TRIPOS>BOND
     1    80    79    2
     2   120   121    1
     3    99   100    1
     4   128   129    2
     5   128   127    1
     6   134   135    1
     7    79    78    1
     8   178   177    2
     9   121   122    1
    10   121   124    1
    11   122   126   am
    12   122   123    2
    13   101   100    1
    14   101   102    2
    15   126   127    1
    16   111   112    1
    17   132   130    1
    18   127   130    1
    19   135   136    1
    20   135   138    1
    21   113   114    2
    22   113   112    1
    23   100   103    1
    24    78    81    1
    25    78    77    1
    26   130   131    1
    27    83    82   ar
    28    83    85   ar
    29   136   137    2
    30   177   176    1
    31    81    82    1
    32    82    84   ar
    33   125   124    1
    34   112   115    1
    35    85    86   ar
    36   103   104    1
    37   140   139    1
    38   140   141    1
    39   176   175    1
    40   176   179    1
    41   138   139    1
    42   146   145    2
    43   131   133    1
    44   143   144    1
    45   115   116    1
    46    84    86   ar
    47    84    87   ar
    48   142   141    1
    49    86    88   ar
    50   145   144    1
    51   104   105   ar
    52   104   106   ar
    53   179   180    1
    54    75    76   ar
    55    75    73   ar
    56   144   147    1
    57   116   117    1
    58   105   107   ar
    59    76    74   ar
    60   149   147    1
    61    87    89   ar
    62    88    90   ar
    63    73    72   ar
    64   182   180   ar
    65   182   184   ar
    66   106   108   ar
    67   180   181   ar
    68   147   148    1
    69   117   118    2
    70   117   119   am
    71    74    72   ar
    72   169   168    2
    73   107   109   ar
    74    72    71    1
    75    89    90   ar
    76   184   183   ar
    77   108   109   ar
    78    67    68    1
    79   181   183   ar
    80    68    71    1
    81    68    69    1
    82   168   167    1
    83   109   110    1
    84    61    59   ar
    85    60    59   ar
    86    70    69    2
    87    98    96    1
    88    59    58    1
    89   167   170    1
    90   167   166    1
    91   160   159    2
    92    95    97    1
    93    95    96    1
    94    95    92    1
    95   173   172    2
    96    44    42    1
    97   170   171    1
    98    58    57    1
    99    91    92    1
   100    93    92    1
   101    93    94    2
   102   159   166   am
   103   159   158    1
   104   172   171    1
   105   172   174   am
   106    57    54    1
   107    66    63    1
   108    43    41    1
   109    42    41    1
   110     1     2    1
   111    36    34   ar
   112    63    64    1
   113    63    62    1
   114     2     3    1
   115   150   151    1
   116    64    65    2
   117   158   161    1
   118   158   157    1
   119     4     3    2
   120    41    38    1
   121     3     5   am
   122    34    33    1
   123    34    35   ar
   124    54    53    1
   125    54    55    1
   126   161   162    1
   127   153   152    2
   128     5     6    1
   129   151   152    1
   130   151   154    1
   131    14    13    1
   132    14    15    1
   133   162   163    1
   134    33    32    1
   135    13     7   am
   136     6     7    1
   137     6     9    1
   138     7     8    2
   139    53    47   am
   140    55    56    2
   141    38    39    1
   142    38    37    1
   143    40    39    2
   144    39    45   am
   145    15    16    2
   146    15    17   am
   147   156   154    1
   148   163   164   ar
   149   163   165   ar
   150    47    48    2
   151    47    46    1
   152   154   155    1
   153    32    29    1
   154    45    46    1
   155    17    18    1
   156     9    10    1
   157     9    11    1
   158    29    28    1
   159    29    30    1
   160    28    19   am
   161    10    12    1
   162    46    49    1
   163    20    19    2
   164    19    18    1
   165    18    21    1
   166    30    31    2
   167    49    51    1
   168    49    50    1
   169    21    22    1
   170    52    50    1
   171    22    24   ar
   172    22    23   ar
   173    24    26   ar
   174    26    27   ar
   175    23    25   ar
   176    27    25   ar
