@<TRIPOS>MOLECULE
tmp/4pcdA00.pdb
 132 123 0 0 0
SMALL
GASTEIGER

@<TRIPOS>ATOM
      1  N         53.1000   38.1900   29.4250 N.3    10  LEU10      -0.1245
      2  CA        53.8760   39.1420   30.2010 C.3    10  LEU10       0.1561
      3  C         55.3880   38.9580   30.0650 C.2    10  LEU10       0.2260
      4  O         56.1500   39.7550   30.5730 O.2    10  LEU10      -0.2867
      5  CB        53.4890   39.0900   31.6900 C.3    10  LEU10       0.0270
      6  CG        53.6260   37.7410   32.3960 C.3    10  LEU10       0.0019
      7  CD1       55.1030   37.3910   32.6760 C.3    10  LEU10       0.0001
      8  CD2       52.8220   37.7790   33.6690 C.3    10  LEU10       0.0001
      9  N         57.7080   31.0610   27.0420 N.3    17  TRP17      -0.1241
     10  CA        56.3080   31.3230   26.6930 C.3    17  TRP17       0.1605
     11  C         56.1760   32.0700   25.3650 C.2    17  TRP17       0.2264
     12  O         55.2350   31.8240   24.6210 O.2    17  TRP17      -0.2867
     13  CB        55.6580   32.1400   27.7810 C.3    17  TRP17       0.0550
     14  CG        55.5420   31.4570   29.1090 C.ar   17  TRP17       0.0003
     15  CD1       55.8280   30.1520   29.4200 C.ar   17  TRP17       0.0946
     16  CD2       55.0720   32.0620   30.3110 C.ar   17  TRP17       0.0152
     17  NE1       55.5620   29.9160   30.7520 N.ar   17  TRP17      -0.2442
     18  CE2       55.1280   31.0890   31.3220 C.ar   17  TRP17       0.0810
     19  CE3       54.6350   33.3460   30.6310 C.ar   17  TRP17       0.0012
     20  CZ2       54.7170   31.3510   32.6190 C.ar   17  TRP17       0.0191
     21  CZ3       54.2430   33.6070   31.9240 C.ar   17  TRP17       0.0001
     22  CH2       54.3100   32.6230   32.9040 C.ar   17  TRP17       0.0015
     23  N         47.5380   41.4130   32.7020 N.3    49  GLU49      -0.1245
     24  CA        46.8490   40.1170   32.7460 C.3    49  GLU49       0.1567
     25  C         45.3570   40.2260   33.1040 C.2    49  GLU49       0.2260
     26  O         44.5010   39.6500   32.4090 O.2    49  GLU49      -0.2867
     27  CB        47.5780   39.1510   33.7030 C.3    49  GLU49       0.0388
     28  CG        46.9190   37.7650   33.7700 C.3    49  GLU49       0.1160
     29  CD        47.6370   36.7890   34.6910 C.2    49  GLU49       0.3649
     30  OE1       48.6790   37.1630   35.2620 O.co2  49  GLU49      -0.2457
     31  OE2       47.1400   35.6450   34.8520 O.co2  49  GLU49      -0.2457
     32  N         46.9990   31.8040   34.5970 N.3    65  GLY65      -0.1210
     33  CA        46.8560   30.6450   35.4560 C.3    65  GLY65       0.1956
     34  C         46.0830   30.9750   36.7050 C.2    65  GLY65       0.2612
     35  O         44.8910   31.2630   36.6260 O.2    65  GLY65      -0.2717
     36  N         46.7570   30.9470   37.8440 N.am   66  GLU66      -0.1965
     37  CA        46.0550   31.0460   39.1220 C.3    66  GLU66       0.1733
     38  C         45.3560   32.4000   39.3920 C.2    66  GLU66       0.2617
     39  O         44.4700   32.4680   40.2620 O.2    66  GLU66      -0.2715
     40  CB        46.9950   30.6730   40.2790 C.3    66  GLU66       0.0429
     41  CG        48.1200   31.6580   40.5340 C.3    66  GLU66       0.1163
     42  CD        49.3690   31.3540   39.7230 C.2    66  GLU66       0.3649
     43  OE1       49.2820   30.5860   38.7310 O.co2  66  GLU66      -0.2457
     44  OE2       50.4510   31.8840   40.0920 O.co2  66  GLU66      -0.2457
     45  N         45.6890   33.4560   38.6530 N.am   67  SER67      -0.1950
     46  CA        44.8880   34.6970   38.7390 C.3    67  SER67       0.1924
     47  C         43.4430   34.4580   38.2920 C.2    67  SER67       0.2314
     48  O         42.5290   35.2150   38.6430 O.2    67  SER67      -0.2863
     49  CB        45.4930   35.8370   37.9120 C.3    67  SER67       0.2116
     50  OG        46.6850   36.3300   38.5420 O.3    67  SER67      -0.2180
     51  N         55.8770   25.1070   35.1650 N.3   118  ARG118     -0.1245
     52  CA        56.8530   26.1530   35.4520 C.3   118  ARG118      0.1563
     53  C         57.8770   25.7040   36.4670 C.2   118  ARG118      0.2260
     54  O         57.6580   24.7750   37.2520 O.2   118  ARG118     -0.2867
     55  CB        56.1420   27.3900   35.9840 C.3   118  ARG118      0.0307
     56  CG        55.0660   27.8800   35.0370 C.3   118  ARG118      0.0489
     57  CD        54.2160   28.9340   35.6550 C.3   118  ARG118      0.2205
     58  NE        54.9490   30.1630   35.8500 N.pl3 118  ARG118     -0.0865
     59  CZ        54.4420   31.2700   36.3810 C.cat 118  ARG118      0.5346
     60  NH1       55.2040   32.3410   36.4830 N.pl3 118  ARG118      0.1354
     61  NH2       53.1790   31.3190   36.8050 N.pl3 118  ARG118      0.1354
     62  N         58.6830   29.0390   42.1400 N.3   121  ARG121     -0.1245
     63  CA        58.7620   30.4400   42.4900 C.3   121  ARG121      0.1563
     64  C         59.7630   30.5920   43.6250 C.2   121  ARG121      0.2260
     65  O         59.8110   29.7660   44.5380 O.2   121  ARG121     -0.2867
     66  CB        57.4120   30.9930   42.9320 C.3   121  ARG121      0.0307
     67  CG        56.3170   30.8560   41.8950 C.3   121  ARG121      0.0489
     68  CD        55.0140   31.4620   42.4050 C.3   121  ARG121      0.2205
     69  NE        54.9140   32.9250   42.2690 N.pl3 121  ARG121     -0.0865
     70  CZ        54.4690   33.5510   41.1800 C.cat 121  ARG121      0.5346
     71  NH1       54.1760   32.8600   40.0900 N.pl3 121  ARG121      0.1354
     72  NH2       54.3730   34.8750   41.1560 N.pl3 121  ARG121      0.1354
     73  N         55.6090   42.5100   46.4840 N.3   139  ARG139     -0.1245
     74  CA        54.5680   42.3390   45.4860 C.3   139  ARG139      0.1563
     75  C         54.2050   40.8780   45.3450 C.2   139  ARG139      0.2260
     76  O         55.0810   40.0040   45.3900 O.2   139  ARG139     -0.2867
     77  CB        55.0410   42.8700   44.1300 C.3   139  ARG139      0.0307
     78  CG        54.0490   42.7240   43.0140 C.3   139  ARG139      0.0489
     79  CD        54.2900   41.4570   42.2370 C.3   139  ARG139      0.2205
     80  NE        53.3860   41.3130   41.1100 N.pl3 139  ARG139     -0.0865
     81  CZ        53.3990   40.2720   40.2890 C.cat 139  ARG139      0.5346
     82  NH1       54.2440   39.2630   40.5020 N.pl3 139  ARG139      0.1354
     83  NH2       52.5420   40.2070   39.2870 N.pl3 139  ARG139      0.1354
     84  N         51.2500   38.7170   42.5990 N.3   141  PRO141     -0.2116
     85  CA        50.2480   38.8780   41.5390 C.3   141  PRO141      0.1372
     86  C         48.8530   38.9770   42.1420 C.2   141  PRO141      0.2244
     87  O         48.6960   38.8810   43.3610 O.2   141  PRO141     -0.2868
     88  CB        50.4040   37.6090   40.7000 C.3   141  PRO141      0.0268
     89  CG        51.0470   36.6050   41.6120 C.3   141  PRO141      0.0207
     90  CD        51.9250   37.4050   42.5430 C.3   141  PRO141      0.0892
     91  N         46.4140   37.3160   43.1240 N.3   143  VAL143     -0.1245
     92  CA        46.1220   35.9500   43.5210 C.3   143  VAL143      0.1561
     93  C         45.8430   35.9830   45.0120 C.2   143  VAL143      0.2260
     94  O         46.7490   36.1170   45.8200 O.2   143  VAL143     -0.2867
     95  CB        47.3450   35.0490   43.2170 C.3   143  VAL143      0.0252
     96  CG1       47.1050   33.6310   43.6650 C.3   143  VAL143      0.0019
     97  CG2       47.6810   35.0820   41.7230 C.3   143  VAL143      0.0019
     98  N         52.2770   42.5360   36.7550 N.3   161  PHE161     -0.1241
     99  CA        53.6750   42.1500   36.5930 C.3   161  PHE161      0.1605
    100  C         54.5460   43.2520   35.9950 C.2   161  PHE161      0.2264
    101  O         55.6750   43.4790   36.4430 O.2   161  PHE161     -0.2867
    102  CB        53.7490   40.8990   35.7180 C.3   161  PHE161      0.0534
    103  CG        55.1380   40.3690   35.5590 C.ar  161  PHE161     -0.0203
    104  CD1       55.6890   39.5400   36.5220 C.ar  161  PHE161     -0.0042
    105  CD2       55.8980   40.7170   34.4570 C.ar  161  PHE161     -0.0042
    106  CE1       56.9920   39.0450   36.3760 C.ar  161  PHE161     -0.0003
    107  CE2       57.1820   40.2300   34.3160 C.ar  161  PHE161     -0.0003
    108  CZ        57.7280   39.3960   35.2730 C.ar  161  PHE161     -0.0000
    109  N         58.7760   34.9080   42.1410 N.3   178  ASN178     -0.1240
    110  CA        58.5120   34.4160   40.7950 C.3   178  ASN178      0.1653
    111  C         59.5320   33.3630   40.4630 C.2   178  ASN178      0.2266
    112  O         60.5480   33.2810   41.1250 O.2   178  ASN178     -0.2867
    113  CB        58.6090   35.5650   39.7840 C.3   178  ASN178      0.1155
    114  CG        57.2560   35.9990   39.2730 C.2   178  ASN178      0.2627
    115  OD1       56.4920   35.1750   38.7550 O.2   178  ASN178     -0.2716
    116  ND2       56.9410   37.2740   39.4190 N.am  178  ASN178     -0.0877
    117  N         61.1650   34.2630   35.0110 N.3   182  LEU182     -0.1245
    118  CA        60.5660   35.5860   34.9820 C.3   182  LEU182      0.1561
    119  C         61.4250   36.6280   35.6720 C.2   182  LEU182      0.2260
    120  O         61.4230   37.7770   35.2790 O.2   182  LEU182     -0.2867
    121  CB        59.1500   35.5670   35.5640 C.3   182  LEU182      0.0270
    122  CG        58.1100   34.7910   34.7560 C.3   182  LEU182      0.0019
    123  CD1       56.7060   35.0420   35.2970 C.3   182  LEU182      0.0001
    124  CD2       58.1310   35.1340   33.2920 C.3   182  LEU182      0.0001
    125  N         50.5600   26.8910   34.1430 N.3   205  ILE205     -0.1245
    126  CA        49.8220   28.0300   33.6290 C.3   205  ILE205      0.1561
    127  C         49.2010   27.5870   32.3130 C.2   205  ILE205      0.2260
    128  O         49.6530   26.6240   31.7010 O.2   205  ILE205     -0.2867
    129  CB        50.7740   29.2420   33.4250 C.3   205  ILE205      0.0252
    130  CG1       50.0120   30.5470   33.2520 C.3   205  ILE205      0.0019
    131  CG2       51.7300   29.0170   32.2430 C.3   205  ILE205      0.0019
    132  CD1       50.8240   31.7850   33.5930 C.3   205  ILE205      0.0001
@<TRIPOS>BOND
     1    12    11    2
     2    11    10    1
     3    10     9    1
     4    10    13    1
     5    13    14    1
     6    14    15   ar
     7    14    16   ar
     8    15    17   ar
     9     1     2    1
    10     3     2    1
    11     3     4    2
    12     2     5    1
    13    16    19   ar
    14    16    18   ar
    15    19    21   ar
    16    17    18   ar
    17    18    20   ar
    18     5     6    1
    19   128   127    2
    20    21    22   ar
    21   131   129    1
    22   127   126    1
    23     6     7    1
    24     6     8    1
    25    26    25    2
    26    20    22   ar
    27    23    24    1
    28    24    25    1
    29    24    27    1
    30   130   129    1
    31   130   132    1
    32   124   122    1
    33   129   126    1
    34   126   125    1
    35    27    28    1
    36    28    29    1
    37   107   105   ar
    38   107   108   ar
    39   105   103   ar
    40    32    33    1
    41    29    31   ar
    42    29    30   ar
    43   122   123    1
    44   122   121    1
    45   118   117    1
    46   118   121    1
    47   118   119    1
    48    56    57    1
    49    56    55    1
    50    51    52    1
    51   108   106   ar
    52   120   119    2
    53    52    55    1
    54    52    53    1
    55    33    34    1
    56   103   102    1
    57   103   104   ar
    58    57    58    1
    59   102    99    1
    60    58    59    2
    61   100   101    2
    62   100    99    1
    63   106   104   ar
    64    59    60    1
    65    59    61    1
    66    53    54    2
    67    99    98    1
    68    35    34    2
    69    34    36   am
    70    36    37    1
    71    49    50    1
    72    49    46    1
    73    47    48    2
    74    47    46    1
    75    45    46    1
    76    45    38   am
    77    43    42   ar
    78   115   114    2
    79    37    38    1
    80    37    40    1
    81   114   116   am
    82   114   113    1
    83    83    81    1
    84    38    39    2
    85    42    44   ar
    86    42    41    1
    87   113   110    1
    88    71    70    1
    89    40    41    1
    90    81    82    1
    91    81    80    2
    92   111   110    1
    93   111   112    2
    94    88    85    1
    95    88    89    1
    96   110   109    1
    97    80    79    1
    98    72    70    1
    99    70    69    2
   100    85    86    1
   101    85    84    1
   102    89    90    1
   103    97    95    1
   104    67    68    1
   105    67    66    1
   106    62    63    1
   107    86    87    2
   108    79    78    1
   109    69    68    1
   110    63    66    1
   111    63    64    1
   112    90    84    1
   113    78    77    1
   114    91    92    1
   115    95    92    1
   116    95    96    1
   117    92    93    1
   118    64    65    2
   119    77    74    1
   120    93    94    2
   121    75    76    2
   122    75    74    1
   123    74    73    1
