@<TRIPOS>MOLECULE
tmp/4pceA00.pdb
 125 122 0 0 0
SMALL
GASTEIGER

@<TRIPOS>ATOM
      1  N          4.1260    0.3550   -1.0740 N.3    40  TRP40      -0.1228
      2  CA         3.8950    1.6970   -1.6130 C.3    40  TRP40       0.1722
      3  C          5.1570    2.5740   -1.8140 C.2    40  TRP40       0.2437
      4  O          5.2220    3.2890   -2.8120 O.2    40  TRP40      -0.2733
      5  CB         2.8440    2.4410   -0.7660 C.3    40  TRP40       0.0563
      6  CG         3.1460    2.5680    0.6980 C.ar   40  TRP40       0.0003
      7  CD1        2.8520    1.6620    1.6760 C.ar   40  TRP40       0.0946
      8  CD2        3.7720    3.6790    1.3530 C.ar   40  TRP40       0.0152
      9  NE1        3.2810    2.1310    2.8950 N.ar   40  TRP40      -0.2442
     10  CE2        3.8470    3.3660    2.7260 C.ar   40  TRP40       0.0810
     11  CE3        4.2940    4.8960    0.9100 C.ar   40  TRP40       0.0012
     12  CZ2        4.4140    4.2320    3.6600 C.ar   40  TRP40       0.0191
     13  CZ3        4.8590    5.7540    1.8410 C.ar   40  TRP40       0.0001
     14  CH2        4.9070    5.4210    3.1990 C.ar   40  TRP40       0.0015
     15  N          6.1720    2.5140   -0.9180 N.am   41  PRO41      -0.2718
     16  CA         7.3320    3.3740   -1.2040 C.3    41  PRO41       0.1535
     17  C          8.1450    2.9360   -2.4160 C.2    41  PRO41       0.2598
     18  O          8.9940    3.6980   -2.8850 O.2    41  PRO41      -0.2715
     19  CB         8.1860    3.2520    0.0600 C.3    41  PRO41       0.0310
     20  CG         7.2880    2.6720    1.0940 C.3    41  PRO41       0.0237
     21  CD         6.3470    1.7910    0.3550 C.3    41  PRO41       0.0939
     22  N          7.8880    1.7230   -2.9000 N.am   42  PHE42      -0.1974
     23  CA         8.6640    1.1110   -3.9660 C.3    42  PHE42       0.1639
     24  C          7.8830    1.0250   -5.2760 C.2    42  PHE42       0.2290
     25  O          8.3680    0.4420   -6.2450 O.2    42  PHE42      -0.2864
     26  CB         9.1230   -0.2830   -3.5300 C.3    42  PHE42       0.0560
     27  CG         9.9210   -0.2750   -2.2510 C.ar   42  PHE42      -0.0200
     28  CD1       11.2590    0.0930   -2.2660 C.ar   42  PHE42      -0.0042
     29  CD2        9.3320   -0.5890   -1.0320 C.ar   42  PHE42      -0.0042
     30  CE1       12.0060    0.1210   -1.1000 C.ar   42  PHE42      -0.0003
     31  CE2       10.0820   -0.5650    0.1420 C.ar   42  PHE42      -0.0003
     32  CZ        11.4110   -0.2010    0.1030 C.ar   42  PHE42      -0.0000
     33  N         12.1880    6.7110   -6.7650 N.3    46  VAL46      -0.1245
     34  CA        12.4000    7.5670   -5.6070 C.3    46  VAL46       0.1561
     35  C         12.3270    9.0260   -6.0510 C.2    46  VAL46       0.2260
     36  O         13.0860    9.4670   -6.9150 O.2    46  VAL46      -0.2867
     37  CB        13.7490    7.2730   -4.9280 C.3    46  VAL46       0.0252
     38  CG1       14.0080    8.2660   -3.8090 C.3    46  VAL46       0.0019
     39  CG2       13.7730    5.8470   -4.3950 C.3    46  VAL46       0.0019
     40  N         10.5940   13.8850   -1.3450 N.3    51  LEU51      -0.1245
     41  CA        11.0190   13.2600   -0.0960 C.3    51  LEU51       0.1561
     42  C         12.1550   14.0130    0.5960 C.2    51  LEU51       0.2260
     43  O         12.6090   13.6010    1.6600 O.2    51  LEU51      -0.2867
     44  CB        11.4420   11.8120   -0.3530 C.3    51  LEU51       0.0270
     45  CG        10.3120   10.8650   -0.7570 C.3    51  LEU51       0.0019
     46  CD1       10.8810    9.5320   -1.2320 C.3    51  LEU51       0.0001
     47  CD2        9.3360   10.6660    0.3930 C.3    51  LEU51       0.0001
     48  N         15.3810   14.3400   -0.2030 N.3    53  LEU53      -0.1245
     49  CA        16.5720   13.5070   -0.1400 C.3    53  LEU53       0.1561
     50  C         17.5570   13.9760   -1.2050 C.2    53  LEU53       0.2260
     51  O         17.8040   13.2660   -2.1790 O.2    53  LEU53      -0.2867
     52  CB        16.2100   12.0420   -0.3660 C.3    53  LEU53       0.0270
     53  CG        15.1160   11.4430    0.5130 C.3    53  LEU53       0.0019
     54  CD1       14.8190   10.0150    0.0800 C.3    53  LEU53       0.0001
     55  CD2       15.5360   11.5010    1.9750 C.3    53  LEU53       0.0001
     56  N         20.2060   11.5690   -2.5440 N.3    56  TYR56      -0.1241
     57  CA        19.8480   10.2050   -2.9410 C.3    56  TYR56       0.1605
     58  C         20.5500    9.7860   -4.2280 C.2    56  TYR56       0.2264
     59  O         21.1470    8.7130   -4.2920 O.2    56  TYR56      -0.2867
     60  CB        18.3260   10.0390   -3.0960 C.3    56  TYR56       0.0534
     61  CG        17.9630    8.5960   -3.3650 C.ar   56  TYR56      -0.0201
     62  CD1       17.8520    7.6780   -2.3200 C.ar   56  TYR56      -0.0009
     63  CD2       17.7910    8.1330   -4.6630 C.ar   56  TYR56      -0.0009
     64  CE1       17.5610    6.3480   -2.5640 C.ar   56  TYR56       0.0417
     65  CE2       17.4960    6.8060   -4.9160 C.ar   56  TYR56       0.0417
     66  CZ        17.3840    5.9190   -3.8670 C.ar   56  TYR56       0.1957
     67  OH        17.1090    4.5990   -4.1400 O.3    56  TYR56      -0.2866
     68  N         18.1450    0.3350   -1.4050 N.3    95  CYS95      -0.1235
     69  CA        17.5330    0.7020   -0.1440 C.3    95  CYS95       0.1677
     70  C         18.4950    0.4430    1.0220 C.2    95  CYS95       0.2270
     71  O         18.6520    1.2810    1.9180 O.2    95  CYS95      -0.2867
     72  CB        16.2200   -0.0550    0.0330 C.3    95  CYS95       0.0956
     73  SG        15.2990    0.3810    1.4960 S.3    95  CYS95      -0.0801
     74  N         21.4740    3.0690    0.8690 N.3    98  TYR98      -0.1227
     75  CA        21.1610    4.4410    1.2270 C.3    98  TYR98       0.1736
     76  C         20.7710    4.6020    2.6980 C.2    98  TYR98       0.2595
     77  O         21.0790    5.6190    3.3100 O.2    98  TYR98      -0.2718
     78  CB        20.0450    4.9790    0.3270 C.3    98  TYR98       0.0548
     79  CG        19.7610    6.4320    0.5920 C.ar   98  TYR98      -0.0200
     80  CD1       20.6580    7.4150    0.1780 C.ar   98  TYR98      -0.0009
     81  CD2       18.6250    6.8240    1.2830 C.ar   98  TYR98      -0.0009
     82  CE1       20.4220    8.7550    0.4430 C.ar   98  TYR98       0.0417
     83  CE2       18.3850    8.1600    1.5540 C.ar   98  TYR98       0.0417
     84  CZ        19.2770    9.1180    1.1270 C.ar   98  TYR98       0.1957
     85  OH        19.0260   10.4380    1.4040 O.3    98  TYR98      -0.2866
     86  N         20.0900    3.6100    3.2630 N.am   99  ASN99      -0.1974
     87  CA        19.5050    3.7530    4.5920 C.3    99  ASN99       0.1688
     88  C         20.2640    2.9820    5.6720 C.2    99  ASN99       0.2292
     89  O         21.3230    2.4330    5.4130 O.2    99  ASN99      -0.2864
     90  CB        18.0430    3.3260    4.5280 C.3    99  ASN99       0.1181
     91  CG        17.2480    4.1740    3.5650 C.2    99  ASN99       0.2629
     92  OD1       16.8870    5.3080    3.8840 O.2    99  ASN99      -0.2716
     93  ND2       16.9740    3.6380    2.3770 N.am   99  ASN99      -0.0877
     94  N         15.8670    0.9160   10.0450 N.3   103  ASP103     -0.1225
     95  CA        15.0110    2.0040    9.5700 C.3   103  ASP103      0.1805
     96  C         13.7100    1.4170    9.0490 C.2   103  ASP103      0.2598
     97  O         13.7040    0.3080    8.5150 O.2   103  ASP103     -0.2718
     98  CB        15.6710    2.8110    8.4490 C.3   103  ASP103      0.1424
     99  CG        16.7520    3.7560    8.9430 C.2   103  ASP103      0.3668
    100  OD1       16.9330    3.9030   10.1750 O.co2 103  ASP103     -0.2456
    101  OD2       17.4190    4.3640    8.0750 O.co2 103  ASP103     -0.2456
    102  N         12.6160    2.1590    9.1790 N.am  104  ASP104     -0.1960
    103  CA        11.3300    1.6950    8.6710 C.3   104  ASP104      0.1840
    104  C         11.4300    1.2240    7.2220 C.2   104  ASP104      0.2621
    105  O         10.9260    0.1510    6.8880 O.2   104  ASP104     -0.2715
    106  CB        10.2680    2.7920    8.7740 C.3   104  ASP104      0.1450
    107  CG         9.6640    2.9020   10.1600 C.2   104  ASP104      0.3671
    108  OD1        9.7990    1.9500   10.9580 O.co2 104  ASP104     -0.2456
    109  OD2        9.0360    3.9430   10.4400 O.co2 104  ASP104     -0.2456
    110  N         12.0860    2.0050    6.3650 N.am  105  ILE105     -0.1977
    111  CA        12.1140    1.6610    4.9490 C.3   105  ILE105      0.1596
    112  C         12.9150    0.3740    4.7170 C.2   105  ILE105      0.2287
    113  O         12.6030   -0.4000    3.8110 O.2   105  ILE105     -0.2864
    114  CB        12.6760    2.8290    4.1000 C.3   105  ILE105      0.0276
    115  CG1       12.4030    2.5930    2.6150 C.3   105  ILE105      0.0022
    116  CG2       14.1610    3.0540    4.3560 C.3   105  ILE105      0.0022
    117  CD1       10.9370    2.5250    2.2650 C.3   105  ILE105      0.0001
    118  N         10.7550   -2.5270    5.6390 N.3   108  MET108     -0.1245
    119  CA         9.8070   -2.7290    4.5500 C.3   108  MET108      0.1570
    120  C         10.4510   -3.5030    3.4050 C.2   108  MET108      0.2261
    121  O          9.8930   -4.4920    2.9160 O.2   108  MET108     -0.2867
    122  CB         9.2710   -1.3820    4.0770 C.3   108  MET108      0.0387
    123  CG         8.4360   -0.7090    5.1480 C.3   108  MET108      0.0595
    124  SD         8.0380    1.0160    4.8300 S.3   108  MET108     -0.1393
    125  CE         6.5150    0.7650    3.9460 C.3   108  MET108      0.0692
@<TRIPOS>BOND
     1    36    35    2
     2    33    34    1
     3    25    24    2
     4    35    34    1
     5    34    37    1
     6    24    23    1
     7    37    39    1
     8    37    38    1
     9    65    63   ar
    10    65    66   ar
    11    63    61   ar
    12    59    58    2
    13    58    57    1
    14    67    66    1
    15    23    26    1
    16    23    22    1
    17    66    64   ar
    18    26    27    1
    19    61    60    1
    20    61    62   ar
    21    60    57    1
    22    57    56    1
    23    22    17   am
    24    18    17    2
    25     4     3    2
    26    64    62   ar
    27    17    16    1
    28    28    27   ar
    29    28    30   ar
    30    27    29   ar
    31    51    50    2
    32     3     2    1
    33     3    15   am
    34     2     1    1
    35     2     5    1
    36    68    69    1
    37    40    41    1
    38    46    45    1
    39    50    49    1
    40    16    15    1
    41    16    19    1
    42    30    32   ar
    43    29    31   ar
    44    15    21    1
    45     5     6    1
    46    45    44    1
    47    45    47    1
    48    52    49    1
    49    52    53    1
    50    44    41    1
    51    48    49    1
    52    69    72    1
    53    69    70    1
    54    41    42    1
    55    72    73    1
    56    19    20    1
    57    54    53    1
    58    32    31   ar
    59    80    82   ar
    60    80    79   ar
    61    78    79    1
    62    78    75    1
    63    21    20    1
    64    82    84   ar
    65    53    55    1
    66    79    81   ar
    67    42    43    2
    68     6     8   ar
    69     6     7   ar
    70    74    75    1
    71    11     8   ar
    72    11    13   ar
    73    70    71    2
    74    84    85    1
    75    84    83   ar
    76    75    76    1
    77    81    83   ar
    78     8    10   ar
    79     7     9   ar
    80    13    14   ar
    81   117   115    1
    82    93    91   am
    83   115   114    1
    84    76    86   am
    85    76    77    2
    86    10     9   ar
    87    10    12   ar
    88   121   120    2
    89    14    12   ar
    90    86    87    1
    91   120   119    1
    92    91    92    2
    93    91    90    1
    94   113   112    2
    95   125   124    1
    96   122   119    1
    97   122   123    1
    98   114   116    1
    99   114   111    1
   100    90    87    1
   101   119   118    1
   102    87    88    1
   103   112   111    1
   104   124   123    1
   105   111   110    1
   106    89    88    2
   107   110   104   am
   108   105   104    2
   109   104   103    1
   110   101    99   ar
   111    98    99    1
   112    98    95    1
   113    97    96    2
   114   103   106    1
   115   103   102    1
   116   106   107    1
   117    99   100   ar
   118    96   102   am
   119    96    95    1
   120    95    94    1
   121   107   109   ar
   122   107   108   ar
