@<TRIPOS>MOLECULE
tmp/4pciA00.pdb
 118 115 0 0 0
SMALL
GASTEIGER

@<TRIPOS>ATOM
      1  N          4.0690    0.3370   -1.0710 N.3    40  TRP40      -0.1228
      2  CA         3.8950    1.6870   -1.6150 C.3    40  TRP40       0.1722
      3  C          5.1850    2.5120   -1.8350 C.2    40  TRP40       0.2437
      4  O          5.2630    3.2040   -2.8430 O.2    40  TRP40      -0.2733
      5  CB         2.8740    2.4860   -0.7710 C.3    40  TRP40       0.0563
      6  CG         3.2430    2.7380    0.6540 C.ar   40  TRP40       0.0003
      7  CD1        2.9440    1.9450    1.7270 C.ar   40  TRP40       0.0946
      8  CD2        3.9740    3.8530    1.1710 C.ar   40  TRP40       0.0152
      9  NE1        3.4600    2.4900    2.8780 N.ar   40  TRP40      -0.2442
     10  CE2        4.0940    3.6620    2.5660 C.ar   40  TRP40       0.0810
     11  CE3        4.5540    4.9850    0.5910 C.ar   40  TRP40       0.0012
     12  CZ2        4.7590    4.5670    3.3850 C.ar   40  TRP40       0.0191
     13  CZ3        5.2180    5.8800    1.4100 C.ar   40  TRP40       0.0001
     14  CH2        5.3150    5.6610    2.7900 C.ar   40  TRP40       0.0015
     15  N          6.2070    2.4370   -0.9490 N.am   41  PRO41      -0.2718
     16  CA         7.4000    3.2500   -1.2530 C.3    41  PRO41       0.1535
     17  C          8.1430    2.8020   -2.5010 C.2    41  PRO41       0.2598
     18  O          8.9630    3.5590   -3.0280 O.2    41  PRO41      -0.2715
     19  CB         8.2960    3.0510   -0.0270 C.3    41  PRO41       0.0310
     20  CG         7.3770    2.5950    1.0450 C.3    41  PRO41       0.0237
     21  CD         6.3540    1.7500    0.3460 C.3    41  PRO41       0.0939
     22  N          7.8690    1.5750   -2.9410 N.am   42  PHE42      -0.1974
     23  CA         8.5950    0.9390   -4.0230 C.3    42  PHE42       0.1639
     24  C          7.7850    0.8830   -5.3190 C.2    42  PHE42       0.2290
     25  O          8.2440    0.3310   -6.3110 O.2    42  PHE42      -0.2864
     26  CB         9.0130   -0.4710   -3.5760 C.3    42  PHE42       0.0560
     27  CG         9.8070   -0.4650   -2.3020 C.ar   42  PHE42      -0.0200
     28  CD1       11.1440   -0.0890   -2.3070 C.ar   42  PHE42      -0.0042
     29  CD2        9.2080   -0.7780   -1.0870 C.ar   42  PHE42      -0.0042
     30  CE1       11.8820   -0.0490   -1.1290 C.ar   42  PHE42      -0.0003
     31  CE2        9.9420   -0.7460    0.0940 C.ar   42  PHE42      -0.0003
     32  CZ        11.2750   -0.3750    0.0730 C.ar   42  PHE42      -0.0000
     33  N          6.9760    3.2840   -7.3370 N.3    44  GLN44      -0.1245
     34  CA         7.3530    4.3160   -8.3010 C.3    44  GLN44       0.1566
     35  C          8.7570    4.7700   -7.9310 C.2    44  GLN44       0.2260
     36  O          9.2140    4.5010   -6.8170 O.2    44  GLN44      -0.2867
     37  CB         6.3550    5.4850   -8.2810 C.3    44  GLN44       0.0367
     38  CG         6.2320    6.1910   -6.9350 C.3    44  GLN44       0.0905
     39  CD         5.4350    5.3800   -5.9200 C.2    44  GLN44       0.2608
     40  OE1        4.3300    4.9170   -6.2040 O.2    44  GLN44      -0.2717
     41  NE2        6.0020    5.1960   -4.7380 N.am   44  GLN44      -0.0878
     42  N         11.8960    6.7640   -6.5170 N.3    46  VAL46      -0.1231
     43  CA        12.0560    7.6370   -5.3650 C.3    46  VAL46       0.1692
     44  C         11.9750    9.0990   -5.8280 C.2    46  VAL46       0.2592
     45  O         12.7570    9.5350   -6.6740 O.2    46  VAL46      -0.2718
     46  CB        13.3880    7.3730   -4.6470 C.3    46  VAL46       0.0266
     47  CG1       13.6320    8.4280   -3.5880 C.3    46  VAL46       0.0020
     48  CG2       13.3920    5.9780   -4.0300 C.3    46  VAL46       0.0020
     49  N         10.9950    9.8290   -5.3050 N.am   47  ASP47      -0.1974
     50  CA        10.8510   11.2530   -5.5840 C.3    47  ASP47       0.1709
     51  C         11.6750   12.0290   -4.5750 C.2    47  ASP47       0.2293
     52  O         11.1870   12.3920   -3.4930 O.2    47  ASP47      -0.2864
     53  CB         9.3840   11.6870   -5.5280 C.3    47  ASP47       0.1436
     54  CG         9.1720   13.1030   -6.0410 C.2    47  ASP47       0.3671
     55  OD1       10.1300   13.9100   -6.0270 O.co2  47  ASP47      -0.2456
     56  OD2        8.0370   13.4130   -6.4550 O.co2  47  ASP47      -0.2456
     57  N         10.4510   14.1320   -1.1720 N.3    51  LEU51      -0.1245
     58  CA        10.9230   13.5640    0.0890 C.3    51  LEU51       0.1561
     59  C         12.0230   14.3960    0.7390 C.2    51  LEU51       0.2260
     60  O         12.4850   14.0720    1.8330 O.2    51  LEU51      -0.2867
     61  CB        11.4320   12.1400   -0.1420 C.3    51  LEU51       0.0270
     62  CG        10.3860   11.0860   -0.4760 C.3    51  LEU51       0.0019
     63  CD1       11.0740    9.8100   -0.9240 C.3    51  LEU51       0.0001
     64  CD2        9.5030   10.8290    0.7350 C.3    51  LEU51       0.0001
     65  N         15.2060   14.7310   -0.1910 N.3    53  LEU53      -0.1245
     66  CA        16.4220   13.9310   -0.1160 C.3    53  LEU53       0.1561
     67  C         17.3780   14.3350   -1.2330 C.2    53  LEU53       0.2260
     68  O         17.5830   13.5850   -2.1780 O.2    53  LEU53      -0.2867
     69  CB        16.0930   12.4390   -0.2170 C.3    53  LEU53       0.0270
     70  CG        15.1830   11.8570    0.8590 C.3    53  LEU53       0.0019
     71  CD1       14.9320   10.3920    0.5550 C.3    53  LEU53       0.0001
     72  CD2       15.8000   12.0250    2.2430 C.3    53  LEU53       0.0001
     73  N         19.9260   11.7160   -2.4180 N.3    56  TYR56      -0.1241
     74  CA        19.5390   10.3480   -2.7750 C.3    56  TYR56       0.1605
     75  C         20.2180    9.9040   -4.0660 C.2    56  TYR56       0.2264
     76  O         20.8260    8.8340   -4.1120 O.2    56  TYR56      -0.2867
     77  CB        18.0200   10.1920   -2.9100 C.3    56  TYR56       0.0534
     78  CG        17.6440    8.7420   -3.1690 C.ar   56  TYR56      -0.0201
     79  CD1       17.5110    7.8360   -2.1160 C.ar   56  TYR56      -0.0009
     80  CD2       17.4770    8.2630   -4.4660 C.ar   56  TYR56      -0.0009
     81  CE1       17.2110    6.4960   -2.3460 C.ar   56  TYR56       0.0417
     82  CE2       17.1730    6.9310   -4.7050 C.ar   56  TYR56       0.0417
     83  CZ        17.0460    6.0590   -3.6440 C.ar   56  TYR56       0.1957
     84  OH        16.7570    4.7390   -3.8980 O.3    56  TYR56      -0.2866
     85  N         17.9190    0.3330   -1.3740 N.3    95  CYS95      -0.1235
     86  CA        17.2870    0.6730   -0.1130 C.3    95  CYS95       0.1677
     87  C         18.2440    0.4640    1.0640 C.2    95  CYS95       0.2270
     88  O         18.3740    1.3260    1.9390 O.2    95  CYS95      -0.2867
     89  CB        16.0190   -0.1460    0.0630 C.3    95  CYS95       0.0956
     90  SG        15.0980    0.2400    1.5350 S.3    95  CYS95      -0.0801
     91  N         21.1760    3.1650    0.9210 N.3    98  TYR98      -0.1227
     92  CA        20.8620    4.5410    1.2690 C.3    98  TYR98       0.1736
     93  C         20.4480    4.7030    2.7320 C.2    98  TYR98       0.2595
     94  O         20.8180    5.6810    3.3770 O.2    98  TYR98      -0.2718
     95  CB        19.7590    5.0980    0.3550 C.3    98  TYR98       0.0548
     96  CG        19.4950    6.5450    0.6780 C.ar   98  TYR98      -0.0200
     97  CD1       20.3770    7.5350    0.2640 C.ar   98  TYR98      -0.0009
     98  CD2       18.3940    6.9230    1.4400 C.ar   98  TYR98      -0.0009
     99  CE1       20.1680    8.8600    0.5940 C.ar   98  TYR98       0.0417
    100  CE2       18.1790    8.2400    1.7740 C.ar   98  TYR98       0.0417
    101  CZ        19.0630    9.2030    1.3430 C.ar   98  TYR98       0.1957
    102  OH        18.8380   10.5160    1.6860 O.3    98  TYR98      -0.2866
    103  N         19.6840    3.7500    3.2540 N.am   99  ASN99      -0.1974
    104  CA        19.0460    3.9050    4.5540 C.3    99  ASN99       0.1688
    105  C         19.8240    3.2230    5.6800 C.2    99  ASN99       0.2292
    106  O         20.8580    2.6090    5.4460 O.2    99  ASN99      -0.2864
    107  CB        17.6150    3.3860    4.4590 C.3    99  ASN99       0.1181
    108  CG        16.7940    4.1800    3.4690 C.2    99  ASN99       0.2629
    109  OD1       16.3560    5.2860    3.7750 O.2    99  ASN99      -0.2716
    110  ND2       16.5700    3.6230    2.2850 N.am   99  ASN99      -0.0877
    111  N         11.8220    1.8430    6.4330 N.3   105  ILE105     -0.1245
    112  CA        11.8920    1.5000    5.0240 C.3   105  ILE105      0.1561
    113  C         12.7000    0.2160    4.8150 C.2   105  ILE105      0.2260
    114  O         12.3940   -0.5660    3.9210 O.2   105  ILE105     -0.2867
    115  CB        12.4840    2.6690    4.2010 C.3   105  ILE105      0.0252
    116  CG1       12.3330    2.4120    2.7020 C.3   105  ILE105      0.0019
    117  CG2       13.9310    2.9510    4.5760 C.3   105  ILE105      0.0019
    118  CD1       10.9090    2.3930    2.2480 C.3   105  ILE105      0.0001
@<TRIPOS>BOND
     1    34    37    1
     2    34    35    1
     3    34    33    1
     4    37    38    1
     5    35    36    2
     6    38    39    1
     7    45    44    2
     8    42    43    1
     9    56    54   ar
    10    25    24    2
    11    40    39    2
    12    54    55   ar
    13    54    53    1
    14    39    41   am
    15    44    43    1
    16    44    49   am
    17    50    53    1
    18    50    49    1
    19    50    51    1
    20    43    46    1
    21    24    23    1
    22    82    80   ar
    23    82    83   ar
    24    46    48    1
    25    46    47    1
    26    51    52    2
    27    80    78   ar
    28    76    75    2
    29    75    74    1
    30    23    26    1
    31    23    22    1
    32    84    83    1
    33    83    81   ar
    34    26    27    1
    35    78    77    1
    36    78    79   ar
    37    18    17    2
    38    22    17   am
    39    77    74    1
    40     4     3    2
    41    74    73    1
    42    17    16    1
    43    81    79   ar
    44    28    27   ar
    45    28    30   ar
    46    27    29   ar
    47    68    67    2
    48     3     2    1
    49     3    15   am
    50     2     1    1
    51     2     5    1
    52    85    86    1
    53    16    15    1
    54    16    19    1
    55    67    66    1
    56    57    58    1
    57    30    32   ar
    58    29    31   ar
    59    15    21    1
    60    63    62    1
    61     5     6    1
    62    62    61    1
    63    62    64    1
    64    69    66    1
    65    69    70    1
    66    65    66    1
    67    61    58    1
    68    86    89    1
    69    86    87    1
    70    19    20    1
    71    89    90    1
    72    32    31   ar
    73    58    59    1
    74    97    99   ar
    75    97    96   ar
    76    21    20    1
    77    95    96    1
    78    95    92    1
    79    71    70    1
    80    11     8   ar
    81    11    13   ar
    82    99   101   ar
    83     6     8   ar
    84     6     7   ar
    85    96    98   ar
    86    59    60    2
    87    70    72    1
    88    91    92    1
    89    87    88    2
    90     8    10   ar
    91    92    93    1
    92   101   102    1
    93   101   100   ar
    94    13    14   ar
    95    98   100   ar
    96     7     9   ar
    97   118   116    1
    98   110   108   am
    99    10     9   ar
   100    10    12   ar
   101   116   115    1
   102    93   103   am
   103    93    94    2
   104    14    12   ar
   105   103   104    1
   106   108   109    2
   107   108   107    1
   108   114   113    2
   109   115   117    1
   110   115   112    1
   111   107   104    1
   112   104   105    1
   113   113   112    1
   114   112   111    1
   115   106   105    2
