@<TRIPOS>MOLECULE
tmp/4pcnB02.pdb
 127 122 0 0 0
SMALL
GASTEIGER

@<TRIPOS>ATOM
      1  N         15.3190  -25.5810  -44.6050 N.3    22  HIS22      -0.1241
      2  CA        14.8390  -25.8970  -43.2510 C.3    22  HIS22       0.1621
      3  C         15.6420  -27.0500  -42.6710 C.2    22  HIS22       0.2264
      4  O         15.3510  -28.2450  -42.8920 O.2    22  HIS22      -0.2867
      5  CB        13.3220  -26.2530  -43.2900 C.3    22  HIS22       0.0745
      6  CG        12.7340  -26.3980  -41.9140 C.ar   22  HIS22       0.0817
      7  ND1       11.6540  -25.6640  -41.4620 N.ar   22  HIS22      -0.2268
      8  CD2       13.1420  -27.1660  -40.8720 C.ar   22  HIS22       0.1154
      9  CE1       11.4170  -25.9950  -40.1920 C.ar   22  HIS22       0.1986
     10  NE2       12.3180  -26.8910  -39.8050 N.ar   22  HIS22      -0.2212
     11  N         18.5450  -28.2360  -39.1420 N.3    24  HIS24      -0.1241
     12  CA        19.0620  -27.9640  -37.7910 C.3    24  HIS24       0.1621
     13  C         20.4060  -28.5940  -37.5880 C.2    24  HIS24       0.2264
     14  O         20.5470  -29.7880  -37.8690 O.2    24  HIS24      -0.2867
     15  CB        18.1430  -28.5520  -36.7430 C.3    24  HIS24       0.0745
     16  CG        16.7250  -28.0730  -36.8190 C.ar   24  HIS24       0.0817
     17  ND1       16.2690  -26.9420  -36.1630 N.ar   24  HIS24      -0.2268
     18  CD2       15.6540  -28.5910  -37.4760 C.ar   24  HIS24       0.1154
     19  CE1       14.9750  -26.7790  -36.4160 C.ar   24  HIS24       0.1986
     20  NE2       14.5780  -27.7790  -37.1990 N.ar   24  HIS24      -0.2212
     21  N         14.7100  -23.3790  -29.0200 N.3    73  LEU73      -0.1245
     22  CA        15.1000  -24.7030  -29.4840 C.3    73  LEU73       0.1561
     23  C         16.6240  -24.8720  -29.2960 C.2    73  LEU73       0.2260
     24  O         17.2050  -25.8360  -29.7490 O.2    73  LEU73      -0.2867
     25  CB        14.6290  -24.9110  -30.9470 C.3    73  LEU73       0.0270
     26  CG        14.8640  -26.3200  -31.5540 C.3    73  LEU73       0.0019
     27  CD1       14.3630  -27.4980  -30.7090 C.3    73  LEU73       0.0001
     28  CD2       14.2670  -26.3960  -32.9770 C.3    73  LEU73       0.0001
     29  N         10.0240  -21.1300  -31.2890 N.3    98  TRP98      -0.1227
     30  CA         9.6170  -22.4730  -31.6830 C.3    98  TRP98       0.1737
     31  C          8.4900  -22.9330  -30.7030 C.2    98  TRP98       0.2595
     32  O          7.7520  -22.0990  -30.2080 O.2    98  TRP98      -0.2718
     33  CB        10.8790  -23.3930  -31.7600 C.3    98  TRP98       0.0564
     34  CG        10.7080  -24.8760  -32.0700 C.ar   98  TRP98       0.0003
     35  CD1       10.4670  -25.4920  -33.2950 C.ar   98  TRP98       0.0946
     36  CD2       10.8030  -25.9350  -31.1040 C.ar   98  TRP98       0.0152
     37  NE1       10.3960  -26.8510  -33.0940 N.ar   98  TRP98      -0.2442
     38  CE2       10.6240  -27.1540  -31.7800 C.ar   98  TRP98       0.0810
     39  CE3       11.0400  -25.9560  -29.7320 C.ar   98  TRP98       0.0012
     40  CZ2       10.6400  -28.4080  -31.1040 C.ar   98  TRP98       0.0191
     41  CZ3       11.0850  -27.1990  -29.0630 C.ar   98  TRP98       0.0001
     42  CH2       10.8830  -28.4010  -29.7550 C.ar   98  TRP98       0.0015
     43  N          8.3940  -24.2340  -30.4490 N.am   99  LEU99      -0.1980
     44  CA         7.2880  -24.8080  -29.6990 C.3    99  LEU99       0.1596
     45  C          7.4900  -24.7930  -28.1760 C.2    99  LEU99       0.2287
     46  O          6.6010  -25.2600  -27.4660 O.2    99  LEU99      -0.2864
     47  CB         7.0770  -26.2490  -30.1170 C.3    99  LEU99       0.0297
     48  CG         6.7470  -26.5170  -31.5830 C.3    99  LEU99       0.0022
     49  CD1        6.8070  -28.0250  -31.8540 C.3    99  LEU99       0.0001
     50  CD2        5.3350  -26.0280  -31.8350 C.3    99  LEU99       0.0001
     51  N          6.3910  -23.3690  -38.6590 N.3   167  HIS167     -0.1241
     52  CA         6.2720  -24.7790  -38.3390 C.3   167  HIS167      0.1621
     53  C          4.8470  -25.0210  -38.1430 C.2   167  HIS167      0.2264
     54  O          4.2800  -24.5200  -37.1990 O.2   167  HIS167     -0.2867
     55  CB         7.0380  -25.1070  -37.0680 C.3   167  HIS167      0.0745
     56  CG         6.8100  -26.4940  -36.5250 C.ar  167  HIS167      0.0817
     57  ND1        7.8000  -27.4540  -36.5270 N.ar  167  HIS167     -0.2268
     58  CD2        5.7660  -27.0380  -35.8580 C.ar  167  HIS167      0.1154
     59  CE1        7.3700  -28.5410  -35.9010 C.ar  167  HIS167      0.1986
     60  NE2        6.1340  -28.3110  -35.4870 N.ar  167  HIS167     -0.2212
     61  N          6.6280  -27.4120  -43.4490 N.3   196  HIS196     -0.1241
     62  CA         6.1550  -28.7540  -43.1630 C.3   196  HIS196      0.1621
     63  C          4.8270  -28.9820  -43.8650 C.2   196  HIS196      0.2264
     64  O          4.0300  -29.7770  -43.3940 O.2   196  HIS196     -0.2867
     65  CB         6.0460  -28.9700  -41.6520 C.3   196  HIS196      0.0745
     66  CG         7.3040  -28.6550  -40.8950 C.ar  196  HIS196      0.0817
     67  ND1        8.5540  -28.6610  -41.4820 N.ar  196  HIS196     -0.2268
     68  CD2        7.4980  -28.3270  -39.5930 C.ar  196  HIS196      0.1154
     69  CE1        9.4700  -28.3680  -40.5700 C.ar  196  HIS196      0.1986
     70  NE2        8.8500  -28.1310  -39.4200 N.ar  196  HIS196     -0.2212
     71  N         10.2550  -31.9400  -44.9390 N.3   220  ARG220     -0.1245
     72  CA        10.5840  -33.0590  -44.0680 C.3   220  ARG220      0.1563
     73  C         10.6500  -34.3310  -44.8690 C.2   220  ARG220      0.2260
     74  O         10.2890  -35.3860  -44.3820 O.2   220  ARG220     -0.2867
     75  CB         9.5670  -33.2090  -42.9190 C.3   220  ARG220      0.0307
     76  CG         9.2860  -31.9120  -42.1770 C.3   220  ARG220      0.0489
     77  CD         8.5710  -32.1950  -40.8890 C.3   220  ARG220      0.2205
     78  NE         9.4780  -32.7610  -39.8750 N.pl3 220  ARG220     -0.0865
     79  CZ         9.2890  -33.8950  -39.2170 C.cat 220  ARG220      0.5346
     80  NH1       10.1650  -34.2620  -38.2970 N.pl3 220  ARG220      0.1354
     81  NH2        8.2210  -34.6360  -39.3830 N.pl3 220  ARG220      0.1354
     82  N          5.4560  -40.8180  -34.0920 N.3   236  ALA236     -0.1231
     83  CA         4.9980  -39.5040  -33.6690 C.3   236  ALA236      0.1694
     84  C          5.8330  -38.3840  -34.2920 C.2   236  ALA236      0.2592
     85  O          5.3200  -37.2950  -34.5490 O.2   236  ALA236     -0.2718
     86  CB         5.0580  -39.3970  -32.1430 C.3   236  ALA236      0.0304
     87  N          7.1200  -38.6460  -34.4990 N.am  237  PHE237     -0.1976
     88  CA         8.0470  -37.6050  -34.9500 C.3   237  PHE237      0.1639
     89  C          8.1370  -37.5800  -36.4710 C.2   237  PHE237      0.2290
     90  O          8.2920  -36.4990  -37.0660 O.2   237  PHE237     -0.2864
     91  CB         9.4170  -37.8900  -34.2900 C.3   237  PHE237      0.0560
     92  CG        10.4440  -36.7810  -34.4110 C.ar  237  PHE237     -0.0200
     93  CD1       11.1570  -36.6050  -35.5800 C.ar  237  PHE237     -0.0042
     94  CD2       10.7450  -35.9500  -33.3130 C.ar  237  PHE237     -0.0042
     95  CE1       12.1270  -35.6070  -35.6890 C.ar  237  PHE237     -0.0003
     96  CE2       11.7310  -34.9350  -33.4150 C.ar  237  PHE237     -0.0003
     97  CZ        12.4280  -34.7720  -34.5990 C.ar  237  PHE237     -0.0000
     98  N         14.5630  -31.0400  -42.8740 N.3   267  ASP267     -0.1239
     99  CA        14.3370  -30.8820  -41.4140 C.3   267  ASP267      0.1674
    100  C         15.1530  -31.9500  -40.6450 C.2   267  ASP267      0.2266
    101  O         14.6830  -32.6700  -39.7630 O.2   267  ASP267     -0.2867
    102  CB        12.8550  -30.9650  -41.0730 C.3   267  ASP267      0.1410
    103  CG        12.5300  -30.3920  -39.6800 C.2   267  ASP267      0.3668
    104  OD1       13.3400  -29.6030  -39.1160 O.co2 267  ASP267     -0.2456
    105  OD2       11.4420  -30.7730  -39.1890 O.co2 267  ASP267     -0.2456
    106  N         18.6720  -33.1230  -38.3650 N.3   269  LEU269     -0.1245
    107  CA        19.3830  -32.7270  -37.1380 C.3   269  LEU269      0.1561
    108  C         20.6090  -33.6220  -36.9850 C.2   269  LEU269      0.2260
    109  O         20.5560  -34.8070  -37.3650 O.2   269  LEU269     -0.2867
    110  CB        18.4860  -32.8910  -35.9040 C.3   269  LEU269      0.0270
    111  CG        17.1110  -32.1800  -35.8430 C.3   269  LEU269      0.0019
    112  CD1       15.9420  -33.1770  -35.7770 C.3   269  LEU269      0.0001
    113  CD2       17.0210  -31.2190  -34.6490 C.3   269  LEU269      0.0001
    114  N         19.8210  -34.2230  -31.0300 N.3   272  ILE272     -0.1245
    115  CA        18.5440  -33.7270  -30.5050 C.3   272  ILE272      0.1561
    116  C         18.3680  -34.1480  -29.0630 C.2   272  ILE272      0.2260
    117  O         18.6130  -35.3070  -28.7040 O.2   272  ILE272     -0.2867
    118  CB        17.3550  -34.1930  -31.4000 C.3   272  ILE272      0.0252
    119  CG1       16.0580  -33.6220  -30.8460 C.3   272  ILE272      0.0019
    120  CG2       17.2640  -35.7110  -31.5020 C.3   272  ILE272      0.0019
    121  CD1       14.8470  -33.8690  -31.7550 C.3   272  ILE272      0.0001
    122  N         15.6060  -32.4340  -27.3710 N.3   274  SER274     -0.1217
    123  CA        14.2700  -31.9520  -27.0700 C.3   274  SER274      0.1889
    124  C         13.2220  -33.0510  -27.1430 C.2   274  SER274      0.2288
    125  O         12.0420  -32.7760  -26.9090 O.2   274  SER274     -0.2866
    126  CB        13.8830  -30.8340  -28.0330 C.3   274  SER274      0.2089
    127  OG        14.2900  -31.1490  -29.3230 O.3   274  SER274     -0.2183
@<TRIPOS>BOND
     1    71    72    1
     2    73    74    2
     3    73    72    1
     4     1     2    1
     5    72    75    1
     6    63    64    2
     7    63    62    1
     8    61    62    1
     9     5     2    1
    10     5     6    1
    11     2     3    1
    12    62    65    1
    13    75    76    1
    14     4     3    2
    15    98    99    1
    16    76    77    1
    17     6     7   ar
    18     6     8   ar
    19    65    66    1
    20    67    66   ar
    21    67    69   ar
    22     7     9   ar
    23    99   102    1
    24    99   100    1
    25   102   103    1
    26    66    68   ar
    27    77    78    1
    28     8    10   ar
    29   100   101    2
    30    69    70   ar
    31     9    10   ar
    32    78    79    2
    33   103   105   ar
    34   103   104   ar
    35    68    70   ar
    36    81    79    1
    37    79    80    1
    38    11    12    1
    39    51    52    1
    40   106   107    1
    41    52    53    1
    42    52    55    1
    43    53    54    2
    44    14    13    2
    45    12    13    1
    46    12    15    1
    47    18    20   ar
    48    18    16   ar
    49   109   108    2
    50    20    19   ar
    51   107   108    1
    52   107   110    1
    53    55    56    1
    54    90    89    2
    55    16    15    1
    56    16    17   ar
    57    57    56   ar
    58    57    59   ar
    59    56    58   ar
    60    89    88    1
    61    19    17   ar
    62   110   111    1
    63    59    60   ar
    64    58    60   ar
    65   111   112    1
    66   111   113    1
    67    95    93   ar
    68    95    97   ar
    69    93    92   ar
    70    88    87    1
    71    88    91    1
    72    97    96   ar
    73    85    84    2
    74    87    84   am
    75    92    91    1
    76    92    94   ar
    77    84    83    1
    78    82    83    1
    79    83    86    1
    80    96    94   ar
    81    35    37   ar
    82    35    34   ar
    83    37    38   ar
    84    28    26    1
    85    34    33    1
    86    34    36   ar
    87    49    48    1
    88    50    48    1
    89    38    40   ar
    90    38    36   ar
    91    33    30    1
    92   121   119    1
    93    30    29    1
    94    30    31    1
    95    48    47    1
    96    26    25    1
    97    26    27    1
    98   120   118    1
    99   118   119    1
   100   118   115    1
   101    40    42   ar
   102    36    39   ar
   103   114   115    1
   104    25    22    1
   105    31    43   am
   106    31    32    2
   107   115   116    1
   108    43    44    1
   109    47    44    1
   110    42    41   ar
   111    24    23    2
   112    39    41   ar
   113    44    45    1
   114    22    23    1
   115    22    21    1
   116   127   126    1
   117   116   117    2
   118    45    46    2
   119   126   123    1
   120   122   123    1
   121   124   123    1
   122   124   125    2
