@<TRIPOS>MOLECULE
tmp/4pcnB03.pdb
 105 102 0 0 0
SMALL
GASTEIGER

@<TRIPOS>ATOM
      1  N          6.3910  -23.3690  -38.6590 N.3   167  HIS167     -0.1226
      2  CA         6.2720  -24.7790  -38.3390 C.3   167  HIS167      0.1752
      3  C          4.8470  -25.0210  -38.1430 C.2   167  HIS167      0.2597
      4  O          4.2800  -24.5200  -37.1990 O.2   167  HIS167     -0.2718
      5  CB         7.0380  -25.1070  -37.0680 C.3   167  HIS167      0.0759
      6  CG         6.8100  -26.4940  -36.5250 C.ar  167  HIS167      0.0818
      7  ND1        7.8000  -27.4540  -36.5270 N.ar  167  HIS167     -0.2268
      8  CD2        5.7660  -27.0380  -35.8580 C.ar  167  HIS167      0.1154
      9  CE1        7.3700  -28.5410  -35.9010 C.ar  167  HIS167      0.1986
     10  NE2        6.1340  -28.3110  -35.4870 N.ar  167  HIS167     -0.2212
     11  N          4.2620  -25.7650  -39.0690 N.am  168  THR168     -0.1939
     12  CA         2.8470  -26.0850  -39.0150 C.3   168  THR168      0.2028
     13  C          2.7070  -27.5420  -38.6180 C.2   168  THR168      0.2642
     14  O          3.0120  -28.4400  -39.4070 O.2   168  THR168     -0.2714
     15  CB         2.1680  -25.8260  -40.3630 C.3   168  THR168      0.1808
     16  OG1        2.4980  -26.8840  -41.2720 O.3   168  THR168     -0.2208
     17  CG2        2.6370  -24.4730  -40.9400 C.3   168  THR168      0.0379
     18  N          2.2850  -27.7650  -37.3780 N.am  169  ALA169     -0.1963
     19  CA         2.1110  -29.1100  -36.8360 C.3   169  ALA169      0.1728
     20  C          0.6510  -29.4750  -36.5140 C.2   169  ALA169      0.2617
     21  O         -0.1160  -28.6470  -36.0250 O.2   169  ALA169     -0.2715
     22  CB         2.9400  -29.2550  -35.5880 C.3   169  ALA169      0.0334
     23  N          0.2900  -30.7340  -36.7430 N.am  170  GLY170     -0.1940
     24  CA         1.2180  -31.7280  -37.2660 C.3   170  GLY170      0.2014
     25  C          0.8490  -32.0480  -38.6950 C.2   170  GLY170      0.2639
     26  O          1.6620  -32.5360  -39.4740 O.2   170  GLY170     -0.2714
     27  N         -0.4080  -31.7640  -39.0210 N.am  171  SER171     -0.1949
     28  CA        -0.9610  -31.9370  -40.3560 C.3   171  SER171      0.1924
     29  C         -2.2750  -31.1780  -40.3630 C.2   171  SER171      0.2314
     30  O         -3.0880  -31.3170  -41.2750 O.2   171  SER171     -0.2863
     31  CB        -1.1810  -33.4180  -40.6890 C.3   171  SER171      0.2116
     32  OG         0.0230  -34.1680  -40.5890 O.3   171  SER171     -0.2180
     33  N          6.6280  -27.4120  -43.4490 N.3   196  HIS196     -0.1241
     34  CA         6.1550  -28.7540  -43.1630 C.3   196  HIS196      0.1621
     35  C          4.8270  -28.9820  -43.8650 C.2   196  HIS196      0.2264
     36  O          4.0300  -29.7770  -43.3940 O.2   196  HIS196     -0.2867
     37  CB         6.0460  -28.9700  -41.6520 C.3   196  HIS196      0.0745
     38  CG         7.3040  -28.6550  -40.8950 C.ar  196  HIS196      0.0817
     39  ND1        8.5540  -28.6610  -41.4820 N.ar  196  HIS196     -0.2268
     40  CD2        7.4980  -28.3270  -39.5930 C.ar  196  HIS196      0.1154
     41  CE1        9.4700  -28.3680  -40.5700 C.ar  196  HIS196      0.1986
     42  NE2        8.8500  -28.1310  -39.4200 N.ar  196  HIS196     -0.2212
     43  N          3.4900  -32.4530  -44.7570 N.3   199  GLU199     -0.1245
     44  CA         2.8190  -33.3490  -43.8060 C.3   199  GLU199      0.1567
     45  C          1.3550  -33.6580  -44.1810 C.2   199  GLU199      0.2260
     46  O          0.7410  -34.5250  -43.5680 O.2   199  GLU199     -0.2867
     47  CB         2.8340  -32.7500  -42.4060 C.3   199  GLU199      0.0388
     48  CG         4.2240  -32.7430  -41.7270 C.3   199  GLU199      0.1160
     49  CD         4.8030  -34.1550  -41.4800 C.2   199  GLU199      0.3649
     50  OE1        4.0740  -35.1570  -41.4640 O.co2 199  GLU199     -0.2457
     51  OE2        6.0230  -34.2700  -41.2810 O.co2 199  GLU199     -0.2457
     52  N         10.2550  -31.9400  -44.9390 N.3   220  ARG220     -0.1245
     53  CA        10.5840  -33.0590  -44.0680 C.3   220  ARG220      0.1563
     54  C         10.6500  -34.3310  -44.8690 C.2   220  ARG220      0.2260
     55  O         10.2890  -35.3860  -44.3820 O.2   220  ARG220     -0.2867
     56  CB         9.5670  -33.2090  -42.9190 C.3   220  ARG220      0.0307
     57  CG         9.2860  -31.9120  -42.1770 C.3   220  ARG220      0.0489
     58  CD         8.5710  -32.1950  -40.8890 C.3   220  ARG220      0.2205
     59  NE         9.4780  -32.7610  -39.8750 N.pl3 220  ARG220     -0.0865
     60  CZ         9.2890  -33.8950  -39.2170 C.cat 220  ARG220      0.5346
     61  NH1       10.1650  -34.2620  -38.2970 N.pl3 220  ARG220      0.1354
     62  NH2        8.2210  -34.6360  -39.3830 N.pl3 220  ARG220      0.1354
     63  N          7.0910  -42.9350  -34.9500 N.3   235  THR235     -0.1203
     64  CA         5.8610  -42.6020  -35.6740 C.3   235  THR235      0.1994
     65  C          5.3600  -41.2000  -35.3580 C.2   235  THR235      0.2618
     66  O          4.9390  -40.4440  -36.2460 O.2   235  THR235     -0.2717
     67  CB         4.7560  -43.6400  -35.3530 C.3   235  THR235      0.1784
     68  OG1        5.2560  -44.9440  -35.6470 O.3   235  THR235     -0.2211
     69  CG2        3.5280  -43.3830  -36.1780 C.3   235  THR235      0.0376
     70  N          5.4560  -40.8180  -34.0920 N.am  236  ALA236     -0.1965
     71  CA         4.9980  -39.5040  -33.6690 C.3   236  ALA236      0.1728
     72  C          5.8330  -38.3840  -34.2920 C.2   236  ALA236      0.2616
     73  O          5.3200  -37.2950  -34.5490 O.2   236  ALA236     -0.2715
     74  CB         5.0580  -39.3970  -32.1430 C.3   236  ALA236      0.0334
     75  N          7.1200  -38.6460  -34.4990 N.am  237  PHE237     -0.1960
     76  CA         8.0470  -37.6050  -34.9500 C.3   237  PHE237      0.1771
     77  C          8.1370  -37.5800  -36.4710 C.2   237  PHE237      0.2619
     78  O          8.2920  -36.4990  -37.0660 O.2   237  PHE237     -0.2715
     79  CB         9.4170  -37.8900  -34.2900 C.3   237  PHE237      0.0574
     80  CG        10.4440  -36.7810  -34.4110 C.ar  237  PHE237     -0.0200
     81  CD1       11.1570  -36.6050  -35.5800 C.ar  237  PHE237     -0.0042
     82  CD2       10.7450  -35.9500  -33.3130 C.ar  237  PHE237     -0.0042
     83  CE1       12.1270  -35.6070  -35.6890 C.ar  237  PHE237     -0.0003
     84  CE2       11.7310  -34.9350  -33.4150 C.ar  237  PHE237     -0.0003
     85  CZ        12.4280  -34.7720  -34.5990 C.ar  237  PHE237     -0.0000
     86  N          8.0570  -38.7570  -37.0940 N.am  238  MET238     -0.1963
     87  CA         8.3600  -38.8560  -38.5290 C.3   238  MET238      0.1736
     88  C          7.1550  -39.1760  -39.4040 C.2   238  MET238      0.2617
     89  O          7.2490  -39.0360  -40.6340 O.2   238  MET238     -0.2715
     90  CB         9.4610  -39.9250  -38.7930 C.3   238  MET238      0.0427
     91  CG        10.7970  -39.5690  -38.1200 C.3   238  MET238      0.0599
     92  SD        12.0940  -40.7260  -38.6280 S.3   238  MET238     -0.1393
     93  CE        11.6130  -42.1970  -37.7960 C.3   238  MET238      0.0692
     94  N          6.0600  -39.6190  -38.7930 N.am  239  GLY239     -0.1955
     95  CA         4.8620  -39.9370  -39.5580 C.3   239  GLY239      0.1869
     96  C          4.8810  -41.2940  -40.2410 C.2   239  GLY239      0.2309
     97  O          5.8540  -42.0260  -40.1830 O.2   239  GLY239     -0.2863
     98  N         14.5630  -31.0400  -42.8740 N.3   267  ASP267     -0.1239
     99  CA        14.3370  -30.8820  -41.4140 C.3   267  ASP267      0.1674
    100  C         15.1530  -31.9500  -40.6450 C.2   267  ASP267      0.2266
    101  O         14.6830  -32.6700  -39.7630 O.2   267  ASP267     -0.2867
    102  CB        12.8550  -30.9650  -41.0730 C.3   267  ASP267      0.1410
    103  CG        12.5300  -30.3920  -39.6800 C.2   267  ASP267      0.3668
    104  OD1       13.3400  -29.6030  -39.1160 O.co2 267  ASP267     -0.2456
    105  OD2       11.4420  -30.7730  -39.1890 O.co2 267  ASP267     -0.2456
@<TRIPOS>BOND
     1    52    53    1
     2    54    55    2
     3    54    53    1
     4    43    44    1
     5    45    44    1
     6    45    46    2
     7    53    56    1
     8    35    36    2
     9    35    34    1
    10    44    47    1
    11    33    34    1
    12    34    37    1
    13    56    57    1
    14    98    99    1
    15    47    48    1
    16    57    58    1
    17    48    49    1
    18    37    38    1
    19    39    38   ar
    20    39    41   ar
    21    49    50   ar
    22    49    51   ar
    23    99   102    1
    24    99   100    1
    25    30    29    2
    26    16    15    1
    27   102   103    1
    28    17    15    1
    29    38    40   ar
    30    58    59    1
    31    31    32    1
    32    31    28    1
    33   100   101    2
    34    89    88    2
    35    41    42   ar
    36    29    28    1
    37    15    12    1
    38    28    27    1
    39    96    97    2
    40    96    95    1
    41    59    60    2
    42   103   105   ar
    43   103   104   ar
    44    40    42   ar
    45    95    94    1
    46    26    25    2
    47    14    13    2
    48    88    94   am
    49    88    87    1
    50    62    60    1
    51    60    61    1
    52    11    12    1
    53    11     3   am
    54    27    25   am
    55    12    13    1
    56    90    87    1
    57    90    91    1
    58    25    24    1
    59     1     2    1
    60    92    91    1
    61    92    93    1
    62    13    18   am
    63    87    86    1
    64     2     3    1
    65     2     5    1
    66     3     4    2
    67    18    19    1
    68    24    23    1
    69    86    77   am
    70     5     6    1
    71    78    77    2
    72    19    20    1
    73    19    22    1
    74    23    20   am
    75     7     6   ar
    76     7     9   ar
    77     6     8   ar
    78    20    21    2
    79    77    76    1
    80    66    65    2
    81    69    67    1
    82     9    10   ar
    83     8    10   ar
    84    83    81   ar
    85    83    85   ar
    86    64    65    1
    87    64    67    1
    88    64    63    1
    89    68    67    1
    90    81    80   ar
    91    65    70   am
    92    76    75    1
    93    76    79    1
    94    85    84   ar
    95    73    72    2
    96    75    72   am
    97    80    79    1
    98    80    82   ar
    99    72    71    1
   100    70    71    1
   101    71    74    1
   102    84    82   ar
