@<TRIPOS>MOLECULE
tmp/4pcsA00.pdb
 152 153 0 0 0
SMALL
GASTEIGER

@<TRIPOS>ATOM
      1  N         21.3640   -1.8400   52.5230 N.3    30  PHE30      -0.1241
      2  CA        22.3820   -0.9130   52.0560 C.3    30  PHE30       0.1605
      3  C         23.3230   -1.8060   51.2930 C.2    30  PHE30       0.2264
      4  O         23.5660   -2.9280   51.7260 O.2    30  PHE30      -0.2867
      5  CB        23.1920   -0.3000   53.2060 C.3    30  PHE30       0.0534
      6  CG        23.4110    1.1910   53.1020 C.ar   30  PHE30      -0.0203
      7  CD1       23.9550    1.7570   51.9700 C.ar   30  PHE30      -0.0042
      8  CD2       23.0250    2.0190   54.1250 C.ar   30  PHE30      -0.0042
      9  CE1       24.1120    3.1500   51.8660 C.ar   30  PHE30      -0.0003
     10  CE2       23.2020    3.4020   54.0630 C.ar   30  PHE30      -0.0003
     11  CZ        23.7230    3.9800   52.9120 C.ar   30  PHE30      -0.0000
     12  N         27.2700   -1.5010   49.8500 N.3    32  HIS32      -0.1241
     13  CA        28.5370   -0.8080   49.7000 C.3    32  HIS32       0.1621
     14  C         29.3870   -1.6870   48.7910 C.2    32  HIS32       0.2264
     15  O         29.8850   -2.7370   49.1870 O.2    32  HIS32      -0.2867
     16  CB        29.2790   -0.5760   51.0500 C.3    32  HIS32       0.0745
     17  CG        28.8610    0.6540   51.7820 C.ar   32  HIS32       0.0817
     18  ND1       27.6290    0.7720   52.3760 N.ar   32  HIS32      -0.2268
     19  CD2       29.4870    1.8400   51.9800 C.ar   32  HIS32       0.1154
     20  CE1       27.5120    1.9710   52.9320 C.ar   32  HIS32       0.1986
     21  NE2       28.6090    2.6580   52.6580 N.ar   32  HIS32      -0.2212
     22  N         36.2900   -0.0120   53.3150 N.3    53  GLU53      -0.1231
     23  CA        36.0470    1.0050   52.3070 C.3    53  GLU53       0.1699
     24  C         36.9080    2.2570   52.5030 C.2    53  GLU53       0.2592
     25  O         36.9710    3.1250   51.6180 O.2    53  GLU53      -0.2718
     26  CB        34.5720    1.3280   52.1520 C.3    53  GLU53       0.0402
     27  CG        33.8980    2.1990   53.2210 C.3    53  GLU53       0.1161
     28  CD        33.6530    1.4990   54.5620 C.2    53  GLU53       0.3649
     29  OE1       33.7930    0.2590   54.6700 O.co2  53  GLU53      -0.2457
     30  OE2       33.3660    2.2690   55.5090 O.co2  53  GLU53      -0.2457
     31  N         37.5810    2.3320   53.6460 N.am   54  TRP54      -0.1976
     32  CA        38.4910    3.4360   53.9490 C.3    54  TRP54       0.1640
     33  C         39.9470    2.9690   53.8390 C.2    54  TRP54       0.2290
     34  O         40.8430    3.6890   54.2630 O.2    54  TRP54      -0.2864
     35  CB        38.2390    3.9540   55.3610 C.3    54  TRP54       0.0576
     36  CG        37.1760    4.9100   55.4500 C.ar   54  TRP54       0.0006
     37  CD1       35.8420    4.6560   55.3910 C.ar   54  TRP54       0.0946
     38  CD2       37.3120    6.3310   55.6110 C.ar   54  TRP54       0.0152
     39  NE1       35.1380    5.8370   55.5140 N.ar   54  TRP54      -0.2442
     40  CE2       36.0180    6.8740   55.6300 C.ar   54  TRP54       0.0810
     41  CE3       38.4060    7.1930   55.7710 C.ar   54  TRP54       0.0012
     42  CZ2       35.7920    8.2350   55.7650 C.ar   54  TRP54       0.0191
     43  CZ3       38.1800    8.5400   55.8710 C.ar   54  TRP54       0.0001
     44  CH2       36.8920    9.0550   55.8770 C.ar   54  TRP54       0.0015
     45  N         31.4850    6.1330   46.1960 N.3   101  HIS101     -0.1226
     46  CA        31.9550    6.2690   47.5660 C.3   101  HIS101      0.1752
     47  C         33.1270    7.2730   47.5550 C.2   101  HIS101      0.2596
     48  O         33.3620    7.9040   46.5170 O.2   101  HIS101     -0.2718
     49  CB        32.3050    4.8870   48.2030 C.3   101  HIS101      0.0759
     50  CG        32.2290    4.8790   49.7110 C.ar  101  HIS101      0.0818
     51  ND1       33.3530    5.0400   50.5110 N.ar  101  HIS101     -0.2268
     52  CD2       31.1620    4.8280   50.5570 C.ar  101  HIS101      0.1154
     53  CE1       32.9890    5.0290   51.7830 C.ar  101  HIS101      0.1986
     54  NE2       31.6650    4.9160   51.8390 N.ar  101  HIS101     -0.2212
     55  N         33.8320    7.4460   48.6840 N.am  102  HIS102     -0.1975
     56  CA        34.8610    8.4880   48.7920 C.3   102  HIS102      0.1656
     57  C         35.9570    8.2840   47.7410 C.2   102  HIS102      0.2291
     58  O         36.5080    9.2640   47.2330 O.2   102  HIS102     -0.2864
     59  CB        35.5330    8.5460   50.1910 C.3   102  HIS102      0.0771
     60  CG        34.5720    8.5820   51.3450 C.ar  102  HIS102      0.0820
     61  ND1       33.3440    9.2160   51.2930 N.ar  102  HIS102     -0.2267
     62  CD2       34.6670    8.0500   52.5890 C.ar  102  HIS102      0.1154
     63  CE1       32.7120    9.0390   52.4380 C.ar  102  HIS102      0.1986
     64  NE2       33.4970    8.3490   53.2440 N.ar  102  HIS102     -0.2212
     65  N         23.0550    6.3980   47.2620 N.3   144  TYR144     -0.1241
     66  CA        24.0530    6.9360   48.1500 C.3   144  TYR144      0.1605
     67  C         25.0050    7.6640   47.2450 C.2   144  TYR144      0.2264
     68  O         25.3660    7.1200   46.2150 O.2   144  TYR144     -0.2867
     69  CB        24.8100    5.7920   48.8440 C.3   144  TYR144      0.0534
     70  CG        26.1000    6.1660   49.5260 C.ar  144  TYR144     -0.0201
     71  CD1       27.2450    6.5520   48.7990 C.ar  144  TYR144     -0.0009
     72  CD2       26.2220    6.0840   50.9330 C.ar  144  TYR144     -0.0009
     73  CE1       28.4380    6.8740   49.4210 C.ar  144  TYR144      0.0417
     74  CE2       27.4200    6.4180   51.5820 C.ar  144  TYR144      0.0417
     75  CZ        28.5120    6.8280   50.8390 C.ar  144  TYR144      0.1957
     76  OH        29.6620    7.1990   51.4640 O.3   144  TYR144     -0.2866
     77  N         20.9420    9.9940   49.1770 N.3   193  TRP193     -0.1241
     78  CA        21.4650    9.9360   50.5290 C.3   193  TRP193      0.1605
     79  C         22.9020   10.4000   50.4440 C.2   193  TRP193      0.2264
     80  O         23.7800    9.6330   50.0860 O.2   193  TRP193     -0.2867
     81  CB        21.3710    8.4980   51.0850 C.3   193  TRP193      0.0550
     82  CG        21.5190    8.4120   52.6030 C.ar  193  TRP193      0.0003
     83  CD1       20.5250    8.5520   53.5310 C.ar  193  TRP193      0.0946
     84  CD2       22.7390    8.2170   53.3370 C.ar  193  TRP193      0.0152
     85  NE1       21.0590    8.4400   54.7900 N.ar  193  TRP193     -0.2442
     86  CE2       22.4070    8.1870   54.6920 C.ar  193  TRP193      0.0810
     87  CE3       24.0830    8.0640   52.9660 C.ar  193  TRP193      0.0012
     88  CZ2       23.3630    8.0310   55.6910 C.ar  193  TRP193      0.0191
     89  CZ3       25.0300    7.8340   53.9540 C.ar  193  TRP193      0.0001
     90  CH2       24.6810    7.8880   55.2970 C.ar  193  TRP193      0.0015
     91  N         26.5780   11.6080   51.7340 N.3   195  ASP195     -0.1239
     92  CA        27.5760   11.2900   52.7080 C.3   195  ASP195      0.1674
     93  C         28.8230   12.1270   52.3720 C.2   195  ASP195      0.2266
     94  O         28.8700   12.7830   51.3300 O.2   195  ASP195     -0.2867
     95  CB        27.9460    9.8100   52.6540 C.3   195  ASP195      0.1410
     96  CG        28.5210    9.2900   53.9570 C.2   195  ASP195      0.3668
     97  OD1       28.5230   10.0600   54.9520 O.co2 195  ASP195     -0.2456
     98  OD2       29.0390    8.1370   53.9910 O.co2 195  ASP195     -0.2456
     99  N         31.0960   16.5280   55.5100 N.3   198  TRP198     -0.1241
    100  CA        31.4770   17.0640   56.8120 C.3   198  TRP198      0.1605
    101  C         32.6450   18.0440   56.7660 C.2   198  TRP198      0.2264
    102  O         32.8520   18.7600   57.7250 O.2   198  TRP198     -0.2867
    103  CB        31.8530   15.9320   57.7800 C.3   198  TRP198      0.0550
    104  CG        32.6810   14.8810   57.1890 C.ar  198  TRP198      0.0003
    105  CD1       34.0180   14.9500   56.8760 C.ar  198  TRP198      0.0946
    106  CD2       32.2530   13.5410   56.8380 C.ar  198  TRP198      0.0152
    107  NE1       34.4440   13.7380   56.3380 N.ar  198  TRP198     -0.2442
    108  CE2       33.3900   12.8570   56.3180 C.ar  198  TRP198      0.0810
    109  CE3       31.0320   12.8590   56.9190 C.ar  198  TRP198      0.0012
    110  CZ2       33.3310   11.5270   55.8660 C.ar  198  TRP198      0.0191
    111  CZ3       30.9800   11.5120   56.4820 C.ar  198  TRP198      0.0001
    112  CH2       32.1260   10.8720   55.9560 C.ar  198  TRP198      0.0015
    113  N         21.7820   14.9030   55.9650 N.3   228  ARG228     -0.1245
    114  CA        23.2410   14.8950   55.9970 C.3   228  ARG228      0.1563
    115  C         23.8880   15.7240   54.8810 C.2   228  ARG228      0.2260
    116  O         25.0460   16.1460   54.9710 O.2   228  ARG228     -0.2867
    117  CB        23.7730   13.4460   55.9240 C.3   228  ARG228      0.0307
    118  CG        25.2640   13.3700   56.1560 C.3   228  ARG228      0.0489
    119  CD        25.8320   11.9600   56.3400 C.3   228  ARG228      0.2205
    120  NE        25.1420   11.1290   57.3600 N.pl3 228  ARG228     -0.0865
    121  CZ        25.6510   10.0090   57.8880 C.cat 228  ARG228      0.5346
    122  NH1       26.8590    9.5650   57.5230 N.pl3 228  ARG228      0.1354
    123  NH2       24.9310    9.2940   58.7680 N.pl3 228  ARG228      0.1354
    124  N         23.8680    6.3480   62.7670 N.3   254  GLU254     -0.1245
    125  CA        24.6760    5.4340   62.0280 C.3   254  GLU254      0.1567
    126  C         25.4350    4.5100   62.9850 C.2   254  GLU254      0.2260
    127  O         26.2580    4.9610   63.7710 O.2   254  GLU254     -0.2867
    128  CB        25.6390    6.2690   61.1580 C.3   254  GLU254      0.0388
    129  CG        26.7250    5.5100   60.4200 C.3   254  GLU254      0.1160
    130  CD        27.4680    6.3760   59.4130 C.2   254  GLU254      0.3649
    131  OE1       26.8740    7.3390   58.9030 O.co2 254  GLU254     -0.2457
    132  OE2       28.6560    6.1210   59.1720 O.co2 254  GLU254     -0.2457
    133  N         20.9980    3.6050   59.8520 N.3   274  CYS274     -0.1235
    134  CA        21.6790    2.5520   59.1400 C.3   274  CYS274      0.1677
    135  C         22.6130    1.7990   60.0470 C.2   274  CYS274      0.2270
    136  O         23.0580    2.3260   61.0450 O.2   274  CYS274     -0.2867
    137  CB        22.4600    3.0950   57.9550 C.3   274  CYS274      0.0956
    138  SG        23.5700    4.4640   58.2700 S.3   274  CYS274     -0.0801
    139  N         31.6150   -1.6060   56.2450 N.3   282  TRP282     -0.1241
    140  CA        30.5690   -1.3690   55.2750 C.3   282  TRP282      0.1605
    141  C         30.9350   -2.0450   53.9230 C.2   282  TRP282      0.2264
    142  O         30.1860   -2.8890   53.4310 O.2   282  TRP282     -0.2867
    143  CB        30.3500    0.1080   55.0940 C.3   282  TRP282      0.0550
    144  CG        29.9860    0.8420   56.3290 C.ar  282  TRP282      0.0003
    145  CD1       30.8370    1.4270   57.2020 C.ar  282  TRP282      0.0946
    146  CD2       28.6660    1.1700   56.7720 C.ar  282  TRP282      0.0152
    147  NE1       30.1360    2.0780   58.1750 N.ar  282  TRP282     -0.2442
    148  CE2       28.7960    1.9310   57.9360 C.ar  282  TRP282      0.0810
    149  CE3       27.4010    0.8850   56.3090 C.ar  282  TRP282      0.0012
    150  CZ2       27.7050    2.4230   58.6370 C.ar  282  TRP282      0.0191
    151  CZ3       26.2780    1.3650   57.0300 C.ar  282  TRP282      0.0001
    152  CH2       26.4510    2.1240   58.1720 C.ar  282  TRP282      0.0015
@<TRIPOS>BOND
     1    45    46    1
     2    68    67    2
     3    48    47    2
     4    58    57    2
     5    67    66    1
     6    65    66    1
     7    47    46    1
     8    47    55   am
     9    46    49    1
    10    57    56    1
    11    66    69    1
    12    49    50    1
    13    55    56    1
    14    14    15    2
    15    14    13    1
    16    56    59    1
    17    71    73   ar
    18    71    70   ar
    19    69    70    1
    20    77    78    1
    21    73    75   ar
    22    70    72   ar
    23    13    12    1
    24    13    16    1
    25    50    51   ar
    26    50    52   ar
    27    80    79    2
    28    59    60    1
    29    79    78    1
    30    51    53   ar
    31    78    81    1
    32    52    54   ar
    33    75    76    1
    34    75    74   ar
    35    72    74   ar
    36    16    17    1
    37    81    82    1
    38     3     4    2
    39     3     2    1
    40    61    60   ar
    41    61    63   ar
    42    94    93    2
    43    60    62   ar
    44    25    24    2
    45    91    92    1
    46    17    19   ar
    47    17    18   ar
    48    53    54   ar
    49     9     7   ar
    50     9    11   ar
    51     7     6   ar
    52    19    21   ar
    53     2     1    1
    54     2     5    1
    55    26    23    1
    56    26    27    1
    57    23    24    1
    58    23    22    1
    59    93    92    1
    60    18    20   ar
    61    63    64   ar
    62    24    31   am
    63    62    64   ar
    64    82    84   ar
    65    82    83   ar
    66    95    92    1
    67    95    96    1
    68    21    20   ar
    69    11    10   ar
    70    87    84   ar
    71    87    89   ar
    72     6     5    1
    73     6     8   ar
    74    27    28    1
    75    84    86   ar
    76   142   141    2
    77    83    85   ar
    78    31    32    1
    79    33    32    1
    80    33    34    2
    81   141   140    1
    82    32    35    1
    83    89    90   ar
    84    96    98   ar
    85    96    97   ar
    86    10     8   ar
    87    28    29   ar
    88    28    30   ar
    89    86    85   ar
    90    86    88   ar
    91   115   116    2
    92   115   114    1
    93   143   140    1
    94   143   144    1
    95   140   139    1
    96    90    88   ar
    97    35    36    1
    98    37    36   ar
    99    37    39   ar
   100    36    38   ar
   101    99   100    1
   102    39    40   ar
   103    38    40   ar
   104    38    41   ar
   105    40    42   ar
   106    42    44   ar
   107    41    43   ar
   108   110   112   ar
   109   110   108   ar
   110    43    44   ar
   111   117   114    1
   112   117   118    1
   113   112   111   ar
   114   113   114    1
   115   118   119    1
   116   149   146   ar
   117   149   151   ar
   118   108   107   ar
   119   108   106   ar
   120   144   146   ar
   121   144   145   ar
   122   107   105   ar
   123   119   120    1
   124   111   109   ar
   125   101   100    1
   126   101   102    2
   127   146   148   ar
   128   100   103    1
   129   106   109   ar
   130   106   104   ar
   131   105   104   ar
   132   151   152   ar
   133   104   103    1
   134   145   147   ar
   135   120   121    2
   136   122   121    1
   137   121   123    1
   138   148   147   ar
   139   148   150   ar
   140   137   138    1
   141   137   134    1
   142   152   150   ar
   143   131   130   ar
   144   134   133    1
   145   134   135    1
   146   132   130   ar
   147   130   129    1
   148   135   136    2
   149   129   128    1
   150   128   125    1
   151   125   124    1
   152   125   126    1
   153   126   127    2
