@<TRIPOS>MOLECULE
tmp/4pcsC00.pdb
 152 153 0 0 0
SMALL
GASTEIGER

@<TRIPOS>ATOM
      1  N          3.8670  -39.4260    3.0590 N.3    30  PHE30      -0.1241
      2  CA         2.5910  -39.6170    2.4150 C.3    30  PHE30       0.1605
      3  C          2.4180  -38.3810    1.5260 C.2    30  PHE30       0.2264
      4  O          2.7920  -37.2790    1.9560 O.2    30  PHE30      -0.2867
      5  CB         1.4550  -39.6140    3.4330 C.3    30  PHE30       0.0534
      6  CG         0.4640  -40.7380    3.2370 C.ar   30  PHE30      -0.0203
      7  CD1       -0.1640  -40.9450    2.0240 C.ar   30  PHE30      -0.0042
      8  CD2        0.1370  -41.5510    4.2840 C.ar   30  PHE30      -0.0042
      9  CE1       -1.0810  -41.9820    1.8580 C.ar   30  PHE30      -0.0003
     10  CE2       -0.7490  -42.5940    4.1250 C.ar   30  PHE30      -0.0003
     11  CZ        -1.3740  -42.8000    2.9150 C.ar   30  PHE30      -0.0000
     12  N         -0.7860  -36.5020   -0.4440 N.3    32  HIS32      -0.1241
     13  CA        -2.1810  -36.3790   -0.8030 C.3    32  HIS32       0.1621
     14  C         -2.2720  -35.2200   -1.7860 C.2    32  HIS32       0.2264
     15  O         -2.1670  -34.0380   -1.3820 O.2    32  HIS32      -0.2867
     16  CB        -3.0860  -36.0960    0.4210 C.3    32  HIS32       0.0745
     17  CG        -3.5190  -37.3310    1.1470 C.ar   32  HIS32       0.0817
     18  ND1       -2.6580  -38.0700    1.9310 N.ar   32  HIS32      -0.2268
     19  CD2       -4.7150  -37.9400    1.2240 C.ar   32  HIS32       0.1154
     20  CE1       -3.3140  -39.0740    2.4770 C.ar   32  HIS32       0.1986
     21  NE2       -4.5560  -39.0380    2.0280 N.ar   32  HIS32      -0.2212
     22  N         -9.4460  -32.4850    1.7470 N.3    53  GLU53      -0.1231
     23  CA        -9.6990  -33.5050    0.7030 C.3    53  GLU53       0.1699
     24  C        -11.1090  -34.0320    0.7380 C.2    53  GLU53       0.2592
     25  O        -11.5450  -34.7440   -0.1730 O.2    53  GLU53      -0.2718
     26  CB        -8.6510  -34.6430    0.7480 C.3    53  GLU53       0.0402
     27  CG        -8.7600  -35.6610    1.8610 C.3    53  GLU53       0.1161
     28  CD        -8.3690  -35.1470    3.2710 C.2    53  GLU53       0.3649
     29  OE1       -7.7400  -34.0630    3.4180 O.co2  53  GLU53      -0.2457
     30  OE2       -8.6630  -35.8940    4.2160 O.co2  53  GLU53      -0.2457
     31  N        -11.8440  -33.6600    1.7820 N.am   54  TRP54      -0.1976
     32  CA       -13.2570  -34.0390    1.8990 C.3    54  TRP54       0.1640
     33  C        -14.1940  -32.8550    1.5980 C.2    54  TRP54       0.2290
     34  O        -15.3810  -32.9230    1.8870 O.2    54  TRP54      -0.2864
     35  CB       -13.5320  -34.5440    3.3110 C.3    54  TRP54       0.0576
     36  CG       -13.1950  -35.9610    3.5250 C.ar   54  TRP54       0.0006
     37  CD1      -11.9490  -36.4950    3.6800 C.ar   54  TRP54       0.0946
     38  CD2      -14.1170  -37.0420    3.5960 C.ar   54  TRP54       0.0152
     39  NE1      -12.0460  -37.8760    3.8170 N.ar   54  TRP54      -0.2442
     40  CE2      -13.3750  -38.2150    3.8120 C.ar   54  TRP54       0.0810
     41  CE3      -15.5150  -37.1230    3.5660 C.ar   54  TRP54       0.0012
     42  CZ2      -13.9740  -39.4470    3.9160 C.ar   54  TRP54       0.0191
     43  CZ3      -16.1050  -38.3450    3.6970 C.ar   54  TRP54       0.0001
     44  CH2      -15.3450  -39.4920    3.8550 C.ar   54  TRP54       0.0015
     45  N         -7.9810  -40.5650   -4.8730 N.3   101  HIS101     -0.1226
     46  CA        -8.6470  -40.3820   -3.5880 C.3   101  HIS101      0.1752
     47  C        -10.1500  -40.5650   -3.7980 C.2   101  HIS101      0.2596
     48  O        -10.5640  -40.9830   -4.8750 O.2   101  HIS101     -0.2718
     49  CB        -8.2480  -39.0290   -2.9460 C.3   101  HIS101      0.0759
     50  CG        -8.4070  -39.0170   -1.4530 C.ar  101  HIS101      0.0818
     51  ND1       -9.5150  -38.4850   -0.8280 N.ar  101  HIS101     -0.2268
     52  CD2       -7.6100  -39.4840   -0.4580 C.ar  101  HIS101      0.1154
     53  CE1       -9.4020  -38.6430    0.4810 C.ar  101  HIS101      0.1986
     54  NE2       -8.2440  -39.2260    0.7320 N.ar  101  HIS101     -0.2212
     55  N        -10.9680  -40.2440   -2.7980 N.am  102  HIS102     -0.1975
     56  CA       -12.4280  -40.4880   -2.8780 C.3   102  HIS102      0.1656
     57  C        -13.0920  -39.7540   -4.0470 C.2   102  HIS102      0.2291
     58  O        -14.0090  -40.2860   -4.6550 O.2   102  HIS102     -0.2864
     59  CB       -13.1820  -40.0740   -1.5580 C.3   102  HIS102      0.0771
     60  CG       -12.5680  -40.5940   -0.2800 C.ar  102  HIS102      0.0820
     61  ND1      -11.8930  -41.7970   -0.1950 N.ar  102  HIS102     -0.2267
     62  CD2      -12.5320  -40.0600    0.9680 C.ar  102  HIS102      0.1154
     63  CE1      -11.4700  -41.9810    1.0480 C.ar  102  HIS102      0.1986
     64  NE2      -11.8390  -40.9430    1.7740 N.ar  102  HIS102     -0.2212
     65  N         -1.3680  -45.5000   -2.6320 N.3   144  TYR144     -0.1241
     66  CA        -2.6680  -45.3430   -1.9620 C.3   144  TYR144      0.1605
     67  C         -3.7160  -45.4670   -3.0180 C.2   144  TYR144      0.2264
     68  O         -3.5860  -44.8640   -4.0770 O.2   144  TYR144     -0.2867
     69  CB        -2.7250  -43.9430   -1.3280 C.3   144  TYR144      0.0534
     70  CG        -4.1200  -43.5070   -0.8300 C.ar  144  TYR144     -0.0201
     71  CD1       -5.1640  -43.2240   -1.7290 C.ar  144  TYR144     -0.0009
     72  CD2       -4.3500  -43.3190    0.5160 C.ar  144  TYR144     -0.0009
     73  CE1       -6.4180  -42.8080   -1.2800 C.ar  144  TYR144      0.0417
     74  CE2       -5.6000  -42.8690    0.9790 C.ar  144  TYR144      0.0417
     75  CZ        -6.6150  -42.6280    0.0870 C.ar  144  TYR144      0.1957
     76  OH        -7.8540  -42.2450    0.5420 O.3   144  TYR144     -0.2866
     77  N         -1.9840  -49.5200   -0.6170 N.3   193  TRP193     -0.1241
     78  CA        -2.5210  -49.1070    0.6860 C.3   193  TRP193      0.1605
     79  C         -3.9320  -48.6840    0.3880 C.2   193  TRP193      0.2264
     80  O         -4.1820  -47.5890   -0.0830 O.2   193  TRP193     -0.2867
     81  CB        -1.7210  -47.9530    1.2780 C.3   193  TRP193      0.0550
     82  CG        -1.9830  -47.7070    2.7580 C.ar  193  TRP193      0.0003
     83  CD1       -1.3420  -48.2960    3.8200 C.ar  193  TRP193      0.0946
     84  CD2       -2.9830  -46.8540    3.3240 C.ar  193  TRP193      0.0152
     85  NE1       -1.8810  -47.8560    5.0100 N.ar  193  TRP193     -0.2442
     86  CE2       -2.8650  -46.9440    4.7400 C.ar  193  TRP193      0.0810
     87  CE3       -3.9310  -45.9740    2.7730 C.ar  193  TRP193      0.0012
     88  CZ2       -3.6830  -46.2180    5.6140 C.ar  193  TRP193      0.0191
     89  CZ3       -4.7420  -45.2310    3.6500 C.ar  193  TRP193      0.0001
     90  CH2       -4.6130  -45.3640    5.0580 C.ar  193  TRP193      0.0015
     91  N         -7.8060  -47.5890    1.0840 N.3   195  ASP195     -0.1239
     92  CA        -8.5940  -46.7450    1.9600 C.3   195  ASP195      0.1674
     93  C        -10.0290  -46.7500    1.4350 C.2   195  ASP195      0.2266
     94  O        -10.2890  -47.2640    0.3510 O.2   195  ASP195     -0.2867
     95  CB        -8.0530  -45.3170    1.9050 C.3   195  ASP195      0.1410
     96  CG        -8.4230  -44.4810    3.1300 C.2   195  ASP195      0.3668
     97  OD1       -8.9810  -45.0530    4.0890 O.co2 195  ASP195     -0.2456
     98  OD2       -8.1520  -43.2310    3.1250 O.co2 195  ASP195     -0.2456
     99  N        -14.7640  -48.8080    4.0180 N.3   198  TRP198     -0.1241
    100  CA       -15.5790  -48.9530    5.2270 C.3   198  TRP198      0.1605
    101  C        -17.0660  -49.1030    4.9440 C.2   198  TRP198      0.2264
    102  O        -17.7930  -49.5010    5.8330 O.2   198  TRP198     -0.2867
    103  CB       -15.3750  -47.7790    6.2210 C.3   198  TRP198      0.0550
    104  CG       -15.3890  -46.4670    5.5980 C.ar  198  TRP198      0.0003
    105  CD1      -16.4730  -45.7890    5.1090 C.ar  198  TRP198      0.0946
    106  CD2      -14.2310  -45.6620    5.3140 C.ar  198  TRP198      0.0152
    107  NE1      -16.0490  -44.6000    4.5450 N.ar  198  TRP198     -0.2442
    108  CE2      -14.6890  -44.4980    4.6650 C.ar  198  TRP198      0.0810
    109  CE3      -12.8480  -45.8040    5.5680 C.ar  198  TRP198      0.0012
    110  CZ2      -13.8270  -43.4960    4.2520 C.ar  198  TRP198      0.0191
    111  CZ3      -11.9890  -44.7830    5.1700 C.ar  198  TRP198      0.0001
    112  CH2      -12.4850  -43.6500    4.5090 C.ar  198  TRP198      0.0015
    113  N         -6.2780  -52.7060    5.9610 N.3   228  ARG228     -0.1245
    114  CA        -7.4750  -51.8830    5.7420 C.3   228  ARG228      0.1563
    115  C         -8.3350  -52.2710    4.4860 C.2   228  ARG228      0.2260
    116  O         -9.5590  -51.9700    4.4130 O.2   228  ARG228     -0.2867
    117  CB        -7.0790  -50.4110    5.6180 C.3   228  ARG228      0.0307
    118  CG        -8.2950  -49.5000    5.6550 C.3   228  ARG228      0.0489
    119  CD        -7.9860  -48.0210    5.8090 C.3   228  ARG228      0.2205
    120  NE        -7.0880  -47.6830    6.9110 N.pl3 228  ARG228     -0.0865
    121  CZ        -6.9490  -46.4570    7.4050 C.cat 228  ARG228      0.5346
    122  NH1       -7.6670  -45.4380    6.8940 N.pl3 228  ARG228      0.1354
    123  NH2       -6.0840  -46.2290    8.4000 N.pl3 228  ARG228      0.1354
    124  N         -3.9410  -44.2750   12.6340 N.3   254  GLU254     -0.1245
    125  CA        -4.0390  -43.0880   11.7910 C.3   254  GLU254      0.1567
    126  C         -4.2180  -41.8960   12.7010 C.2   254  GLU254      0.2260
    127  O         -5.2420  -41.7780   13.3930 O.2   254  GLU254     -0.2867
    128  CB        -5.2230  -43.2830   10.8280 C.3   254  GLU254      0.0388
    129  CG        -5.6150  -42.0860    9.9740 C.3   254  GLU254      0.1160
    130  CD        -6.6490  -42.4260    8.9110 C.2   254  GLU254      0.3649
    131  OE1       -6.6340  -43.5500    8.4030 O.co2 254  GLU254     -0.2457
    132  OE2       -7.5010  -41.5750    8.6080 O.co2 254  GLU254     -0.2457
    133  N          0.2700  -43.7430   10.1520 N.3   274  CYS274     -0.1235
    134  CA         0.3550  -42.5300    9.3640 C.3   274  CYS274      0.1677
    135  C         -0.1480  -41.3420   10.1410 C.2   274  CYS274      0.2270
    136  O         -0.8910  -41.4800   11.1050 O.2   274  CYS274     -0.2867
    137  CB        -0.4270  -42.6410    8.0640 C.3   274  CYS274      0.0956
    138  SG        -2.1740  -43.0950    8.2130 S.3   274  CYS274     -0.0801
    139  N         -5.1340  -33.6930    5.3520 N.3   282  TRP282     -0.1241
    140  CA        -4.2770  -34.5230    4.4970 C.3   282  TRP282      0.1605
    141  C         -4.0450  -33.8470    3.1670 C.2   282  TRP282      0.2264
    142  O         -2.8820  -33.5740    2.7890 O.2   282  TRP282     -0.2867
    143  CB        -4.9120  -35.9070    4.3160 C.3   282  TRP282      0.0550
    144  CG        -5.1820  -36.6580    5.5510 C.ar  282  TRP282      0.0003
    145  CD1       -6.3410  -36.6450    6.2860 C.ar  282  TRP282      0.0946
    146  CD2       -4.3450  -37.6460    6.1610 C.ar  282  TRP282      0.0152
    147  NE1       -6.2400  -37.5230    7.3270 N.ar  282  TRP282     -0.2442
    148  CE2       -5.0340  -38.1580    7.2620 C.ar  282  TRP282      0.0810
    149  CE3       -3.0790  -38.1550    5.8720 C.ar  282  TRP282      0.0012
    150  CZ2       -4.4700  -39.0890    8.1210 C.ar  282  TRP282      0.0191
    151  CZ3       -2.5270  -39.0930    6.7280 C.ar  282  TRP282      0.0001
    152  CH2       -3.2170  -39.5540    7.8290 C.ar  282  TRP282      0.0015
@<TRIPOS>BOND
     1    48    47    2
     2    45    46    1
     3    58    57    2
     4    68    67    2
     5    57    56    1
     6    47    46    1
     7    47    55   am
     8    46    49    1
     9    67    66    1
    10    49    50    1
    11    56    55    1
    12    56    59    1
    13    65    66    1
    14    66    69    1
    15    14    15    2
    16    14    13    1
    17    71    73   ar
    18    71    70   ar
    19    59    60    1
    20    50    51   ar
    21    50    52   ar
    22    69    70    1
    23    73    75   ar
    24    70    72   ar
    25    51    53   ar
    26    13    12    1
    27    13    16    1
    28    77    78    1
    29    52    54   ar
    30    60    61   ar
    31    60    62   ar
    32    61    63   ar
    33    25    24    2
    34    80    79    2
    35    75    76    1
    36    75    74   ar
    37    94    93    2
    38    79    78    1
    39    16    17    1
    40    53    54   ar
    41    72    74   ar
    42    78    81    1
    43    23    24    1
    44    23    26    1
    45    23    22    1
    46    24    31   am
    47    26    27    1
    48    62    64   ar
    49    63    64   ar
    50    91    92    1
    51    17    19   ar
    52    17    18   ar
    53    19    21   ar
    54    81    82    1
    55    93    92    1
    56     3     4    2
    57     3     2    1
    58    33    34    2
    59    33    32    1
    60    31    32    1
    61     9     7   ar
    62     9    11   ar
    63    27    28    1
    64    32    35    1
    65    95    92    1
    66    95    96    1
    67    18    20   ar
    68     7     6   ar
    69    21    20   ar
    70     2     1    1
    71     2     5    1
    72    82    84   ar
    73    82    83   ar
    74    87    84   ar
    75    87    89   ar
    76   142   141    2
    77    11    10   ar
    78    98    96   ar
    79    96    97   ar
    80   141   140    1
    81     6     5    1
    82     6     8   ar
    83    28    29   ar
    84    28    30   ar
    85    35    36    1
    86    84    86   ar
    87    36    38   ar
    88    36    37   ar
    89    41    38   ar
    90    41    43   ar
    91    38    40   ar
    92    89    90   ar
    93    37    39   ar
    94    43    44   ar
    95    40    39   ar
    96    40    42   ar
    97    83    85   ar
    98    44    42   ar
    99    99   100    1
   100    10     8   ar
   101   110   112   ar
   102   110   108   ar
   103   143   140    1
   104   143   144    1
   105   116   115    2
   106   115   114    1
   107   140   139    1
   108   112   111   ar
   109   107   108   ar
   110   107   105   ar
   111   108   106   ar
   112    86    85   ar
   113    86    88   ar
   114   101   100    1
   115   101   102    2
   116    90    88   ar
   117   105   104   ar
   118   111   109   ar
   119   100   103    1
   120   106   109   ar
   121   106   104   ar
   122   144   146   ar
   123   144   145   ar
   124   104   103    1
   125   117   118    1
   126   117   114    1
   127   118   119    1
   128   114   113    1
   129   119   120    1
   130   149   146   ar
   131   149   151   ar
   132   146   148   ar
   133   145   147   ar
   134   151   152   ar
   135   122   121    1
   136   120   121    2
   137   148   147   ar
   138   148   150   ar
   139   121   123    1
   140   152   150   ar
   141   137   138    1
   142   137   134    1
   143   131   130   ar
   144   132   130   ar
   145   130   129    1
   146   134   135    1
   147   134   133    1
   148   129   128    1
   149   135   136    2
   150   128   125    1
   151   125   124    1
   152   125   126    1
   153   126   127    2
