@<TRIPOS>MOLECULE
tmp/4pctD00.pdb
 152 153 0 0 0
SMALL
GASTEIGER

@<TRIPOS>ATOM
      1  N         19.4850  -41.8350  -38.1940 N.3    30  PHE30      -0.1241
      2  CA        19.5620  -43.0830  -37.4420 C.3    30  PHE30       0.1605
      3  C         20.8770  -42.9920  -36.7090 C.2    30  PHE30       0.2264
      4  O         21.8820  -42.5160  -37.2650 O.2    30  PHE30      -0.2867
      5  CB        19.5780  -44.2890  -38.3930 C.3    30  PHE30       0.0534
      6  CG        18.6390  -45.4150  -38.0020 C.ar   30  PHE30      -0.0203
      7  CD1       18.6660  -45.9720  -36.7610 C.ar   30  PHE30      -0.0042
      8  CD2       17.7770  -45.9570  -38.9350 C.ar   30  PHE30      -0.0042
      9  CE1       17.8110  -46.9870  -36.4110 C.ar   30  PHE30      -0.0003
     10  CE2       16.9090  -46.9920  -38.6000 C.ar   30  PHE30      -0.0003
     11  CZ        16.9410  -47.5140  -37.3200 C.ar   30  PHE30      -0.0000
     12  N         23.3100  -45.5590  -34.6910 N.3    32  HIS32      -0.1241
     13  CA        23.7130  -46.8980  -34.2470 C.3    32  HIS32       0.1621
     14  C         24.9230  -46.7330  -33.3500 C.2    32  HIS32       0.2264
     15  O         26.0330  -46.4590  -33.8280 O.2    32  HIS32      -0.2867
     16  CB        24.0740  -47.8210  -35.4120 C.3    32  HIS32       0.0745
     17  CG        22.8890  -48.5220  -36.0170 C.ar   32  HIS32       0.0817
     18  ND1       21.9660  -47.8800  -36.8040 N.ar   32  HIS32      -0.2268
     19  CD2       22.4770  -49.8040  -35.9370 C.ar   32  HIS32       0.1154
     20  CE1       21.0200  -48.7290  -37.1690 C.ar   32  HIS32       0.1986
     21  NE2       21.2980  -49.9010  -36.6310 N.ar   32  HIS32      -0.2212
     22  N         28.6120  -53.6330  -36.6400 N.3    53  GLU53      -0.1231
     23  CA        27.7270  -53.9510  -35.5240 C.3    53  GLU53       0.1699
     24  C         27.4230  -55.4350  -35.4300 C.2    53  GLU53       0.2592
     25  O         26.8470  -55.9040  -34.4330 O.2    53  GLU53      -0.2718
     26  CB        26.4200  -53.1240  -35.5800 C.3    53  GLU53       0.0402
     27  CG        25.3550  -53.5690  -36.5870 C.3    53  GLU53       0.1161
     28  CD        25.6200  -53.1260  -38.0180 C.2    53  GLU53       0.3649
     29  OE1       26.5870  -52.3570  -38.2950 O.co2  53  GLU53      -0.2457
     30  OE2       24.8360  -53.5510  -38.8640 O.co2  53  GLU53      -0.2457
     31  N         27.8430  -56.1860  -36.4510 N.am   54  TRP54      -0.1976
     32  CA        27.7270  -57.6360  -36.4700 C.3    54  TRP54       0.1640
     33  C         29.0790  -58.3030  -36.2190 C.2    54  TRP54       0.2290
     34  O         29.1680  -59.5160  -36.3790 O.2    54  TRP54      -0.2864
     35  CB        27.1660  -58.1090  -37.8370 C.3    54  TRP54       0.0576
     36  CG        25.6700  -58.0680  -37.9400 C.ar   54  TRP54       0.0006
     37  CD1       24.8860  -56.9530  -38.0960 C.ar   54  TRP54       0.0946
     38  CD2       24.7740  -59.1870  -37.8860 C.ar   54  TRP54       0.0152
     39  NE1       23.5610  -57.3260  -38.1300 N.ar   54  TRP54      -0.2442
     40  CE2       23.4720  -58.6920  -38.0310 C.ar   54  TRP54       0.0810
     41  CE3       24.9490  -60.5640  -37.7390 C.ar   54  TRP54       0.0012
     42  CZ2       22.3300  -59.5380  -38.0330 C.ar   54  TRP54       0.0191
     43  CZ3       23.8290  -61.3970  -37.7360 C.ar   54  TRP54       0.0001
     44  CH2       22.5350  -60.8840  -37.8910 C.ar   54  TRP54       0.0015
     45  N         20.9900  -53.0380  -29.4580 N.3   101  HIS101     -0.1226
     46  CA        21.1560  -53.7920  -30.7070 C.3   101  HIS101      0.1752
     47  C         21.2310  -55.2880  -30.4130 C.2   101  HIS101      0.2596
     48  O         20.8960  -55.7210  -29.2900 O.2   101  HIS101     -0.2718
     49  CB        22.3760  -53.2660  -31.4980 C.3   101  HIS101      0.0759
     50  CG        22.2610  -53.4750  -32.9800 C.ar  101  HIS101      0.0818
     51  ND1       22.8280  -54.5530  -33.6310 N.ar  101  HIS101     -0.2268
     52  CD2       21.6240  -52.7570  -33.9370 C.ar  101  HIS101      0.1154
     53  CE1       22.5170  -54.5080  -34.9140 C.ar  101  HIS101      0.1986
     54  NE2       21.7900  -53.4260  -35.1250 N.ar  101  HIS101     -0.2212
     55  N         21.6150  -56.1060  -31.3970 N.am  102  HIS102     -0.1975
     56  CA        21.5770  -57.5560  -31.2450 C.3   102  HIS102      0.1656
     57  C         22.5020  -58.0380  -30.1200 C.2   102  HIS102      0.2291
     58  O         22.1890  -59.0030  -29.4220 O.2   102  HIS102     -0.2864
     59  CB        21.9920  -58.2890  -32.5440 C.3   102  HIS102      0.0771
     60  CG        21.2620  -57.8470  -33.7870 C.ar  102  HIS102      0.0820
     61  ND1       19.9480  -57.4410  -33.7780 N.ar  102  HIS102     -0.2267
     62  CD2       21.6750  -57.7590  -35.0760 C.ar  102  HIS102      0.1154
     63  CE1       19.5750  -57.1510  -35.0120 C.ar  102  HIS102      0.1986
     64  NE2       20.6050  -57.3390  -35.8200 N.ar  102  HIS102     -0.2212
     65  N         14.7770  -47.5140  -31.7260 N.3   144  TYR144     -0.1241
     66  CA        15.1460  -48.8260  -32.2890 C.3   144  TYR144      0.1605
     67  C         15.3230  -49.8160  -31.1570 C.2   144  TYR144      0.2264
     68  O         15.8860  -49.4810  -30.1470 O.2   144  TYR144     -0.2867
     69  CB        16.4440  -48.7250  -33.0840 C.3   144  TYR144      0.0534
     70  CG        17.0620  -50.0510  -33.5150 C.ar  144  TYR144     -0.0201
     71  CD1       17.6290  -50.9300  -32.5780 C.ar  144  TYR144     -0.0009
     72  CD2       17.1520  -50.3940  -34.8550 C.ar  144  TYR144     -0.0009
     73  CE1       18.1980  -52.1440  -32.9820 C.ar  144  TYR144      0.0417
     74  CE2       17.7630  -51.5880  -35.2770 C.ar  144  TYR144      0.0417
     75  CZ        18.2860  -52.4540  -34.3500 C.ar  144  TYR144      0.1957
     76  OH        18.8720  -53.6310  -34.7520 O.3   144  TYR144     -0.2866
     77  N         10.7590  -48.9980  -33.2610 N.3   193  TRP193     -0.1241
     78  CA        11.1520  -49.5940  -34.5590 C.3   193  TRP193      0.1605
     79  C         11.8850  -50.9020  -34.2380 C.2   193  TRP193      0.2264
     80  O         13.0210  -50.8910  -33.8040 O.2   193  TRP193     -0.2867
     81  CB        12.0670  -48.6300  -35.3400 C.3   193  TRP193      0.0550
     82  CG        12.2390  -48.9830  -36.7740 C.ar  193  TRP193      0.0003
     83  CD1       11.4800  -48.5610  -37.8140 C.ar  193  TRP193      0.0946
     84  CD2       13.2580  -49.8210  -37.3450 C.ar  193  TRP193      0.0152
     85  NE1       11.9360  -49.0770  -38.9880 N.ar  193  TRP193     -0.2442
     86  CE2       13.0350  -49.8480  -38.7440 C.ar  193  TRP193      0.0810
     87  CE3       14.3450  -50.5310  -36.8180 C.ar  193  TRP193      0.0012
     88  CZ2       13.8500  -50.5810  -39.6320 C.ar  193  TRP193      0.0191
     89  CZ3       15.1520  -51.2620  -37.6900 C.ar  193  TRP193      0.0001
     90  CH2       14.8810  -51.2990  -39.0820 C.ar  193  TRP193      0.0015
     91  N         13.5760  -54.5540  -34.7240 N.3   195  ASP195     -0.1239
     92  CA        14.4800  -55.2350  -35.6210 C.3   195  ASP195      0.1674
     93  C         14.7610  -56.6030  -35.0310 C.2   195  ASP195      0.2266
     94  O         14.4200  -56.8560  -33.8940 O.2   195  ASP195     -0.2867
     95  CB        15.8000  -54.4690  -35.7210 C.3   195  ASP195      0.1410
     96  CG        16.5510  -54.7740  -37.0140 C.2   195  ASP195      0.3668
     97  OD1       15.9740  -55.4920  -37.8670 O.co2 195  ASP195     -0.2456
     98  OD2       17.6670  -54.2500  -37.1810 O.co2 195  ASP195     -0.2456
     99  N         13.0900  -61.8000  -37.1700 N.3   198  TRP198     -0.1241
    100  CA        12.9440  -62.6380  -38.3420 C.3   198  TRP198      0.1605
    101  C         13.0750  -64.1310  -38.0230 C.2   198  TRP198      0.2264
    102  O         12.7260  -64.9680  -38.8530 O.2   198  TRP198     -0.2867
    103  CB        13.9650  -62.2370  -39.4160 C.3   198  TRP198      0.0550
    104  CG        15.3380  -62.0070  -38.8720 C.ar  198  TRP198      0.0003
    105  CD1       16.1790  -62.9450  -38.3740 C.ar  198  TRP198      0.0946
    106  CD2       16.0250  -60.7570  -38.7640 C.ar  198  TRP198      0.0152
    107  NE1       17.3570  -62.3610  -37.9530 N.ar  198  TRP198     -0.2442
    108  CE2       17.2950  -61.0190  -38.1880 C.ar  198  TRP198      0.0810
    109  CE3       15.6980  -59.4450  -39.1080 C.ar  198  TRP198      0.0012
    110  CZ2       18.2510  -60.0180  -37.9540 C.ar  198  TRP198      0.0191
    111  CZ3       16.6510  -58.4380  -38.8620 C.ar  198  TRP198      0.0001
    112  CH2       17.9150  -58.7390  -38.2900 C.ar  198  TRP198      0.0015
    113  N          7.8190  -54.2400  -39.1630 N.3   228  ARG228     -0.1245
    114  CA         8.8390  -55.2840  -38.9450 C.3   228  ARG228      0.1563
    115  C          8.6280  -56.1090  -37.6530 C.2   228  ARG228      0.2260
    116  O          9.0750  -57.2460  -37.5600 O.2   228  ARG228     -0.2867
    117  CB        10.2380  -54.6960  -38.9650 C.3   228  ARG228      0.0307
    118  CG        11.3070  -55.7580  -39.1470 C.3   228  ARG228      0.0489
    119  CD        12.6910  -55.1940  -39.3590 C.3   228  ARG228      0.2205
    120  NE        12.8150  -54.3770  -40.5700 N.pl3 228  ARG228     -0.0865
    121  CZ        13.9640  -54.0970  -41.1740 C.cat 228  ARG228      0.5346
    122  NH1       15.1110  -54.5640  -40.6970 N.pl3 228  ARG228      0.1354
    123  NH2       13.9860  -53.3460  -42.2570 N.pl3 228  ARG228      0.1354
    124  N         15.2560  -51.1630  -46.6570 N.3   254  GLU254     -0.1245
    125  CA        16.4970  -50.9540  -45.9370 C.3   254  GLU254      0.1567
    126  C         17.6480  -51.0560  -46.9670 C.2   254  GLU254      0.2260
    127  O         17.8430  -52.0910  -47.5850 O.2   254  GLU254     -0.2867
    128  CB        16.5900  -52.0230  -44.8500 C.3   254  GLU254      0.0388
    129  CG        17.9150  -52.1190  -44.1300 C.3   254  GLU254      0.1160
    130  CD        17.8520  -52.9990  -42.8880 C.2   254  GLU254      0.3649
    131  OE1       16.8000  -52.9990  -42.2030 O.co2 254  GLU254     -0.2457
    132  OE2       18.8540  -53.7070  -42.6110 O.co2 254  GLU254     -0.2457
    133  N         15.2860  -46.6510  -44.6170 N.3   274  CYS274     -0.1235
    134  CA        16.5430  -46.2840  -43.9770 C.3   274  CYS274      0.1677
    135  C         17.7290  -46.6410  -44.8930 C.2   274  CYS274      0.2270
    136  O         17.6030  -47.4980  -45.7520 O.2   274  CYS274     -0.2867
    137  CB        16.6710  -46.9840  -42.6290 C.3   274  CYS274      0.0956
    138  SG        16.3910  -48.7690  -42.6200 S.3   274  CYS274     -0.0801
    139  N         26.4510  -49.8390  -40.3340 N.3   282  TRP282     -0.1241
    140  CA        25.5240  -49.0750  -39.4980 C.3   282  TRP282      0.1605
    141  C         26.2270  -48.5960  -38.2400 C.2   282  TRP282      0.2264
    142  O         26.3080  -47.4000  -37.9850 O.2   282  TRP282     -0.2867
    143  CB        24.3070  -49.8970  -39.1210 C.3   282  TRP282      0.0550
    144  CG        23.5080  -50.3770  -40.2820 C.ar  282  TRP282      0.0003
    145  CD1       23.7240  -51.4980  -41.0090 C.ar  282  TRP282      0.0946
    146  CD2       22.3570  -49.7540  -40.8520 C.ar  282  TRP282      0.0152
    147  NE1       22.7760  -51.6250  -41.9870 N.ar  282  TRP282     -0.2442
    148  CE2       21.9180  -50.5700  -41.9050 C.ar  282  TRP282      0.0810
    149  CE3       21.6390  -48.6130  -40.5530 C.ar  282  TRP282      0.0012
    150  CZ2       20.8060  -50.2700  -42.6670 C.ar  282  TRP282      0.0191
    151  CZ3       20.5380  -48.3120  -41.3160 C.ar  282  TRP282      0.0001
    152  CH2       20.1400  -49.1260  -42.3710 C.ar  282  TRP282      0.0015
@<TRIPOS>BOND
     1   127   126    2
     2   126   125    1
     3   124   125    1
     4   125   128    1
     5   136   135    2
     6   135   134    1
     7   128   129    1
     8   133   134    1
     9   129   130    1
    10   134   137    1
    11   130   132   ar
    12   130   131   ar
    13   150   152   ar
    14   150   148   ar
    15   137   138    1
    16   152   151   ar
    17   123   121    1
    18   147   148   ar
    19   147   145   ar
    20   148   146   ar
    21   151   149   ar
    22   121   122    1
    23   121   120    2
    24   145   144   ar
    25   146   149   ar
    26   146   144   ar
    27   120   119    1
    28   139   140    1
    29   144   143    1
    30    88    90   ar
    31    88    86   ar
    32   140   143    1
    33   140   141    1
    34   103   104    1
    35   103   100    1
    36   119   118    1
    37   113   114    1
    38   118   117    1
    39   109   111   ar
    40   109   106   ar
    41    90    89   ar
    42    85    86   ar
    43    85    83   ar
    44   117   114    1
    45   114   115    1
    46     8    10   ar
    47     8     6   ar
    48   104   106   ar
    49   104   105   ar
    50    30    28   ar
    51   111   112   ar
    52   102   101    2
    53   106   108   ar
    54    86    84   ar
    55    10    11   ar
    56     5     6    1
    57     5     2    1
    58   105   107   ar
    59   100   101    1
    60   100    99    1
    61    29    28   ar
    62   112   110   ar
    63   141   142    2
    64     1     2    1
    65   108   110   ar
    66   108   107   ar
    67    39    37   ar
    68    39    40   ar
    69    37    36   ar
    70    42    40   ar
    71    42    44   ar
    72    40    38   ar
    73    28    27    1
    74     6     7   ar
    75    36    38   ar
    76    36    35    1
    77    44    43   ar
    78    38    41   ar
    79    97    96   ar
    80    35    32    1
    81    83    82   ar
    82    41    43   ar
    83    89    87   ar
    84   115   116    2
    85     2     3    1
    86    84    87   ar
    87    84    82   ar
    88    11     9   ar
    89     4     3    2
    90    98    96   ar
    91    20    18   ar
    92    20    21   ar
    93    96    95    1
    94    18    17   ar
    95    82    81    1
    96     7     9   ar
    97    22    23    1
    98    21    19   ar
    99    27    26    1
   100    32    31    1
   101    32    33    1
   102    31    24   am
   103    34    33    2
   104    17    19   ar
   105    17    16    1
   106    64    62   ar
   107    64    63   ar
   108    95    92    1
   109    92    93    1
   110    92    91    1
   111    26    23    1
   112    23    24    1
   113    24    25    2
   114    16    13    1
   115    81    78    1
   116    74    72   ar
   117    74    75   ar
   118    54    53   ar
   119    54    52   ar
   120    62    60   ar
   121    93    94    2
   122    63    61   ar
   123    53    51   ar
   124    72    70   ar
   125    76    75    1
   126    12    13    1
   127    78    79    1
   128    78    77    1
   129    75    73   ar
   130    13    14    1
   131    79    80    2
   132    52    50   ar
   133    15    14    2
   134    60    61   ar
   135    60    59    1
   136    51    50   ar
   137    70    69    1
   138    70    71   ar
   139    69    66    1
   140    73    71   ar
   141    50    49    1
   142    59    56    1
   143    66    65    1
   144    66    67    1
   145    49    46    1
   146    55    56    1
   147    55    47   am
   148    56    57    1
   149    67    68    2
   150    46    47    1
   151    46    45    1
   152    47    48    2
   153    57    58    2
