@<TRIPOS>MOLECULE
tmp/4pcuA02.pdb
 135 132 0 0 0
SMALL
GASTEIGER

@<TRIPOS>ATOM
      1  N        -35.3110  -15.2440    8.8240 N.3   373  LEU373     -0.1231
      2  CA       -34.6850  -14.2710    9.7110 C.3   373  LEU373      0.1693
      3  C        -34.3870  -14.8700   11.0840 C.2   373  LEU373      0.2593
      4  O        -35.0590  -15.8040   11.5290 O.2   373  LEU373     -0.2718
      5  CB       -35.5760  -13.0360    9.8470 C.3   373  LEU373      0.0284
      6  CG       -35.8040  -12.2800    8.5400 C.3   373  LEU373      0.0019
      7  CD1      -36.8190  -11.1790    8.7340 C.3   373  LEU373      0.0001
      8  CD2      -34.4910  -11.7140    8.0310 C.3   373  LEU373      0.0001
      9  N        -33.3700  -14.3240   11.7440 N.am  374  SER374     -0.1938
     10  CA       -32.9070  -14.8470   13.0230 C.3   374  SER374      0.2055
     11  C        -33.4280  -14.0240   14.2000 C.2   374  SER374      0.2643
     12  O        -34.1660  -13.0580   14.0150 O.2   374  SER374     -0.2714
     13  CB       -31.3740  -14.8980   13.0470 C.3   374  SER374      0.2130
     14  OG       -30.8700  -15.8180   12.0950 O.3   374  SER374     -0.2179
     15  N        -33.0330  -14.4180   15.4070 N.am  375  ALA375     -0.1963
     16  CA       -33.4910  -13.7620   16.6260 C.3   375  ALA375      0.1713
     17  C        -33.0460  -12.3030   16.7000 C.2   375  ALA375      0.2458
     18  O        -31.8930  -11.9830   16.4050 O.2   375  ALA375     -0.2730
     19  CB       -32.9940  -14.5260   17.8510 C.3   375  ALA375      0.0333
     20  N        -33.9690  -11.4110   17.0970 N.am  376  PRO376     -0.2716
     21  CA       -33.6240  -10.0030   17.3150 C.3   376  PRO376      0.1536
     22  C        -32.8680   -9.8100   18.6320 C.2   376  PRO376      0.2598
     23  O        -33.0600  -10.5950   19.5640 O.2   376  PRO376     -0.2715
     24  CB       -34.9920   -9.3160   17.3540 C.3   376  PRO376      0.0310
     25  CG       -35.9020  -10.3590   17.9310 C.3   376  PRO376      0.0237
     26  CD       -35.3930  -11.6800   17.3840 C.3   376  PRO376      0.0939
     27  N        -32.0170   -8.7900   18.7090 N.am  377  LEU377     -0.1978
     28  CA       -31.3590   -8.4690   19.9720 C.3   377  LEU377      0.1596
     29  C        -32.0380   -7.2700   20.6400 C.2   377  LEU377      0.2287
     30  O        -32.0550   -6.1580   20.1140 O.2   377  LEU377     -0.2864
     31  CB       -29.8510   -8.2430   19.7710 C.3   377  LEU377      0.0297
     32  CG       -28.8170   -8.0600   20.8870 C.3   377  LEU377      0.0022
     33  CD1      -27.4360   -8.6210   20.5650 C.3   377  LEU377      0.0001
     34  CD2      -28.7220   -6.5770   21.2240 C.3   377  LEU377      0.0001
     35  N        -24.2190   -2.1470   19.7670 N.3   392  LEU392     -0.1245
     36  CA       -24.7180   -1.9370   18.4190 C.3   392  LEU392      0.1561
     37  C        -23.5280   -1.5670   17.5270 C.2   392  LEU392      0.2260
     38  O        -23.5980   -1.6740   16.2990 O.2   392  LEU392     -0.2867
     39  CB       -25.8020   -0.8540   18.4190 C.3   392  LEU392      0.0270
     40  CG       -27.1030   -1.1300   19.1600 C.3   392  LEU392      0.0019
     41  CD1      -27.9150    0.1450   19.1230 C.3   392  LEU392      0.0001
     42  CD2      -27.8640   -2.2720   18.5180 C.3   392  LEU392      0.0001
     43  N        -21.9760   -5.3380   16.9260 N.3   395  LYS395     -0.1231
     44  CA       -22.8340   -6.1370   16.0620 C.3   395  LYS395      0.1693
     45  C        -23.0440   -5.4860   14.6920 C.2   395  LYS395      0.2593
     46  O        -23.3090   -6.1780   13.7050 O.2   395  LYS395     -0.2718
     47  CB       -24.1780   -6.4020   16.7380 C.3   395  LYS395      0.0285
     48  CG       -24.1110   -7.4370   17.8570 C.3   395  LYS395      0.0035
     49  CD       -23.7310   -8.8250   17.3470 C.3   395  LYS395      0.0206
     50  CE       -24.5130   -9.2300   16.1120 C.3   395  LYS395      0.1093
     51  NZ       -23.8510  -10.3390   15.3760 N.3   395  LYS395     -0.1314
     52  N        -22.9290   -4.1610   14.6370 N.am  396  GLY396     -0.1942
     53  CA       -23.0250   -3.4340   13.3800 C.3   396  GLY396      0.2014
     54  C        -24.3930   -3.3030   12.7260 C.2   396  GLY396      0.2639
     55  O        -24.5410   -3.5970   11.5390 O.2   396  GLY396     -0.2714
     56  N        -25.3850   -2.8520   13.4910 N.am  397  PHE397     -0.1959
     57  CA       -26.7000   -2.5190   12.9410 C.3   397  PHE397      0.1771
     58  C        -26.9950   -1.0360   13.1860 C.2   397  PHE397      0.2620
     59  O        -26.3000   -0.3850   13.9650 O.2   397  PHE397     -0.2715
     60  CB       -27.8350   -3.3580   13.5470 C.3   397  PHE397      0.0574
     61  CG       -27.4740   -4.7810   13.8680 C.ar  397  PHE397     -0.0200
     62  CD1      -27.0820   -5.6550   12.8750 C.ar  397  PHE397     -0.0042
     63  CD2      -27.6040   -5.2620   15.1570 C.ar  397  PHE397     -0.0042
     64  CE1      -26.7720   -6.9690   13.1650 C.ar  397  PHE397     -0.0003
     65  CE2      -27.3030   -6.5740   15.4520 C.ar  397  PHE397     -0.0003
     66  CZ       -26.8840   -7.4280   14.4530 C.ar  397  PHE397     -0.0000
     67  N        -27.9700   -0.4850   12.4670 N.am  398  ASP398     -0.1957
     68  CA       -28.3730    0.9040   12.6780 C.3   398  ASP398      0.1840
     69  C        -29.5820    1.0770   13.6080 C.2   398  ASP398      0.2622
     70  O        -29.9730    2.2070   13.9140 O.2   398  ASP398     -0.2715
     71  CB       -28.6750    1.5580   11.3300 C.3   398  ASP398      0.1450
     72  CG       -27.4530    1.6480   10.4410 C.2   398  ASP398      0.3671
     73  OD1      -26.3390    1.4200   10.9500 O.co2 398  ASP398     -0.2456
     74  OD2      -27.6090    1.9320    9.2330 O.co2 398  ASP398     -0.2456
     75  N        -30.1730   -0.0290   14.0530 N.am  399  GLN399     -0.1963
     76  CA       -31.3740    0.0440   14.8880 C.3   399  GLN399      0.1733
     77  C        -31.5480   -1.1770   15.8000 C.2   399  GLN399      0.2616
     78  O        -31.0760   -2.2710   15.4870 O.2   399  GLN399     -0.2715
     79  CB       -32.6190    0.2260   14.0060 C.3   399  GLN399      0.0408
     80  CG       -32.9110   -0.9160   13.0180 C.3   399  GLN399      0.0908
     81  CD       -31.9320   -0.9860   11.8560 C.2   399  GLN399      0.2608
     82  OE1      -31.8430   -0.0640   11.0440 O.2   399  GLN399     -0.2717
     83  NE2      -31.1980   -2.0900   11.7700 N.am  399  GLN399     -0.0878
     84  N        -32.2180   -0.9730   16.9340 N.am  400  ALA400     -0.1964
     85  CA       -32.4770   -2.0480   17.8930 C.3   400  ALA400      0.1713
     86  C        -33.8270   -1.8640   18.5840 C.2   400  ALA400      0.2458
     87  O        -34.2880   -0.7430   18.7360 O.2   400  ALA400     -0.2730
     88  CB       -31.3530   -2.1130   18.9260 C.3   400  ALA400      0.0333
     89  N        -34.4730   -2.9660   18.9960 N.am  401  PRO401     -0.2727
     90  CA       -35.7220   -2.8150   19.7560 C.3   401  PRO401      0.1402
     91  C        -35.4940   -2.3000   21.1810 C.2   401  PRO401      0.2269
     92  O        -34.5310   -2.7200   21.8230 O.2   401  PRO401     -0.2865
     93  CB       -36.2900   -4.2430   19.7870 C.3   401  PRO401      0.0296
     94  CG       -35.6100   -4.9630   18.6640 C.3   401  PRO401      0.0237
     95  CD       -34.2350   -4.3610   18.5910 C.3   401  PRO401      0.0939
     96  N        -35.7350    2.3380    6.8620 N.3   461  HIS461     -0.1241
     97  CA       -34.5960    1.4370    6.9010 C.3   461  HIS461      0.1621
     98  C        -34.9290    0.0470    7.4480 C.2   461  HIS461      0.2264
     99  O        -34.0930   -0.8520    7.4120 O.2   461  HIS461     -0.2867
    100  CB       -33.4850    2.0790    7.7350 C.3   461  HIS461      0.0745
    101  CG       -33.2230    3.5090    7.3810 C.ar  461  HIS461      0.0817
    102  ND1      -33.4250    4.5480    8.2660 N.ar  461  HIS461     -0.2268
    103  CD2      -32.7980    4.0780    6.2260 C.ar  461  HIS461      0.1154
    104  CE1      -33.1270    5.6920    7.6740 C.ar  461  HIS461      0.1986
    105  NE2      -32.7450    5.4340    6.4380 N.ar  461  HIS461     -0.2212
    106  N        -36.3470   -8.6060   13.3480 N.3   474  VAL474     -0.1245
    107  CA       -36.2520   -7.3150   12.6630 C.3   474  VAL474      0.1561
    108  C        -35.7330   -7.4880   11.2330 C.2   474  VAL474      0.2260
    109  O        -34.7170   -8.1490   11.0230 O.2   474  VAL474     -0.2867
    110  CB       -35.3260   -6.3420   13.4300 C.3   474  VAL474      0.0252
    111  CG1      -35.1470   -5.0450   12.6510 C.3   474  VAL474      0.0019
    112  CG2      -35.8750   -6.0650   14.8210 C.3   474  VAL474      0.0019
    113  N        -34.4200   -5.8020    7.5080 N.3   476  THR476     -0.1218
    114  CA       -33.8970   -4.7050    6.6860 C.3   476  THR476      0.1862
    115  C        -33.6300   -5.1960    5.2590 C.2   476  THR476      0.2287
    116  O        -33.9420   -6.3380    4.9300 O.2   476  THR476     -0.2866
    117  CB       -32.6110   -4.0960    7.2750 C.3   476  THR476      0.1770
    118  OG1      -31.5360   -5.0350    7.1720 O.3   476  THR476     -0.2211
    119  CG2      -32.8210   -3.6930    8.7290 C.3   476  THR476      0.0375
    120  N        -30.8960   -5.9020    3.2460 N.3   478  ILE478     -0.1231
    121  CA       -29.8640   -6.8430    2.8120 C.3   478  ILE478      0.1692
    122  C        -30.3160   -8.3050    2.8910 C.2   478  ILE478      0.2592
    123  O        -29.7460   -9.1610    2.2230 O.2   478  ILE478     -0.2718
    124  CB       -28.5610   -6.6520    3.6300 C.3   478  ILE478      0.0266
    125  CG1      -27.3950   -7.4280    3.0090 C.3   478  ILE478      0.0019
    126  CG2      -28.7690   -7.0530    5.0790 C.3   478  ILE478      0.0020
    127  CD1      -26.9310   -6.8930    1.6740 C.3   478  ILE478      0.0001
    128  N        -31.3430   -8.5920    3.6870 N.am  479  ASP479     -0.1974
    129  CA       -31.9090   -9.9400    3.7240 C.3   479  ASP479      0.1709
    130  C        -32.7750  -10.2160    2.4950 C.2   479  ASP479      0.2293
    131  O        -32.7560  -11.3220    1.9480 O.2   479  ASP479     -0.2864
    132  CB       -32.7170  -10.1550    5.0060 C.3   479  ASP479      0.1436
    133  CG       -32.0000   -9.6510    6.2350 C.2   479  ASP479      0.3671
    134  OD1      -30.7570   -9.6070    6.2080 O.co2 479  ASP479     -0.2456
    135  OD2      -32.6770   -9.2940    7.2190 O.co2 479  ASP479     -0.2456
@<TRIPOS>BOND
     1   127   125    1
     2   131   130    2
     3   123   122    2
     4   130   129    1
     5   121   122    1
     6   121   120    1
     7   121   124    1
     8   122   128   am
     9   125   124    1
    10   124   126    1
    11   128   129    1
    12   129   132    1
    13   116   115    2
    14   132   133    1
    15   115   114    1
    16   134   133   ar
    17   103   105   ar
    18   103   101   ar
    19   133   135   ar
    20   105   104   ar
    21   114   117    1
    22   114   113    1
    23    96    97    1
    24    97    98    1
    25    97   100    1
    26   118   117    1
    27   117   119    1
    28   101   100    1
    29   101   102   ar
    30    99    98    2
    31   104   102   ar
    32     8     6    1
    33     6     7    1
    34     6     5    1
    35     1     2    1
    36    74    72   ar
    37     2     5    1
    38     2     3    1
    39    72    73   ar
    40    72    71    1
    41   109   108    2
    42    82    81    2
    43     3     4    2
    44     3     9   am
    45   108   107    1
    46    71    68    1
    47    55    54    2
    48     9    10    1
    49    83    81   am
    50    81    80    1
    51    14    13    1
    52    67    68    1
    53    67    58   am
    54   111   110    1
    55   107   106    1
    56   107   110    1
    57    68    69    1
    58    54    53    1
    59    54    56   am
    60    62    64   ar
    61    62    61   ar
    62    57    58    1
    63    57    56    1
    64    57    60    1
    65    80    79    1
    66    10    13    1
    67    10    11    1
    68    64    66   ar
    69    58    59    2
    70    53    52    1
    71   110   112    1
    72    60    61    1
    73    69    70    2
    74    69    75   am
    75    46    45    2
    76    61    63   ar
    77    79    76    1
    78    12    11    2
    79    75    76    1
    80    11    15   am
    81    66    65   ar
    82    52    45   am
    83    45    44    1
    84    76    77    1
    85    63    65   ar
    86    51    50    1
    87    15    16    1
    88    78    77    2
    89    77    84   am
    90    44    47    1
    91    44    43    1
    92    50    49    1
    93    38    37    2
    94    18    17    2
    95    16    17    1
    96    16    19    1
    97    17    20   am
    98    47    48    1
    99    84    85    1
   100    20    21    1
   101    20    26    1
   102    21    24    1
   103    21    22    1
   104    49    48    1
   105    24    25    1
   106    26    25    1
   107    37    36    1
   108    85    86    1
   109    85    88    1
   110    39    36    1
   111    39    40    1
   112    36    35    1
   113    42    40    1
   114    86    87    2
   115    86    89   am
   116    95    94    1
   117    95    89    1
   118    22    27   am
   119    22    23    2
   120    94    93    1
   121    27    28    1
   122    89    90    1
   123    41    40    1
   124    90    93    1
   125    90    91    1
   126    31    28    1
   127    31    32    1
   128    28    29    1
   129    30    29    2
   130    33    32    1
   131    32    34    1
   132    91    92    2
