@<TRIPOS>MOLECULE
tmp/4pcvB01.pdb
 92 90 0 0 0
SMALL
GASTEIGER

@<TRIPOS>ATOM
      1  N         83.3550   42.5920   48.2060 N.3     4  ALA4       -0.1231
      2  CA        82.2830   42.9910   47.2990 C.3     4  ALA4        0.1694
      3  C         81.0620   43.5450   48.0300 C.2     4  ALA4        0.2592
      4  O         80.3480   44.3910   47.4940 O.2     4  ALA4       -0.2718
      5  CB        81.8770   41.8120   46.4250 C.3     4  ALA4        0.0304
      6  N         80.8290   43.0750   49.2520 N.am    5  PHE5       -0.1976
      7  CA        79.6250   43.4540   49.9840 C.3     5  PHE5        0.1639
      8  C         79.9240   44.1190   51.3240 C.2     5  PHE5        0.2290
      9  O         79.1650   43.9730   52.2840 O.2     5  PHE5       -0.2864
     10  CB        78.7360   42.2260   50.1950 C.3     5  PHE5        0.0560
     11  CG        78.3380   41.5440   48.9180 C.ar    5  PHE5       -0.0200
     12  CD1       77.4460   42.1450   48.0460 C.ar    5  PHE5       -0.0042
     13  CD2       78.8570   40.3050   48.5870 C.ar    5  PHE5       -0.0042
     14  CE1       77.0800   41.5230   46.8680 C.ar    5  PHE5       -0.0003
     15  CE2       78.4950   39.6760   47.4100 C.ar    5  PHE5       -0.0003
     16  CZ        77.6050   40.2860   46.5500 C.ar    5  PHE5       -0.0000
     17  N         77.3340   46.2040   53.4600 N.3     8  LYS8       -0.1245
     18  CA        76.0500   45.6010   53.1270 C.3     8  LYS8        0.1561
     19  C         75.6040   44.6390   54.2210 C.2     8  LYS8        0.2260
     20  O         76.4210   43.9310   54.8090 O.2     8  LYS8       -0.2867
     21  CB        76.1310   44.8620   51.7890 C.3     8  LYS8        0.0271
     22  CG        76.6910   45.6860   50.6420 C.3     8  LYS8        0.0035
     23  CD        75.6450   46.6130   50.0510 C.3     8  LYS8        0.0206
     24  CE        76.1960   47.3470   48.8380 C.3     8  LYS8        0.1093
     25  NZ        75.1420   48.1080   48.1120 N.3     8  LYS8       -0.1314
     26  N         70.2220   44.7380   52.7540 N.3    78  ASP78      -0.1225
     27  CA        70.5620   44.9060   51.3460 C.3    78  ASP78       0.1805
     28  C         70.3170   43.6290   50.5540 C.2    78  ASP78       0.2597
     29  O         69.9090   43.6750   49.3940 O.2    78  ASP78      -0.2718
     30  CB        72.0220   45.3330   51.1930 C.3    78  ASP78       0.1424
     31  CG        72.3480   46.5770   51.9860 C.2    78  ASP78       0.3668
     32  OD1       72.0730   47.6880   51.4900 O.co2  78  ASP78      -0.2456
     33  OD2       72.8760   46.4440   53.1080 O.co2  78  ASP78      -0.2456
     34  N         70.5830   42.4900   51.1850 N.am   79  ILE79      -0.1980
     35  CA        70.4410   41.1970   50.5270 C.3    79  ILE79       0.1595
     36  C         69.6820   40.2080   51.4030 C.2    79  ILE79       0.2287
     37  O         70.0310   40.0050   52.5650 O.2    79  ILE79      -0.2864
     38  CB        71.8140   40.5880   50.1720 C.3    79  ILE79       0.0276
     39  CG1       72.5970   41.5200   49.2470 C.3    79  ILE79       0.0022
     40  CG2       71.6420   39.2160   49.5320 C.3    79  ILE79       0.0022
     41  CD1       74.0350   41.1000   49.0420 C.3    79  ILE79       0.0001
     42  N         66.6230   49.1360   50.0830 N.3   117  PRO117     -0.2102
     43  CA        66.8890   50.2910   49.2230 C.3   117  PRO117      0.1504
     44  C         66.8830   49.8680   47.7580 C.2   117  PRO117      0.2576
     45  O         66.7230   48.6770   47.4790 O.2   117  PRO117     -0.2718
     46  CB        68.2810   50.7380   49.6650 C.3   117  PRO117      0.0282
     47  CG        68.9430   49.4660   50.0790 C.3   117  PRO117      0.0208
     48  CD        67.8600   48.6080   50.6890 C.3   117  PRO117      0.0893
     49  N         67.0510   50.8150   46.8410 N.am  118  GLU118     -0.1966
     50  CA        67.1600   50.4790   45.4260 C.3   118  GLU118      0.1733
     51  C         68.4180   49.6550   45.1820 C.2   118  GLU118      0.2617
     52  O         69.4990   49.9980   45.6610 O.2   118  GLU118     -0.2715
     53  CB        67.1750   51.7380   44.5570 C.3   118  GLU118      0.0429
     54  CG        65.8100   52.3780   44.3530 C.3   118  GLU118      0.1163
     55  CD        65.8090   53.4010   43.2320 C.2   118  GLU118      0.3649
     56  OE1       66.9030   53.7360   42.7300 O.co2 118  GLU118     -0.2457
     57  OE2       64.7150   53.8660   42.8510 O.co2 118  GLU118     -0.2457
     58  N         68.2700   48.5630   44.4400 N.am  119  GLY119     -0.1940
     59  CA        69.3840   47.6730   44.1750 C.3   119  GLY119      0.2014
     60  C         69.3860   46.4760   45.1060 C.2   119  GLY119      0.2639
     61  O         70.2810   45.6330   45.0430 O.2   119  GLY119     -0.2714
     62  N         68.3800   46.4080   45.9740 N.am  120  GLY120     -0.1939
     63  CA        68.2340   45.2930   46.8930 C.3   120  GLY120      0.2014
     64  C         68.1120   43.9740   46.1550 C.2   120  GLY120      0.2638
     65  O         67.5500   43.9160   45.0600 O.2   120  GLY120     -0.2714
     66  N         68.6470   42.9130   46.7510 N.am  121  ARG121     -0.1977
     67  CA        68.6780   41.6070   46.0990 C.3   121  ARG121      0.1597
     68  C         67.9960   40.5360   46.9440 C.2   121  ARG121      0.2287
     69  O         68.3750   40.3000   48.0910 O.2   121  ARG121     -0.2864
     70  CB        70.1210   41.1890   45.8040 C.3   121  ARG121      0.0334
     71  CG        70.9680   42.2730   45.1570 C.3   121  ARG121      0.0492
     72  CD        70.4410   42.6470   43.7820 C.3   121  ARG121      0.2205
     73  NE        71.1530   43.7920   43.2190 N.pl3 121  ARG121     -0.0865
     74  CZ        72.2310   43.6960   42.4480 C.cat 121  ARG121      0.5346
     75  NH1       72.7250   42.5040   42.1410 N.pl3 121  ARG121      0.1354
     76  NH2       72.8160   44.7920   41.9820 N.pl3 121  ARG121      0.1354
     77  N         73.8440   38.6770   43.4950 N.3   175  ALA175     -0.1231
     78  CA        73.7880   39.7690   44.4560 C.3   175  ALA175      0.1694
     79  C         74.7600   40.8820   44.0770 C.2   175  ALA175      0.2593
     80  O         74.7410   41.9610   44.6670 O.2   175  ALA175     -0.2718
     81  CB        74.0890   39.2560   45.8560 C.3   175  ALA175      0.0304
     82  N         75.6060   40.6110   43.0880 N.am  176  GLY176     -0.1943
     83  CA        76.6250   41.5570   42.6690 C.3   176  GLY176      0.1998
     84  C         76.1180   42.6310   41.7240 C.2   176  GLY176      0.2480
     85  O         74.9480   42.6280   41.3460 O.2   176  GLY176     -0.2729
     86  N         77.0060   43.5600   41.3360 N.am  177  PRO177     -0.2726
     87  CA        76.6850   44.6970   40.4640 C.3   177  PRO177      0.1402
     88  C         76.2470   44.2870   39.0580 C.2   177  PRO177      0.2269
     89  O         75.3680   44.9280   38.4810 O.2   177  PRO177     -0.2865
     90  CB        78.0050   45.4780   40.4050 C.3   177  PRO177      0.0296
     91  CG        78.7760   45.0340   41.6030 C.3   177  PRO177      0.0237
     92  CD        78.4040   43.5990   41.7960 C.3   177  PRO177      0.0939
@<TRIPOS>BOND
     1    89    88    2
     2    88    87    1
     3    90    87    1
     4    90    91    1
     5    87    86    1
     6    86    84   am
     7    86    92    1
     8    85    84    2
     9    91    92    1
    10    84    83    1
    11    76    74    1
    12    75    74    1
    13    74    73    2
    14    83    82    1
    15    56    55   ar
    16    57    55   ar
    17    82    79   am
    18    73    72    1
    19    55    54    1
    20    77    78    1
    21    72    71    1
    22    79    78    1
    23    79    80    2
    24    59    58    1
    25    59    60    1
    26    54    53    1
    27    58    51   am
    28    78    81    1
    29    53    50    1
    30    61    60    2
    31    65    64    2
    32    60    62   am
    33    71    70    1
    34    51    50    1
    35    51    52    2
    36    50    49    1
    37    70    67    1
    38    62    63    1
    39    67    66    1
    40    67    68    1
    41    64    66   am
    42    64    63    1
    43     5     2    1
    44    16    14   ar
    45    16    15   ar
    46    49    44   am
    47    14    12   ar
    48    68    69    2
    49     2     3    1
    50     2     1    1
    51    15    13   ar
    52    45    44    2
    53     4     3    2
    54    44    43    1
    55     3     6   am
    56    12    11   ar
    57    25    24    1
    58    13    11   ar
    59    24    23    1
    60    11    10    1
    61    41    39    1
    62    43    46    1
    63    43    42    1
    64    39    38    1
    65     6     7    1
    66    29    28    2
    67    40    38    1
    68    46    47    1
    69     7    10    1
    70     7     8    1
    71    23    22    1
    72    47    48    1
    73    42    48    1
    74    38    35    1
    75    35    34    1
    76    35    36    1
    77    28    34   am
    78    28    27    1
    79    22    21    1
    80    30    27    1
    81    30    31    1
    82     8     9    2
    83    27    26    1
    84    36    37    2
    85    32    31   ar
    86    21    18    1
    87    31    33   ar
    88    18    17    1
    89    18    19    1
    90    19    20    2
