@<TRIPOS>MOLECULE
tmp/4pcvA01.pdb
 71 66 0 0 0
SMALL
GASTEIGER

@<TRIPOS>ATOM
      1  N         28.9500   24.4830   45.7700 N.3    14  SER14      -0.1202
      2  CA        27.6670   25.1530   45.9790 C.3    14  SER14       0.2020
      3  C         27.4300   26.3200   45.0180 C.2    14  SER14       0.2619
      4  O         26.2850   26.6460   44.7060 O.2    14  SER14      -0.2717
      5  CB        27.5530   25.6550   47.4210 C.3    14  SER14       0.2103
      6  OG        28.3810   26.7830   47.6380 O.3    14  SER14      -0.2182
      7  N         28.5060   26.9460   44.5500 N.am   15  ARG15      -0.1965
      8  CA        28.3820   28.1570   43.7410 C.3    15  ARG15       0.1729
      9  C         29.2080   28.1260   42.4580 C.2    15  ARG15       0.2616
     10  O         30.1810   27.3800   42.3500 O.2    15  ARG15      -0.2715
     11  CB        28.7920   29.3810   44.5610 C.3    15  ARG15       0.0348
     12  CG        27.8750   29.7070   45.7230 C.3    15  ARG15       0.0492
     13  CD        28.4630   30.8320   46.5530 C.3    15  ARG15       0.2205
     14  NE        28.7710   32.0050   45.7400 N.pl3  15  ARG15      -0.0865
     15  CZ        29.5020   33.0330   46.1580 C.cat  15  ARG15       0.5346
     16  NH1       30.0100   33.0340   47.3830 N.pl3  15  ARG15       0.1354
     17  NH2       29.7310   34.0580   45.3490 N.pl3  15  ARG15       0.1354
     18  N         28.8010   28.9540   41.4980 N.am   16  GLY16      -0.1955
     19  CA        29.5490   29.1930   40.2750 C.3    16  GLY16       0.1869
     20  C         30.0010   27.9650   39.5110 C.2    16  GLY16       0.2309
     21  O         29.1900   27.1260   39.1170 O.2    16  GLY16      -0.2863
     22  N         29.0110   24.6800   41.1750 N.3    19  ALA19      -0.1231
     23  CA        27.6090   24.3370   40.9640 C.3    19  ALA19       0.1694
     24  C         27.3770   23.7670   39.5670 C.2    19  ALA19       0.2591
     25  O         26.6170   22.8160   39.3980 O.2    19  ALA19      -0.2718
     26  CB        26.7240   25.5560   41.1910 C.3    19  ALA19       0.0304
     27  N         28.0340   24.3530   38.5710 N.am   20  ALA20      -0.1980
     28  CA        27.9030   23.8870   37.1930 C.3    20  ALA20       0.1597
     29  C         28.4410   22.4670   37.0450 C.2    20  ALA20       0.2287
     30  O         27.8960   21.6620   36.2910 O.2    20  ALA20      -0.2864
     31  CB        28.6250   24.8310   36.2420 C.3    20  ALA20       0.0319
     32  N         25.8590   20.1170   38.5790 N.3    23  ARG23      -0.1245
     33  CA        24.7440   19.9410   37.6540 C.3    23  ARG23       0.1563
     34  C         25.1110   19.0190   36.4950 C.2    23  ARG23       0.2260
     35  O         24.3070   18.1870   36.0740 O.2    23  ARG23      -0.2867
     36  CB        24.2750   21.2930   37.1100 C.3    23  ARG23       0.0307
     37  CG        23.6490   22.2070   38.1520 C.3    23  ARG23       0.0489
     38  CD        23.0520   23.4470   37.5030 C.3    23  ARG23       0.2205
     39  NE        22.4240   24.3350   38.4770 N.pl3  23  ARG23      -0.0865
     40  CZ        22.9830   25.4450   38.9470 C.cat  23  ARG23       0.5346
     41  NH1       24.1870   25.8140   38.5310 N.pl3  23  ARG23       0.1354
     42  NH2       22.3350   26.1910   39.8320 N.pl3  23  ARG23       0.1354
     43  N         22.8030   28.5970   49.2520 N.3    42  ALA42      -0.1245
     44  CA        23.1340   28.2390   47.8790 C.3    42  ALA42       0.1562
     45  C         23.2180   26.7240   47.7320 C.2    42  ALA42       0.2260
     46  O         22.7110   26.1540   46.7650 O.2    42  ALA42      -0.2867
     47  CB        24.4430   28.8880   47.4590 C.3    42  ALA42       0.0290
     48  N         36.8650   31.2360   44.6160 N.3    84  ILE84      -0.1245
     49  CA        37.3180   32.6070   44.4120 C.3    84  ILE84       0.1561
     50  C         38.7580   32.7960   44.8780 C.2    84  ILE84       0.2260
     51  O         39.0440   32.7610   46.0760 O.2    84  ILE84      -0.2867
     52  CB        36.4150   33.6150   45.1490 C.3    84  ILE84       0.0252
     53  CG1       34.9700   33.4880   44.6640 C.3    84  ILE84       0.0019
     54  CG2       36.9270   35.0340   44.9530 C.3    84  ILE84       0.0019
     55  CD1       34.8000   33.7310   43.1790 C.3    84  ILE84       0.0001
     56  N         31.2220   29.0890   33.9340 N.3   162  PRO162     -0.2102
     57  CA        31.0710   27.8410   34.6970 C.3   162  PRO162      0.1504
     58  C         30.6500   26.6430   33.8450 C.2   162  PRO162      0.2575
     59  O         31.1890   25.5520   34.0280 O.2   162  PRO162     -0.2718
     60  CB        29.9760   28.1830   35.7120 C.3   162  PRO162      0.0282
     61  CG        30.0630   29.6480   35.8760 C.3   162  PRO162      0.0208
     62  CD        30.4070   30.1720   34.5170 C.3   162  PRO162      0.0893
     63  N         29.7060   26.8470   32.9310 N.am  163  GLU163     -0.1980
     64  CA        29.2210   25.7650   32.0790 C.3   163  GLU163      0.1602
     65  C         30.3170   25.2270   31.1630 C.2   163  GLU163      0.2287
     66  O         30.3680   24.0300   30.8830 O.2   163  GLU163     -0.2864
     67  CB        28.0260   26.2310   31.2420 C.3   163  GLU163      0.0415
     68  CG        26.7150   26.3170   32.0130 C.3   163  GLU163      0.1163
     69  CD        26.6890   27.4630   33.0060 C.2   163  GLU163      0.3649
     70  OE1       27.4110   28.4590   32.7870 O.co2 163  GLU163     -0.2457
     71  OE2       25.9490   27.3640   34.0080 O.co2 163  GLU163     -0.2457
@<TRIPOS>BOND
     1    66    65    2
     2    65    64    1
     3    67    68    1
     4    67    64    1
     5    68    69    1
     6    64    63    1
     7    70    69   ar
     8    63    58   am
     9    69    71   ar
    10    58    59    2
    11    58    57    1
    12    56    62    1
    13    56    57    1
    14    62    61    1
    15    57    60    1
    16    60    61    1
    17    35    34    2
    18    31    28    1
    19    30    29    2
    20    34    33    1
    21    29    28    1
    22    36    33    1
    23    36    37    1
    24    28    27    1
    25    38    37    1
    26    38    39    1
    27    33    32    1
    28    39    40    2
    29    41    40    1
    30    27    24   am
    31    40    42    1
    32    21    20    2
    33    25    24    2
    34    20    19    1
    35    24    23    1
    36    19    18    1
    37    23    22    1
    38    23    26    1
    39    18     9   am
    40    10     9    2
    41     9     8    1
    42    55    53    1
    43     8     7    1
    44     8    11    1
    45    49    48    1
    46    49    50    1
    47    49    52    1
    48     7     3   am
    49    11    12    1
    50    53    52    1
    51     4     3    2
    52    50    51    2
    53    54    52    1
    54     3     2    1
    55    17    15    1
    56    12    13    1
    57    14    15    2
    58    14    13    1
    59     1     2    1
    60     2     5    1
    61    15    16    1
    62    46    45    2
    63     5     6    1
    64    47    44    1
    65    45    44    1
    66    44    43    1
