@<TRIPOS>MOLECULE
tmp/4pcvB00.pdb
 83 76 0 0 0
SMALL
GASTEIGER

@<TRIPOS>ATOM
      1  N         68.1420   18.1730   45.1180 N.3   129  ASN129     -0.1240
      2  CA        67.6030   16.9590   44.5170 C.3   129  ASN129      0.1653
      3  C         68.5390   15.7700   44.7010 C.2   129  ASN129      0.2266
      4  O         69.0280   15.5190   45.8020 O.2   129  ASN129     -0.2867
      5  CB        67.3240   17.1810   43.0290 C.3   129  ASN129      0.1155
      6  CG        66.6510   16.0060   42.3630 C.2   129  ASN129      0.2627
      7  OD1       66.4940   14.9180   42.9360 O.2   129  ASN129     -0.2716
      8  ND2       66.3520   16.1930   41.0990 N.am  129  ASN129     -0.0877
      9  N         56.5920   12.6110   44.8350 N.3   131  MET131     -0.1245
     10  CA        57.2590   13.7420   44.2030 C.3   131  MET131      0.1570
     11  C         56.3560   14.9730   44.1630 C.2   131  MET131      0.2261
     12  O         56.8280   16.0930   43.9650 O.2   131  MET131     -0.2867
     13  CB        57.7010   13.3710   42.7850 C.3   131  MET131      0.0387
     14  CG        58.7950   14.2600   42.2210 C.3   131  MET131      0.0595
     15  SD        59.0860   13.9690   40.4670 S.3   131  MET131     -0.1393
     16  CE        57.5450   14.5560   39.7740 C.3   131  MET131      0.0692
     17  N         57.1240   18.1110   46.3090 N.3   134  TYR134     -0.1227
     18  CA        58.3600   18.7170   45.8290 C.3   134  TYR134      0.1736
     19  C         58.1480   19.4360   44.4990 C.2   134  TYR134      0.2595
     20  O         58.6540   20.5390   44.2900 O.2   134  TYR134     -0.2718
     21  CB        59.4490   17.6490   45.6870 C.3   134  TYR134      0.0548
     22  CG        60.6160   18.0650   44.8170 C.ar  134  TYR134     -0.0200
     23  CD1       61.6150   18.8950   45.3080 C.ar  134  TYR134     -0.0009
     24  CD2       60.7230   17.6170   43.5040 C.ar  134  TYR134     -0.0009
     25  CE1       62.6830   19.2740   44.5160 C.ar  134  TYR134      0.0417
     26  CE2       61.7860   17.9900   42.7060 C.ar  134  TYR134      0.0417
     27  CZ        62.7630   18.8180   43.2180 C.ar  134  TYR134      0.1957
     28  OH        63.8230   19.1910   42.4270 O.3   134  TYR134     -0.2866
     29  N         57.4000   18.7990   43.6050 N.am  135  ALA135     -0.1980
     30  CA        57.1250   19.3660   42.2880 C.3   135  ALA135      0.1597
     31  C         56.3290   20.6610   42.4000 C.2   135  ALA135      0.2287
     32  O         56.6230   21.6450   41.7210 O.2   135  ALA135     -0.2864
     33  CB        56.3810   18.3610   41.4290 C.3   135  ALA135      0.0319
     34  N         58.6380   23.5420   43.9060 N.3   138  LYS138     -0.1231
     35  CA        59.6110   24.0340   42.9340 C.3   138  LYS138      0.1693
     36  C         58.9520   24.9250   41.8830 C.2   138  LYS138      0.2592
     37  O         59.4750   25.9860   41.5330 O.2   138  LYS138     -0.2718
     38  CB        60.3260   22.8660   42.2540 C.3   138  LYS138      0.0285
     39  CG        61.3110   23.2940   41.1790 C.3   138  LYS138      0.0035
     40  CD        62.0210   22.1000   40.5660 C.3   138  LYS138      0.0206
     41  CE        63.0140   22.5420   39.5030 C.3   138  LYS138      0.1093
     42  NZ        63.8070   21.4020   38.9680 N.3   138  LYS138     -0.1314
     43  N         57.8020   24.4880   41.3800 N.am  139  SER139     -0.1952
     44  CA        57.0630   25.2640   40.3900 C.3   139  SER139      0.1924
     45  C         56.5560   26.5660   40.9930 C.2   139  SER139      0.2314
     46  O         56.5820   27.6110   40.3430 O.2   139  SER139     -0.2863
     47  CB        55.8920   24.4540   39.8270 C.3   139  SER139      0.2116
     48  OG        56.3470   23.3440   39.0770 O.3   139  SER139     -0.2180
     49  N         59.2200   29.2860   41.0510 N.3   142  GLN142     -0.1245
     50  CA        59.4530   29.8560   39.7290 C.3   142  GLN142      0.1566
     51  C         58.3820   30.8840   39.3790 C.2   142  GLN142      0.2260
     52  O         58.6870   31.9640   38.8730 O.2   142  GLN142     -0.2867
     53  CB        59.4960   28.7550   38.6690 C.3   142  GLN142      0.0367
     54  CG        59.6430   29.2730   37.2480 C.3   142  GLN142      0.0905
     55  CD        59.7610   28.1570   36.2270 C.2   142  GLN142      0.2608
     56  OE1       60.6210   27.2840   36.3410 O.2   142  GLN142     -0.2717
     57  NE2       58.8890   28.1770   35.2260 N.am  142  GLN142     -0.0878
     58  N         58.7890   35.3150   39.2220 N.3   146  ARG146     -0.1245
     59  CA        58.3250   36.1280   38.1040 C.3   146  ARG146      0.1563
     60  C         57.2980   37.1550   38.5670 C.2   146  ARG146      0.2260
     61  O         57.3750   38.3280   38.2050 O.2   146  ARG146     -0.2867
     62  CB        57.7310   35.2420   37.0060 C.3   146  ARG146      0.0307
     63  CG        58.7410   34.4300   36.2260 C.3   146  ARG146      0.0489
     64  CD        58.1220   33.5570   35.1120 C.3   146  ARG146      0.2205
     65  NE        57.2370   32.5960   35.7950 N.pl3 146  ARG146     -0.0865
     66  CZ        56.4660   31.7240   35.1000 C.cat 146  ARG146      0.5346
     67  NH1       56.5090   31.7850   33.7550 N.pl3 146  ARG146      0.1354
     68  NH2       55.7250   30.8600   35.7810 N.pl3 146  ARG146      0.1354
     69  N         64.5000   31.6430   37.4360 N.3   186  MET186     -0.1245
     70  CA        65.0050   30.5170   38.2110 C.3   186  MET186      0.1570
     71  C         66.2750   29.9740   37.5640 C.2   186  MET186      0.2261
     72  O         66.2890   29.6570   36.3750 O.2   186  MET186     -0.2867
     73  CB        63.9520   29.4130   38.3310 C.3   186  MET186      0.0387
     74  CG        64.3340   28.3150   39.3120 C.3   186  MET186      0.0595
     75  SD        63.0640   27.0540   39.5320 S.3   186  MET186     -0.1393
     76  CE        63.1970   26.1600   37.9860 C.3   186  MET186      0.0692
     77  N         69.1830   27.0990   37.5480 N.3   188  THR188     -0.1218
     78  CA        69.6030   25.7690   37.9690 C.3   188  THR188      0.1862
     79  C         71.1250   25.6590   37.9330 C.2   188  THR188      0.2287
     80  O         71.7720   26.1980   37.0350 O.2   188  THR188     -0.2866
     81  CB        68.9800   24.6730   37.0790 C.3   188  THR188      0.1770
     82  OG1       67.5690   24.8920   36.9640 O.3   188  THR188     -0.2211
     83  CG2       69.2270   23.2910   37.6700 C.3   188  THR188      0.0375
@<TRIPOS>BOND
     1    67    66    1
     2    66    68    1
     3    66    65    2
     4    64    65    1
     5    64    63    1
     6    57    55   am
     7    63    62    1
     8    55    56    2
     9    55    54    1
    10    72    71    2
    11    82    81    1
    12    62    59    1
    13    80    79    2
    14    81    83    1
    15    81    78    1
    16    54    53    1
    17    69    70    1
    18    77    78    1
    19    71    70    1
    20    79    78    1
    21    76    75    1
    22    59    60    1
    23    59    58    1
    24    61    60    2
    25    70    73    1
    26    73    74    1
    27    53    50    1
    28    52    51    2
    29    42    41    1
    30    48    47    1
    31    74    75    1
    32    51    50    1
    33    41    40    1
    34    50    49    1
    35    16    15    1
    36    47    44    1
    37    46    45    2
    38    44    45    1
    39    44    43    1
    40    15    14    1
    41    40    39    1
    42     8     6   am
    43    39    38    1
    44    43    36   am
    45    33    30    1
    46    37    36    2
    47    32    31    2
    48    36    35    1
    49    14    13    1
    50    38    35    1
    51    30    31    1
    52    30    29    1
    53     6     7    2
    54     6     5    1
    55    28    27    1
    56    26    27   ar
    57    26    24   ar
    58    13    10    1
    59    35    34    1
    60     5     2    1
    61    27    25   ar
    62    24    22   ar
    63    29    19   am
    64    12    11    2
    65    11    10    1
    66    10     9    1
    67    20    19    2
    68    19    18    1
    69    25    23   ar
    70     2     3    1
    71     2     1    1
    72     3     4    2
    73    22    23   ar
    74    22    21    1
    75    21    18    1
    76    18    17    1
