@<TRIPOS>MOLECULE
tmp/4pcwC00.pdb
 129 123 0 0 0
SMALL
GASTEIGER

@<TRIPOS>ATOM
      1  N        -12.9170   19.1830    4.5530 N.3    40  PHE40      -0.1241
      2  CA       -14.0400   19.2220    5.4860 C.3    40  PHE40       0.1605
      3  C        -14.3760   20.6550    5.8980 C.2    40  PHE40       0.2264
      4  O        -14.8420   20.8980    7.0100 O.2    40  PHE40      -0.2867
      5  CB       -13.7250   18.3740    6.7200 C.3    40  PHE40       0.0534
      6  CG       -13.3400   16.9550    6.3970 C.ar   40  PHE40      -0.0203
      7  CD1      -13.9060   16.2920    5.3180 C.ar   40  PHE40      -0.0042
      8  CD2      -12.4060   16.2850    7.1700 C.ar   40  PHE40      -0.0042
      9  CE1      -13.5500   14.9880    5.0200 C.ar   40  PHE40      -0.0003
     10  CE2      -12.0460   14.9830    6.8770 C.ar   40  PHE40      -0.0003
     11  CZ       -12.6200   14.3330    5.8010 C.ar   40  PHE40      -0.0000
     12  N        -18.3310   21.1940    6.3150 N.3    43  ILE43      -0.1231
     13  CA       -19.0750   20.3220    7.2230 C.3    43  ILE43       0.1692
     14  C        -18.6630   20.4560    8.6880 C.2    43  ILE43       0.2591
     15  O        -19.2960   19.8680    9.5650 O.2    43  ILE43      -0.2718
     16  CB       -18.9230   18.8470    6.8080 C.3    43  ILE43       0.0266
     17  CG1      -17.4530   18.4190    6.8700 C.3    43  ILE43       0.0019
     18  CG2      -19.4880   18.6440    5.4060 C.3    43  ILE43       0.0020
     19  CD1      -17.2280   16.9580    6.5690 C.3    43  ILE43       0.0001
     20  N        -17.6060   21.2190    8.9510 N.am   44  LEU44      -0.1980
     21  CA       -17.1340   21.4240   10.3170 C.3    44  LEU44       0.1596
     22  C        -17.5520   22.7860   10.8580 C.2    44  LEU44       0.2287
     23  O        -17.3940   23.8090   10.1950 O.2    44  LEU44      -0.2864
     24  CB       -15.6140   21.2680   10.3840 C.3    44  LEU44       0.0297
     25  CG       -15.1410   19.8160   10.4820 C.3    44  LEU44       0.0022
     26  CD1      -13.6430   19.7190   10.2700 C.3    44  LEU44       0.0001
     27  CD2      -15.5260   19.2140   11.8300 C.3    44  LEU44       0.0001
     28  N         -7.6380   14.8110   16.0750 N.3    56  PHE56      -0.1241
     29  CA        -7.8050   13.9350   14.9220 C.3    56  PHE56       0.1605
     30  C         -6.5460   13.1300   14.6390 C.2    56  PHE56       0.2264
     31  O         -6.6230   11.9780   14.2120 O.2    56  PHE56      -0.2867
     32  CB        -8.1960   14.7450   13.6840 C.3    56  PHE56       0.0534
     33  CG        -9.6680   14.7250   13.3980 C.ar   56  PHE56      -0.0203
     34  CD1      -10.2210   13.7130   12.6340 C.ar   56  PHE56      -0.0042
     35  CD2      -10.5000   15.7090   13.9020 C.ar   56  PHE56      -0.0042
     36  CE1      -11.5750   13.6850   12.3730 C.ar   56  PHE56      -0.0003
     37  CE2      -11.8560   15.6860   13.6440 C.ar   56  PHE56      -0.0003
     38  CZ       -12.3930   14.6730   12.8790 C.ar   56  PHE56      -0.0000
     39  N         -6.6870   10.3540   16.9080 N.3    59  HIS59      -0.1226
     40  CA        -7.7750    9.4670   16.5060 C.3    59  HIS59       0.1752
     41  C         -7.3510    8.5020   15.4000 C.2    59  HIS59       0.2595
     42  O         -7.6770    7.3160   15.4460 O.2    59  HIS59      -0.2718
     43  CB        -8.9830   10.2820   16.0330 C.3    59  HIS59       0.0759
     44  CG        -9.8530   10.7910   17.1450 C.ar   59  HIS59       0.0818
     45  ND1       -9.6400   10.4710   18.4660 N.ar   59  HIS59      -0.2268
     46  CD2      -10.9420   11.5940   17.1200 C.ar   59  HIS59       0.1154
     47  CE1      -10.5600   11.0590   19.2140 C.ar   59  HIS59       0.1986
     48  NE2      -11.3620   11.7460   18.4200 N.ar   59  HIS59      -0.2212
     49  N         -6.6240    9.0180   14.4110 N.am   60  LEU60      -0.1980
     50  CA        -6.2660    8.2430   13.2230 C.3    60  LEU60       0.1596
     51  C         -4.9500    7.4820   13.3700 C.2    60  LEU60       0.2287
     52  O         -4.7800    6.4110   12.7900 O.2    60  LEU60      -0.2864
     53  CB        -6.1740    9.1600   12.0040 C.3    60  LEU60       0.0297
     54  CG        -7.4700    9.4200   11.2370 C.3    60  LEU60       0.0022
     55  CD1       -8.4830   10.1650   12.0860 C.3    60  LEU60       0.0001
     56  CD2       -7.1660   10.1900    9.9670 C.3    60  LEU60       0.0001
     57  N         -3.3870    5.1960   14.9280 N.3    62  ILE62      -0.1245
     58  CA        -3.6900    4.1000   15.8410 C.3    62  ILE62       0.1561
     59  C         -2.4900    3.1950   16.1480 C.2    62  ILE62       0.2260
     60  O         -2.5890    2.3210   17.0070 O.2    62  ILE62      -0.2867
     61  CB        -4.8410    3.2290   15.2880 C.3    62  ILE62       0.0252
     62  CG1       -4.4750    2.6530   13.9150 C.3    62  ILE62       0.0019
     63  CG2       -6.1250    4.0500   15.2080 C.3    62  ILE62       0.0019
     64  CD1       -5.4600    1.6330   13.3940 C.3    62  ILE62       0.0001
     65  N         -4.5800    4.0320    7.6090 N.3    72  GLU72      -0.1245
     66  CA        -5.2290    4.7590    8.6930 C.3    72  GLU72       0.1567
     67  C         -6.1520    5.8450    8.1510 C.2    72  GLU72       0.2260
     68  O         -7.2010    6.1280    8.7280 O.2    72  GLU72      -0.2867
     69  CB        -4.1800    5.3670    9.6210 C.3    72  GLU72       0.0388
     70  CG        -3.3590    4.3240   10.3620 C.3    72  GLU72       0.1160
     71  CD        -2.1550    4.9120   11.0620 C.2    72  GLU72       0.3649
     72  OE1       -1.5490    5.8540   10.5130 O.co2  72  GLU72      -0.2457
     73  OE2       -1.8160    4.4320   12.1640 O.co2  72  GLU72      -0.2457
     74  N         -9.5180    4.3130    7.1830 N.3    75  LEU75      -0.1231
     75  CA       -10.3900    4.0110    8.3150 C.3    75  LEU75       0.1693
     76  C        -11.2890    5.2030    8.6370 C.2    75  LEU75       0.2591
     77  O        -12.4680    5.0320    8.9500 O.2    75  LEU75      -0.2718
     78  CB        -9.5700    3.6180    9.5450 C.3    75  LEU75       0.0284
     79  CG        -8.7310    2.3440    9.4150 C.3    75  LEU75       0.0019
     80  CD1       -8.0840    2.0140   10.7420 C.3    75  LEU75       0.0001
     81  CD2       -9.5590    1.1640    8.9200 C.3    75  LEU75       0.0001
     82  N        -10.7340    6.4090    8.5480 N.am   76  MET76      -0.1979
     83  CA       -11.5220    7.6240    8.7360 C.3    76  MET76       0.1605
     84  C        -12.5640    7.7770    7.6320 C.2    76  MET76       0.2287
     85  O        -13.7380    8.0300    7.9050 O.2    76  MET76      -0.2864
     86  CB       -10.6180    8.8610    8.7620 C.3    76  MET76       0.0413
     87  CG       -11.3800   10.1890    8.6700 C.3    76  MET76       0.0598
     88  SD       -10.3320   11.6500    8.6750 S.3    76  MET76      -0.1393
     89  CE        -9.5180   11.4850    7.0900 C.3    76  MET76       0.0692
     90  N        -15.4570    5.2930    7.8920 N.3    79  LYS79      -0.1231
     91  CA       -16.2840    5.6490    9.0410 C.3    79  LYS79       0.1693
     92  C        -17.1960    6.8020    8.6640 C.2    79  LYS79       0.2591
     93  O        -18.3940    6.7910    8.9500 O.2    79  LYS79      -0.2718
     94  CB       -15.4270    6.0450   10.2430 C.3    79  LYS79       0.0285
     95  CG       -15.0680    4.9020   11.1680 C.3    79  LYS79       0.0035
     96  CD       -14.5390    5.4250   12.4940 C.3    79  LYS79       0.0206
     97  CE       -14.0820    4.3020   13.4080 C.3    79  LYS79       0.1093
     98  NZ       -13.4970    4.8360   14.6700 N.3    79  LYS79      -0.1314
     99  N        -16.6120    7.8030    8.0180 N.am   80  LEU80      -0.1980
    100  CA       -17.3670    8.9620    7.5800 C.3    80  LEU80       0.1596
    101  C        -18.4250    8.5170    6.5740 C.2    80  LEU80       0.2287
    102  O        -19.5430    9.0310    6.5680 O.2    80  LEU80      -0.2864
    103  CB       -16.4280   10.0090    6.9780 C.3    80  LEU80       0.0297
    104  CG       -17.0210   11.3540    6.5560 C.3    80  LEU80       0.0022
    105  CD1      -17.7490   12.0380    7.7040 C.3    80  LEU80       0.0001
    106  CD2      -15.9140   12.2490    6.0170 C.3    80  LEU80       0.0001
    107  N        -21.2410    6.9460    8.5230 N.3    83  ALA83      -0.1231
    108  CA       -22.0180    7.9810    9.1900 C.3    83  ALA83       0.1694
    109  C        -23.0010    8.6360    8.2220 C.2    83  ALA83       0.2592
    110  O        -24.1780    8.8000    8.5380 O.2    83  ALA83      -0.2718
    111  CB       -21.0930    9.0220    9.7930 C.3    83  ALA83       0.0304
    112  N        -22.5180    9.0040    7.0400 N.am   84  TYR84      -0.1976
    113  CA       -23.3720    9.6410    6.0460 C.3    84  TYR84       0.1639
    114  C        -24.4070    8.6640    5.5010 C.2    84  TYR84       0.2290
    115  O        -25.5450    9.0480    5.2340 O.2    84  TYR84      -0.2864
    116  CB       -22.5370   10.2180    4.9010 C.3    84  TYR84       0.0560
    117  CG       -22.0240   11.6140    5.1770 C.ar   84  TYR84      -0.0198
    118  CD1      -22.9050   12.6750    5.3470 C.ar   84  TYR84      -0.0009
    119  CD2      -20.6640   11.8720    5.2650 C.ar   84  TYR84      -0.0009
    120  CE1      -22.4460   13.9530    5.6010 C.ar   84  TYR84       0.0417
    121  CE2      -20.1950   13.1480    5.5190 C.ar   84  TYR84       0.0417
    122  CZ       -21.0910   14.1840    5.6870 C.ar   84  TYR84       0.1957
    123  OH       -20.6290   15.4560    5.9390 O.3    84  TYR84      -0.2866
    124  N        -27.1060    8.2700    8.1090 N.3    87  SER87      -0.1217
    125  CA       -27.9320    9.4630    8.2600 C.3    87  SER87       0.1889
    126  C        -28.8500    9.6830    7.0590 C.2    87  SER87       0.2288
    127  O        -29.5390   10.7020    6.9860 O.2    87  SER87      -0.2866
    128  CB       -27.0520   10.6990    8.4660 C.3    87  SER87       0.2089
    129  OG       -26.5580   11.1890    7.2310 O.3    87  SER87      -0.2183
@<TRIPOS>BOND
     1     1     2    1
     2   116   117    1
     3   116   113    1
     4     9     7   ar
     5     9    11   ar
     6   117   119   ar
     7   117   118   ar
     8   115   114    2
     9   119   121   ar
    10     7     6   ar
    11   118   120   ar
    12    18    16    1
    13     2     3    1
    14     2     5    1
    15   114   113    1
    16   121   122   ar
    17   120   122   ar
    18   122   123    1
    19    11    10   ar
    20     3     4    2
    21   106   104    1
    22   113   112    1
    23    12    13    1
    24     6     5    1
    25     6     8   ar
    26   104   103    1
    27   104   105    1
    28   102   101    2
    29    19    17    1
    30   101   100    1
    31    16    17    1
    32    16    13    1
    33    10     8   ar
    34   103   100    1
    35   127   126    2
    36   112   109   am
    37   126   125    1
    38    89    88    1
    39    74    75    1
    40    13    14    1
    41   129   128    1
    42   100    99    1
    43    65    66    1
    44    84    85    2
    45    84    83    1
    46    90    91    1
    47    99    92   am
    48   124   125    1
    49    67    66    1
    50    67    68    2
    51   109   110    2
    52   109   108    1
    53   125   128    1
    54    75    76    1
    55    75    78    1
    56   107   108    1
    57    82    76   am
    58    82    83    1
    59    76    77    2
    60    92    93    2
    61    92    91    1
    62    87    88    1
    63    87    86    1
    64    14    20   am
    65    14    15    2
    66    66    69    1
    67    83    86    1
    68    81    79    1
    69    20    21    1
    70    91    94    1
    71   108   111    1
    72    79    78    1
    73    79    80    1
    74    69    70    1
    75    56    54    1
    76    23    22    2
    77    94    95    1
    78    26    25    1
    79    21    24    1
    80    21    22    1
    81    70    71    1
    82    24    25    1
    83    25    27    1
    84    72    71   ar
    85    71    73   ar
    86    95    96    1
    87    54    53    1
    88    54    55    1
    89    53    50    1
    90    36    34   ar
    91    36    38   ar
    92    96    97    1
    93    34    33   ar
    94    52    51    2
    95    38    37   ar
    96    50    51    1
    97    50    49    1
    98    64    62    1
    99    33    32    1
   100    33    35   ar
   101    97    98    1
   102    37    35   ar
   103    32    29    1
   104    62    61    1
   105    31    30    2
   106    49    41   am
   107    30    29    1
   108    29    28    1
   109    57    58    1
   110    63    61    1
   111    61    58    1
   112    41    42    2
   113    41    40    1
   114    58    59    1
   115    43    40    1
   116    43    44    1
   117    59    60    2
   118    40    39    1
   119    46    44   ar
   120    46    48   ar
   121    44    45   ar
   122    48    47   ar
   123    45    47   ar
