@<TRIPOS>MOLECULE
tmp/4pd4C06.pdb
 242 240 0 0 0
SMALL
GASTEIGER

@<TRIPOS>ATOM
      1  N        208.7420   -2.7520   64.8640 N.3    29  TRP29      -0.1241
      2  CA       208.1620   -3.4200   66.0400 C.3    29  TRP29       0.1605
      3  C        206.6470   -3.3930   65.9530 C.2    29  TRP29       0.2264
      4  O        205.9690   -4.4050   66.2090 O.2    29  TRP29      -0.2867
      5  CB       208.7090   -2.8550   67.3870 C.3    29  TRP29       0.0550
      6  CG       210.0570   -3.4050   67.5810 C.ar   29  TRP29       0.0003
      7  CD1      211.2260   -2.7830   67.3340 C.ar   29  TRP29       0.0946
      8  CD2      210.3790   -4.7540   67.9160 C.ar   29  TRP29       0.0152
      9  NE1      212.2680   -3.6490   67.5210 N.ar   29  TRP29      -0.2442
     10  CE2      211.7740   -4.8690   67.8840 C.ar   29  TRP29       0.0810
     11  CE3      209.6200   -5.8710   68.2510 C.ar   29  TRP29       0.0012
     12  CZ2      212.4310   -6.0470   68.1660 C.ar   29  TRP29       0.0191
     13  CZ3      210.2800   -7.0510   68.5320 C.ar   29  TRP29       0.0001
     14  CH2      211.6730   -7.1250   68.4950 C.ar   29  TRP29       0.0015
     15  N        204.4580  -16.5690   69.2860 N.3    91  MET91      -0.1245
     16  CA       205.6580  -15.7460   69.1910 C.3    91  MET91       0.1570
     17  C        205.3280  -14.2670   68.9390 C.2    91  MET91       0.2261
     18  O        205.5960  -13.3890   69.7680 O.2    91  MET91      -0.2867
     19  CB       206.6030  -16.2440   68.1090 C.3    91  MET91       0.0387
     20  CG       208.0580  -15.6960   68.3240 C.3    91  MET91       0.0595
     21  SD       209.0860  -16.3510   69.7380 S.3    91  MET91      -0.1393
     22  CE       210.3860  -15.1050   69.8470 C.3    91  MET91       0.0692
     23  N        203.8120  -12.4470   71.7460 N.3    94  PHE94      -0.1227
     24  CA       204.7950  -12.1180   72.7900 C.3    94  PHE94       0.1736
     25  C        205.6000  -10.8970   72.3550 C.2    94  PHE94       0.2595
     26  O        205.7620   -9.9400   73.1290 O.2    94  PHE94      -0.2718
     27  CB       205.8060  -13.2600   73.0400 C.3    94  PHE94       0.0547
     28  CG       205.2660  -14.4580   73.8000 C.ar   94  PHE94      -0.0202
     29  CD1      204.4580  -14.3170   74.9230 C.ar   94  PHE94      -0.0042
     30  CD2      205.6050  -15.7330   73.3830 C.ar   94  PHE94      -0.0042
     31  CE1      203.9880  -15.4340   75.5860 C.ar   94  PHE94      -0.0003
     32  CE2      205.1330  -16.8340   74.0360 C.ar   94  PHE94      -0.0003
     33  CZ       204.3290  -16.6930   75.1370 C.ar   94  PHE94      -0.0000
     34  N        206.1160  -10.9260   71.1230 N.am   95  MET95      -0.1979
     35  CA       206.8690   -9.7820   70.6070 C.3    95  MET95       0.1605
     36  C        206.0130   -8.5000   70.5990 C.2    95  MET95       0.2287
     37  O        206.5230   -7.3900   70.7990 O.2    95  MET95      -0.2864
     38  CB       207.3920  -10.0610   69.1990 C.3    95  MET95       0.0413
     39  CG       208.7880  -10.6140   69.1040 C.3    95  MET95       0.0598
     40  SD       209.0590  -11.4370   67.4950 S.3    95  MET95      -0.1393
     41  CE       209.1940  -10.0220   66.3820 C.3    95  MET95       0.0692
     42  N        203.3900   -7.9710   72.7050 N.3    97  MET97      -0.1230
     43  CA       203.3350   -7.6510   74.1390 C.3    97  MET97       0.1702
     44  C        204.6710   -7.1410   74.6750 C.2    97  MET97       0.2592
     45  O        204.6990   -6.2810   75.5650 O.2    97  MET97      -0.2718
     46  CB       202.9290   -8.8630   74.9790 C.3    97  MET97       0.0401
     47  CG       201.6460   -9.4510   74.5910 C.3    97  MET97       0.0596
     48  SD       201.3260  -10.9680   75.4730 S.3    97  MET97      -0.1393
     49  CE       200.6820  -10.2150   76.9910 C.3    97  MET97       0.0692
     50  N        205.7700   -7.6810   74.1540 N.am   98  ALA98      -0.1966
     51  CA       207.0950   -7.1480   74.4990 C.3    98  ALA98       0.1728
     52  C        207.1300   -5.6590   74.2270 C.2    98  ALA98       0.2616
     53  O        207.0300   -4.8590   75.1450 O.2    98  ALA98      -0.2715
     54  CB       208.2100   -7.8510   73.7070 C.3    98  ALA98       0.0334
     55  N        207.2250   -5.3130   72.9490 N.am   99  LYS99      -0.1977
     56  CA       207.0680   -3.9540   72.4230 C.3    99  LYS99       0.1596
     57  C        206.2020   -3.0200   73.2770 C.2    99  LYS99       0.2287
     58  O        206.3780   -1.8110   73.2580 O.2    99  LYS99      -0.2864
     59  CB       206.5410   -4.0550   70.9730 C.3    99  LYS99       0.0298
     60  CG       206.3580   -2.7610   70.1930 C.3    99  LYS99       0.0038
     61  CD       204.9020   -2.2060   70.3050 C.3    99  LYS99       0.0206
     62  CE       204.0880   -2.2530   68.9890 C.3    99  LYS99       0.1093
     63  NZ       203.6050   -3.6410   68.6110 N.3    99  LYS99      -0.1314
     64  N        205.6560   -3.2680   76.5920 N.3   101  LEU101     -0.1231
     65  CA       206.3820   -3.1180   77.8390 C.3   101  LEU101      0.1693
     66  C        207.5020   -2.1610   77.5960 C.2   101  LEU101      0.2592
     67  O        207.5930   -1.1070   78.2620 O.2   101  LEU101     -0.2718
     68  CB       207.0100   -4.4480   78.2290 C.3   101  LEU101      0.0284
     69  CG       206.4220   -5.3200   79.3320 C.3   101  LEU101      0.0019
     70  CD1      204.9110   -5.1990   79.3630 C.3   101  LEU101      0.0001
     71  CD2      206.8310   -6.7560   79.0380 C.3   101  LEU101      0.0001
     72  N        208.3510   -2.5220   76.6280 N.am  102  TYR102     -0.1962
     73  CA       209.5630   -1.7460   76.3650 C.3   102  TYR102      0.1771
     74  C        209.3030   -0.2660   76.1210 C.2   102  TYR102      0.2619
     75  O        210.0090    0.5550   76.6830 O.2   102  TYR102     -0.2715
     76  CB       210.4380   -2.3350   75.2400 C.3   102  TYR102      0.0574
     77  CG       211.6920   -1.5050   74.9740 C.ar  102  TYR102     -0.0198
     78  CD1      212.8950   -1.7850   75.6020 C.ar  102  TYR102     -0.0009
     79  CD2      211.6510   -0.4270   74.1170 C.ar  102  TYR102     -0.0009
     80  CE1      214.0140   -1.0090   75.3630 C.ar  102  TYR102      0.0417
     81  CE2      212.7310    0.3370   73.8810 C.ar  102  TYR102      0.0417
     82  CZ       213.9110    0.0570   74.4950 C.ar  102  TYR102      0.1957
     83  OH       214.9610    0.8870   74.1940 O.3   102  TYR102     -0.2866
     84  N        208.3090    0.0600   75.2860 N.am  103  TYR103     -0.1974
     85  CA       208.0070    1.4440   74.9380 C.3   103  TYR103      0.1639
     86  C        206.8840    1.9680   75.7660 C.2   103  TYR103      0.2290
     87  O        206.4700    3.1050   75.6540 O.2   103  TYR103     -0.2864
     88  CB       207.6270    1.5420   73.5060 C.3   103  TYR103      0.0560
     89  CG       208.7470    1.2790   72.5640 C.ar  103  TYR103     -0.0198
     90  CD1      208.9030    0.0380   71.9650 C.ar  103  TYR103     -0.0009
     91  CD2      209.6400    2.2830   72.2440 C.ar  103  TYR103     -0.0009
     92  CE1      209.9140   -0.1770   71.0580 C.ar  103  TYR103      0.0417
     93  CE2      210.6420    2.0770   71.3630 C.ar  103  TYR103      0.0417
     94  CZ       210.7850    0.8620   70.7620 C.ar  103  TYR103      0.1957
     95  OH       211.8190    0.7230   69.8660 O.3   103  TYR103     -0.2866
     96  N        194.9100  -12.2060   74.9450 N.3   121  PHE121     -0.1241
     97  CA       195.9930  -13.1210   75.2970 C.3   121  PHE121      0.1605
     98  C        195.4400  -14.2570   76.1160 C.2   121  PHE121      0.2264
     99  O        195.7390  -15.3980   75.8460 O.2   121  PHE121     -0.2867
    100  CB       197.0470  -12.3860   76.1220 C.3   121  PHE121      0.0534
    101  CG       198.1600  -13.2850   76.6350 C.ar  121  PHE121     -0.0203
    102  CD1      199.1810  -13.6950   75.7930 C.ar  121  PHE121     -0.0042
    103  CD2      198.1730  -13.7120   77.9470 C.ar  121  PHE121     -0.0042
    104  CE1      200.1710  -14.5090   76.2410 C.ar  121  PHE121     -0.0003
    105  CE2      199.1560  -14.5210   78.3910 C.ar  121  PHE121     -0.0003
    106  CZ       200.1560  -14.9340   77.5300 C.ar  121  PHE121     -0.0000
    107  N        208.5910    5.2310   68.9250 N.3   209  PRO209     -0.2116
    108  CA       209.7660    4.7380   69.6140 C.3   209  PRO209      0.1372
    109  C        210.5500    5.9110   70.2250 C.2   209  PRO209      0.2244
    110  O        211.7940    5.9200   70.2190 O.2   209  PRO209     -0.2868
    111  CB       210.5330    4.0270   68.4980 C.3   209  PRO209      0.0268
    112  CG       210.1580    4.7300   67.2770 C.3   209  PRO209      0.0207
    113  CD       208.7880    5.2700   67.4690 C.3   209  PRO209      0.0892
    114  N        204.7660  -20.7440   81.9910 N.3   278  PHE278     -0.1241
    115  CA       203.7080  -20.7530   82.9970 C.3   278  PHE278      0.1605
    116  C        203.7700  -22.0570   83.7220 C.2   278  PHE278      0.2264
    117  O        203.6250  -22.0680   84.9250 O.2   278  PHE278     -0.2867
    118  CB       202.2980  -20.3940   82.4430 C.3   278  PHE278      0.0534
    119  CG       202.2610  -19.0620   81.7390 C.ar  278  PHE278     -0.0203
    120  CD1      202.3080  -18.9890   80.3460 C.ar  278  PHE278     -0.0042
    121  CD2      202.2520  -17.8880   82.4610 C.ar  278  PHE278     -0.0042
    122  CE1      202.3390  -17.7630   79.6880 C.ar  278  PHE278     -0.0003
    123  CE2      202.2780  -16.6570   81.8160 C.ar  278  PHE278     -0.0003
    124  CZ       202.3210  -16.5960   80.4350 C.ar  278  PHE278     -0.0000
    125  N        200.4410  -14.7500   87.2220 N.3   298  ALA298     -0.1231
    126  CA       201.5400  -14.4780   86.2840 C.3   298  ALA298      0.1694
    127  C        201.1440  -13.6820   85.0670 C.2   298  ALA298      0.2591
    128  O        202.0290  -13.1720   84.3780 O.2   298  ALA298     -0.2718
    129  CB       202.1570  -15.7420   85.8190 C.3   298  ALA298      0.0304
    130  N        199.8330  -13.6390   84.7840 N.am  299  ILE299     -0.1980
    131  CA       199.2620  -12.9710   83.6200 C.3   299  ILE299      0.1595
    132  C        198.5140  -11.7240   84.0450 C.2   299  ILE299      0.2287
    133  O        198.7190  -10.6650   83.4840 O.2   299  ILE299     -0.2864
    134  CB       198.3690  -13.9520   82.8190 C.3   299  ILE299      0.0276
    135  CG1      199.2510  -15.0790   82.2480 C.3   299  ILE299      0.0022
    136  CG2      197.5830  -13.2450   81.6890 C.3   299  ILE299      0.0022
    137  CD1      198.5220  -16.2280   81.5690 C.3   299  ILE299      0.0001
    138  N        200.2580   -8.2700   84.9750 N.3   302  LEU302     -0.1245
    139  CA       200.3400   -7.4360   83.7750 C.3   302  LEU302      0.1561
    140  C        199.4210   -6.2400   83.7500 C.2   302  LEU302      0.2260
    141  O        199.6210   -5.3750   82.9310 O.2   302  LEU302     -0.2867
    142  CB       199.9850   -8.2760   82.5700 C.3   302  LEU302      0.0270
    143  CG       200.8450   -8.3190   81.3250 C.3   302  LEU302      0.0019
    144  CD1      202.2630   -8.0300   81.6770 C.3   302  LEU302      0.0001
    145  CD2      200.7320   -9.7270   80.7040 C.3   302  LEU302      0.0001
    146  N        213.3380    3.7940   75.8960 N.3   317  THR317     -0.1218
    147  CA       214.3320    4.2500   74.8920 C.3   317  THR317      0.1862
    148  C        215.4680    5.1530   75.4540 C.2   317  THR317      0.2287
    149  O        216.6530    4.9440   75.1480 O.2   317  THR317     -0.2866
    150  CB       213.7060    4.8760   73.6040 C.3   317  THR317      0.1770
    151  OG1      213.5960    3.8740   72.5900 O.3   317  THR317     -0.2211
    152  CG2      214.5960    5.9290   73.0330 C.3   317  THR317      0.0375
    153  N        216.1510   -0.1170   80.4990 N.3   323  LYS323     -0.1245
    154  CA       216.4390   -1.0610   79.4210 C.3   323  LYS323      0.1561
    155  C        216.9250   -2.3400   80.0480 C.2   323  LYS323      0.2260
    156  O        216.3850   -3.4320   79.7980 O.2   323  LYS323     -0.2867
    157  CB       217.5200   -0.5670   78.4650 C.3   323  LYS323      0.0271
    158  CG       217.1340    0.5490   77.5560 C.3   323  LYS323      0.0035
    159  CD       218.1250    0.6960   76.4340 C.3   323  LYS323      0.0206
    160  CE       218.0130    2.0610   75.7920 C.3   323  LYS323      0.1093
    161  NZ       219.0910    2.2720   74.7850 N.3   323  LYS323     -0.1314
    162  N        214.5880   -4.5050   81.8630 N.3   326  PHE326     -0.1227
    163  CA       213.6560   -4.9260   80.8580 C.3   326  PHE326      0.1736
    164  C        214.2050   -6.1760   80.1600 C.2   326  PHE326      0.2595
    165  O        213.4620   -7.1620   79.9620 O.2   326  PHE326     -0.2718
    166  CB       213.3510   -3.8190   79.8510 C.3   326  PHE326      0.0547
    167  CG       212.6060   -4.3220   78.6290 C.ar  326  PHE326     -0.0202
    168  CD1      211.2700   -4.6640   78.7120 C.ar  326  PHE326     -0.0042
    169  CD2      213.2650   -4.5150   77.4210 C.ar  326  PHE326     -0.0042
    170  CE1      210.6100   -5.1630   77.6230 C.ar  326  PHE326     -0.0003
    171  CE2      212.5940   -5.0390   76.3190 C.ar  326  PHE326     -0.0003
    172  CZ       211.2710   -5.3540   76.4240 C.ar  326  PHE326     -0.0000
    173  N        215.4950   -6.1870   79.8100 N.am  327  PHE327     -0.1976
    174  CA       216.0540   -7.4270   79.2210 C.3   327  PHE327      0.1639
    175  C        216.3780   -8.5470   80.2540 C.2   327  PHE327      0.2290
    176  O        216.4840   -9.7310   79.8690 O.2   327  PHE327     -0.2864
    177  CB       217.2510   -7.1750   78.3050 C.3   327  PHE327      0.0560
    178  CG       216.9270   -6.3840   77.0780 C.ar  327  PHE327     -0.0200
    179  CD1      216.9210   -4.9980   77.1100 C.ar  327  PHE327     -0.0042
    180  CD2      216.6610   -7.0180   75.8780 C.ar  327  PHE327     -0.0042
    181  CE1      216.6310   -4.2660   75.9830 C.ar  327  PHE327     -0.0003
    182  CE2      216.3620   -6.2790   74.7290 C.ar  327  PHE327     -0.0003
    183  CZ       216.3530   -4.9060   74.7900 C.ar  327  PHE327     -0.0000
    184  N        214.1540   -9.1010   82.5500 N.3   329  PHE329     -0.1227
    185  CA       212.7930   -9.6170   82.4090 C.3   329  PHE329      0.1736
    186  C        212.5210  -10.5260   81.2290 C.2   329  PHE329      0.2595
    187  O        211.8750  -11.5730   81.3970 O.2   329  PHE329     -0.2718
    188  CB       211.7400   -8.5290   82.3600 C.3   329  PHE329      0.0547
    189  CG       210.3700   -9.0920   82.3180 C.ar  329  PHE329     -0.0202
    190  CD1      209.7860   -9.5690   83.4860 C.ar  329  PHE329     -0.0042
    191  CD2      209.7010   -9.2480   81.1120 C.ar  329  PHE329     -0.0042
    192  CE1      208.5170  -10.1230   83.4750 C.ar  329  PHE329     -0.0003
    193  CE2      208.4160   -9.8200   81.0760 C.ar  329  PHE329     -0.0003
    194  CZ       207.8110  -10.2500   82.2570 C.ar  329  PHE329     -0.0000
    195  N        212.9560  -10.1020   80.0470 N.am  330  VAL330     -0.1966
    196  CA       212.8020  -10.9240   78.8510 C.3   330  VAL330      0.1727
    197  C        213.4990  -12.2630   79.0470 C.2   330  VAL330      0.2616
    198  O        212.9590  -13.3480   78.7230 O.2   330  VAL330     -0.2715
    199  CB       213.4340  -10.2350   77.6290 C.3   330  VAL330      0.0290
    200  CG1      213.2860  -11.1020   76.3920 C.3   330  VAL330      0.0023
    201  CG2      212.8360   -8.8410   77.4300 C.3   330  VAL330      0.0023
    202  N        214.7250  -12.1510   79.5910 N.am  331  PHE331     -0.1974
    203  CA       215.6650  -13.2740   79.6250 C.3   331  PHE331      0.1639
    204  C        215.3460  -14.2310   80.7530 C.2   331  PHE331      0.2290
    205  O        215.4350  -15.4510   80.5720 O.2   331  PHE331     -0.2864
    206  CB       217.1050  -12.8040   79.5870 C.3   331  PHE331      0.0560
    207  CG       217.5940  -12.5210   78.2020 C.ar  331  PHE331     -0.0200
    208  CD1      217.7640  -11.2150   77.7580 C.ar  331  PHE331     -0.0042
    209  CD2      217.8590  -13.5510   77.3290 C.ar  331  PHE331     -0.0042
    210  CE1      218.2010  -10.9350   76.4620 C.ar  331  PHE331     -0.0003
    211  CE2      218.2890  -13.2810   76.0290 C.ar  331  PHE331     -0.0003
    212  CZ       218.4620  -11.9710   75.5970 C.ar  331  PHE331     -0.0000
    213  N        212.2690  -14.6560   81.6060 N.3   333  PHE333     -0.1227
    214  CA       211.0650  -15.2650   81.0410 C.3   333  PHE333      0.1736
    215  C        211.3960  -16.4390   80.1330 C.2   333  PHE333      0.2595
    216  O        210.8270  -17.5320   80.2920 O.2   333  PHE333     -0.2718
    217  CB       210.2450  -14.2170   80.2850 C.3   333  PHE333      0.0547
    218  CG       208.8760  -14.7140   79.7880 C.ar  333  PHE333     -0.0202
    219  CD1      208.7000  -15.1080   78.4570 C.ar  333  PHE333     -0.0042
    220  CD2      207.7730  -14.7740   80.6540 C.ar  333  PHE333     -0.0042
    221  CE1      207.4730  -15.5770   78.0140 C.ar  333  PHE333     -0.0003
    222  CE2      206.5430  -15.2360   80.2080 C.ar  333  PHE333     -0.0003
    223  CZ       206.3920  -15.6350   78.8840 C.ar  333  PHE333     -0.0000
    224  N        212.3170  -16.2310   79.1890 N.am  334  VAL334     -0.1980
    225  CA       212.9240  -17.3770   78.4670 C.3   334  VAL334      0.1595
    226  C        213.5190  -18.4750   79.3840 C.2   334  VAL334      0.2287
    227  O        213.2180  -19.6470   79.1780 O.2   334  VAL334     -0.2864
    228  CB       213.9840  -16.9360   77.4390 C.3   334  VAL334      0.0276
    229  CG1      214.5800  -18.1420   76.7530 C.3   334  VAL334      0.0022
    230  CG2      213.3480  -15.9910   76.4460 C.3   334  VAL334      0.0022
    231  N        210.4060  -12.6410   88.1390 N.3   359  TYR359     -0.1241
    232  CA       209.2330  -12.3620   87.3080 C.3   359  TYR359      0.1605
    233  C        208.3170  -11.3480   87.9790 C.2   359  TYR359      0.2264
    234  O        208.3770  -10.1800   87.6200 O.2   359  TYR359     -0.2867
    235  CB       208.4970  -13.6480   86.9830 C.3   359  TYR359      0.0534
    236  CG       207.3720  -13.4850   85.9700 C.ar  359  TYR359     -0.0201
    237  CD1      207.5250  -13.8910   84.6380 C.ar  359  TYR359     -0.0009
    238  CD2      206.1550  -12.9310   86.3430 C.ar  359  TYR359     -0.0009
    239  CE1      206.5100  -13.7340   83.7220 C.ar  359  TYR359      0.0417
    240  CE2      205.1440  -12.7760   85.4450 C.ar  359  TYR359      0.0417
    241  CZ       205.3130  -13.1840   84.1400 C.ar  359  TYR359      0.1957
    242  OH       204.2390  -13.0140   83.2630 O.3   359  TYR359     -0.2866
@<TRIPOS>BOND
     1     1     2    1
     2     3     2    1
     3     3     4    2
     4     2     5    1
     5    41    40    1
     6   112   113    1
     7   112   111    1
     8     7     9   ar
     9     7     6   ar
    10     5     6    1
    11   113   107    1
    12    40    39    1
    13     9    10   ar
    14     6     8   ar
    15    10     8   ar
    16    10    12   ar
    17     8    11   ar
    18    19    20    1
    19    19    16    1
    20    12    14   ar
    21    11    13   ar
    22    20    21    1
    23    14    13   ar
    24   111   108    1
    25    63    62    1
    26   107   108    1
    27    17    16    1
    28    17    18    2
    29    62    61    1
    30    39    38    1
    31    16    15    1
    32    38    35    1
    33   108   109    1
    34    21    22    1
    35    95    94    1
    36    60    61    1
    37    60    59    1
    38   110   109    2
    39    36    35    1
    40    36    37    2
    41    35    34    1
    42    94    92   ar
    43    94    93   ar
    44    59    56    1
    45    92    90   ar
    46    34    25   am
    47    93    91   ar
    48    23    24    1
    49    90    89   ar
    50    91    89   ar
    51    25    24    1
    52    25    26    2
    53    56    55    1
    54    56    57    1
    55    89    88    1
    56   151   150    1
    57    42    43    1
    58    24    27    1
    59    55    52   am
    60   152   150    1
    61    27    28    1
    62    58    57    2
    63    30    28   ar
    64    30    32   ar
    65    88    85    1
    66   150   147    1
    67    54    51    1
    68    28    29   ar
    69    81    79   ar
    70    81    82   ar
    71    32    33   ar
    72    79    77   ar
    73    43    44    1
    74    43    46    1
    75    50    51    1
    76    50    44   am
    77    83    82    1
    78    52    51    1
    79    52    53    2
    80    82    80   ar
    81    47    46    1
    82    47    48    1
    83    44    45    2
    84   182   183   ar
    85   182   180   ar
    86   161   160    1
    87   183   181   ar
    88   147   148    1
    89   147   146    1
    90    29    31   ar
    91    85    84    1
    92    85    86    1
    93    96    97    1
    94    77    76    1
    95    77    78   ar
    96    33    31   ar
    97   149   148    2
    98    76    73    1
    99    84    74   am
   100    97    98    1
   101    97   100    1
   102    80    78   ar
   103    48    49    1
   104   212   211   ar
   105   212   210   ar
   106    87    86    2
   107   160   159    1
   108   102   104   ar
   109   102   101   ar
   110    99    98    2
   111   180   178   ar
   112   181   179   ar
   113   211   209   ar
   114    74    73    1
   115    74    75    2
   116   100   101    1
   117   104   106   ar
   118   171   172   ar
   119   171   169   ar
   120    73    72    1
   121   200   199    1
   122   172   170   ar
   123   159   158    1
   124   230   228    1
   125   210   208   ar
   126    64    65    1
   127    72    66   am
   128   101   103   ar
   129   229   228    1
   130   178   179   ar
   131   178   177    1
   132   209   207   ar
   133   169   167   ar
   134   201   199    1
   135   228   225    1
   136   106   105   ar
   137   158   157    1
   138    66    65    1
   139    66    67    2
   140   170   168   ar
   141   199   196    1
   142   208   207   ar
   143    65    68    1
   144   103   105   ar
   145   221   219   ar
   146   221   223   ar
   147   207   206    1
   148    68    69    1
   149   177   174    1
   150   219   218   ar
   151   157   154    1
   152   225   224    1
   153   225   226    1
   154   167   168   ar
   155   167   166    1
   156   198   197    2
   157   196   197    1
   158   196   195    1
   159   223   222   ar
   160    71    69    1
   161   197   202   am
   162   227   226    2
   163   224   215   am
   164   174   173    1
   165   174   175    1
   166    69    70    1
   167   154   155    1
   168   154   153    1
   169   206   203    1
   170   202   203    1
   171   203   204    1
   172   122   120   ar
   173   122   124   ar
   174   218   217    1
   175   218   220   ar
   176   156   155    2
   177   173   164   am
   178   166   163    1
   179   176   175    2
   180   165   164    2
   181   195   186   am
   182   215   216    2
   183   215   214    1
   184   164   163    1
   185   222   220   ar
   186   217   214    1
   187   120   119   ar
   188   124   123   ar
   189   205   204    2
   190   145   143    1
   191   163   162    1
   192   214   213    1
   193   193   191   ar
   194   193   194   ar
   195   191   189   ar
   196   186   187    2
   197   186   185    1
   198   143   144    1
   199   143   142    1
   200   137   135    1
   201   136   134    1
   202   119   118    1
   203   119   121   ar
   204   123   121   ar
   205   114   115    1
   206   135   134    1
   207   194   192   ar
   208   189   188    1
   209   189   190   ar
   210   188   185    1
   211   185   184    1
   212   118   115    1
   213   142   139    1
   214   134   131    1
   215   141   140    2
   216   115   116    1
   217   242   241    1
   218   192   190   ar
   219   133   132    2
   220   131   132    1
   221   131   130    1
   222   239   241   ar
   223   239   237   ar
   224   116   117    2
   225   140   139    1
   226   139   138    1
   227   241   240   ar
   228   128   127    2
   229   237   236   ar
   230   130   127   am
   231   127   126    1
   232   240   238   ar
   233   129   126    1
   234   236   238   ar
   235   236   235    1
   236   126   125    1
   237   235   232    1
   238   232   233    1
   239   232   231    1
   240   234   233    2
