@<TRIPOS>MOLECULE
tmp/4pd4C03.pdb
 169 162 0 0 0
SMALL
GASTEIGER

@<TRIPOS>ATOM
      1  N        194.6590  -13.9480   77.1390 N.3   122  ILE122     -0.1245
      2  CA       193.9310  -15.0060   77.8000 C.3   122  ILE122      0.1561
      3  C        193.1040  -15.8510   76.8170 C.2   122  ILE122      0.2260
      4  O        193.2490  -17.0660   76.8140 O.2   122  ILE122     -0.2867
      5  CB       193.0330  -14.4980   78.9120 C.3   122  ILE122      0.0252
      6  CG1      193.8620  -14.0710   80.1270 C.3   122  ILE122      0.0019
      7  CG2      192.0300  -15.5660   79.2780 C.3   122  ILE122      0.0019
      8  CD1      193.1160  -13.2600   81.2080 C.3   122  ILE122      0.0001
      9  N        195.2200  -18.2360   74.6490 N.3   125  ILE125     -0.1245
     10  CA       195.6440  -19.4380   75.3600 C.3   125  ILE125      0.1561
     11  C        194.4400  -20.3850   75.4690 C.2   125  ILE125      0.2260
     12  O        194.5090  -21.5010   75.0060 O.2   125  ILE125     -0.2867
     13  CB       196.3150  -19.1270   76.7390 C.3   125  ILE125      0.0252
     14  CG1      197.5550  -18.2660   76.5510 C.3   125  ILE125      0.0019
     15  CG2      196.7670  -20.3680   77.4240 C.3   125  ILE125      0.0019
     16  CD1      197.8780  -17.5020   77.7800 C.3   125  ILE125      0.0001
     17  N        194.5860  -24.0280   73.5160 N.3   129  PHE129     -0.1241
     18  CA       194.6250  -25.2100   74.3260 C.3   129  PHE129      0.1605
     19  C        193.6090  -26.2380   73.8370 C.2   129  PHE129      0.2264
     20  O        193.9380  -27.4090   73.6810 O.2   129  PHE129     -0.2867
     21  CB       194.4790  -24.9270   75.8230 C.3   129  PHE129      0.0534
     22  CG       195.1210  -25.9740   76.6490 C.ar  129  PHE129     -0.0203
     23  CD1      194.4300  -27.1320   76.9850 C.ar  129  PHE129     -0.0042
     24  CD2      196.4600  -25.8680   76.9860 C.ar  129  PHE129     -0.0042
     25  CE1      195.0550  -28.1640   77.7020 C.ar  129  PHE129     -0.0003
     26  CE2      197.1150  -26.8920   77.7160 C.ar  129  PHE129     -0.0003
     27  CZ       196.4120  -28.0480   78.0650 C.ar  129  PHE129     -0.0000
     28  N        194.4170  -28.0910   70.7690 N.3   132  TYR132     -0.1241
     29  CA       195.3020  -29.1780   71.1380 C.3   132  TYR132      0.1605
     30  C        194.5360  -30.3910   71.6680 C.2   132  TYR132      0.2264
     31  O        194.7270  -31.5150   71.1960 O.2   132  TYR132     -0.2867
     32  CB       196.2770  -28.7020   72.2250 C.3   132  TYR132      0.0534
     33  CG       197.5570  -29.5190   72.3850 C.ar  132  TYR132     -0.0201
     34  CD1      198.5030  -29.5470   71.3560 C.ar  132  TYR132     -0.0009
     35  CD2      197.8230  -30.2410   73.5590 C.ar  132  TYR132     -0.0009
     36  CE1      199.6670  -30.2720   71.4700 C.ar  132  TYR132      0.0417
     37  CE2      199.0050  -30.9790   73.6840 C.ar  132  TYR132      0.0417
     38  CZ       199.9250  -30.9860   72.6210 C.ar  132  TYR132      0.1957
     39  OH       201.1250  -31.6740   72.6430 O.3   132  TYR132     -0.2866
     40  N        199.6070  -36.0020   74.8050 N.3   139  MET139     -0.1245
     41  CA       199.7950  -34.7220   75.4250 C.3   139  MET139      0.1570
     42  C        198.4430  -34.0650   75.5390 C.2   139  MET139      0.2261
     43  O        198.1890  -33.3180   76.4880 O.2   139  MET139     -0.2867
     44  CB       200.7590  -33.9010   74.6010 C.3   139  MET139      0.0387
     45  CG       202.2390  -34.2910   74.7860 C.3   139  MET139      0.0595
     46  SD       203.0750  -33.8450   76.3620 S.3   139  MET139     -0.1393
     47  CE       202.6200  -35.2420   77.3900 C.3   139  MET139      0.0692
     48  N        196.0790  -35.5830   78.5600 N.3   142  TRP142     -0.1227
     49  CA       196.6110  -35.2110   79.8710 C.3   142  TRP142      0.1737
     50  C        196.6860  -33.6800   80.0280 C.2   142  TRP142      0.2596
     51  O        196.5380  -33.1480   81.1360 O.2   142  TRP142     -0.2718
     52  CB       197.9530  -35.9370   80.1760 C.3   142  TRP142      0.0564
     53  CG       197.7310  -37.4310   80.2550 C.ar  142  TRP142      0.0003
     54  CD1      198.2400  -38.3820   79.4280 C.ar  142  TRP142      0.0946
     55  CD2      196.8980  -38.1230   81.1920 C.ar  142  TRP142      0.0152
     56  NE1      197.7890  -39.6170   79.7950 N.ar  142  TRP142     -0.2442
     57  CE2      196.9630  -39.4830   80.8760 C.ar  142  TRP142      0.0810
     58  CE3      196.1130  -37.7170   82.2760 C.ar  142  TRP142      0.0012
     59  CZ2      196.2730  -40.4410   81.5930 C.ar  142  TRP142      0.0191
     60  CZ3      195.4390  -38.6570   82.9910 C.ar  142  TRP142      0.0001
     61  CH2      195.5150  -40.0080   82.6480 C.ar  142  TRP142      0.0015
     62  N        196.9350  -32.9730   78.9370 N.am  143  GLY143     -0.1957
     63  CA       196.8010  -31.5450   79.0080 C.3   143  GLY143      0.1869
     64  C        195.4090  -31.2810   79.5610 C.2   143  GLY143      0.2309
     65  O        195.2580  -30.6360   80.6190 O.2   143  GLY143     -0.2863
     66  N        194.5470  -31.7430   83.4080 N.3   146  VAL146     -0.1231
     67  CA       195.1680  -30.8100   84.3230 C.3   146  VAL146      0.1692
     68  C        194.4300  -29.4700   84.3160 C.2   146  VAL146      0.2591
     69  O        194.1970  -28.8780   85.3810 O.2   146  VAL146     -0.2718
     70  CB       196.6390  -30.6240   83.9300 C.3   146  VAL146      0.0266
     71  CG1      197.3440  -29.7730   84.9120 C.3   146  VAL146      0.0020
     72  CG2      197.3260  -31.9660   83.8600 C.3   146  VAL146      0.0020
     73  N        194.0450  -29.0030   83.1200 N.am  147  ILE147     -0.1980
     74  CA       193.3660  -27.7150   82.9820 C.3   147  ILE147      0.1595
     75  C        191.9880  -27.8310   83.5040 C.2   147  ILE147      0.2287
     76  O        191.5270  -26.9660   84.2180 O.2   147  ILE147     -0.2864
     77  CB       193.2450  -27.3270   81.5790 C.3   147  ILE147      0.0276
     78  CG1      194.5180  -27.7230   80.8780 C.3   147  ILE147      0.0022
     79  CG2      193.0450  -25.8200   81.4730 C.3   147  ILE147      0.0022
     80  CD1      195.4430  -26.5770   80.7750 C.3   147  ILE147      0.0001
     81  N        192.5750  -27.6370   87.2020 N.3   150  LEU150     -0.1245
     82  CA       192.8480  -26.3670   87.8550 C.3   150  LEU150      0.1561
     83  C        191.6280  -25.8760   88.6190 C.2   150  LEU150      0.2260
     84  O        191.7520  -25.1000   89.5440 O.2   150  LEU150     -0.2867
     85  CB       193.2630  -25.2870   86.8590 C.3   150  LEU150      0.0270
     86  CG       194.5270  -25.4720   86.0200 C.3   150  LEU150      0.0019
     87  CD1      194.5130  -24.5260   84.8010 C.3   150  LEU150      0.0001
     88  CD2      195.7710  -25.2710   86.8580 C.3   150  LEU150      0.0001
     89  N        206.6070  -35.0290   80.2650 N.3   269  ILE269     -0.1245
     90  CA       205.5380  -34.0540   80.1830 C.3   269  ILE269      0.1561
     91  C        206.1630  -32.6880   79.9530 C.2   269  ILE269      0.2260
     92  O        206.3500  -31.8910   80.8740 O.2   269  ILE269     -0.2867
     93  CB       204.6580  -34.1420   81.4120 C.3   269  ILE269      0.0252
     94  CG1      203.7840  -35.3630   81.2480 C.3   269  ILE269      0.0019
     95  CG2      203.7790  -32.9300   81.5890 C.3   269  ILE269      0.0019
     96  CD1      202.8980  -35.5490   82.3610 C.3   269  ILE269      0.0001
     97  N        204.9420  -29.5270   77.9850 N.3   271  PRO271     -0.2116
     98  CA       203.8160  -28.8610   77.3210 C.3   271  PRO271      0.1372
     99  C        204.3180  -27.8900   76.2720 C.2   271  PRO271      0.2244
    100  O        205.5220  -27.7130   76.1200 O.2   271  PRO271     -0.2868
    101  CB       203.1450  -28.0670   78.4430 C.3   271  PRO271      0.0268
    102  CG       203.9260  -28.3880   79.7150 C.3   271  PRO271      0.0207
    103  CD       205.2600  -28.8950   79.2730 C.3   271  PRO271      0.0892
    104  N        203.5440  -22.0160   76.2160 N.3   275  LEU275     -0.1245
    105  CA       202.9740  -22.2580   77.5350 C.3   275  LEU275      0.1561
    106  C        204.0080  -22.4810   78.6750 C.2   275  LEU275      0.2260
    107  O        203.7390  -22.1690   79.8460 O.2   275  LEU275     -0.2867
    108  CB       202.0570  -23.4550   77.4600 C.3   275  LEU275      0.0270
    109  CG       200.6760  -23.2860   76.8670 C.3   275  LEU275      0.0019
    110  CD1      200.1860  -24.6940   76.7050 C.3   275  LEU275      0.0001
    111  CD2      199.8150  -22.5110   77.8380 C.3   275  LEU275      0.0001
    112  N        204.7660  -20.7440   81.9910 N.3   278  PHE278     -0.1227
    113  CA       203.7080  -20.7530   82.9970 C.3   278  PHE278      0.1736
    114  C        203.7700  -22.0570   83.7220 C.2   278  PHE278      0.2595
    115  O        203.6250  -22.0680   84.9250 O.2   278  PHE278     -0.2718
    116  CB       202.2980  -20.3940   82.4430 C.3   278  PHE278      0.0547
    117  CG       202.2610  -19.0620   81.7390 C.ar  278  PHE278     -0.0202
    118  CD1      202.3080  -18.9890   80.3460 C.ar  278  PHE278     -0.0042
    119  CD2      202.2520  -17.8880   82.4610 C.ar  278  PHE278     -0.0042
    120  CE1      202.3390  -17.7630   79.6880 C.ar  278  PHE278     -0.0003
    121  CE2      202.2780  -16.6570   81.8160 C.ar  278  PHE278     -0.0003
    122  CZ       202.3210  -16.5960   80.4350 C.ar  278  PHE278     -0.0000
    123  N        204.0400  -23.1360   82.9940 N.am  279  TYR279     -0.1976
    124  CA       204.2470  -24.4670   83.5810 C.3   279  TYR279      0.1639
    125  C        205.3210  -24.4150   84.7200 C.2   279  TYR279      0.2290
    126  O        205.0550  -24.7790   85.8700 O.2   279  TYR279     -0.2864
    127  CB       204.6330  -25.4160   82.4500 C.3   279  TYR279      0.0560
    128  CG       204.7330  -26.8480   82.8430 C.ar  279  TYR279     -0.0198
    129  CD1      205.8170  -27.6100   82.4380 C.ar  279  TYR279     -0.0009
    130  CD2      203.7680  -27.4340   83.6530 C.ar  279  TYR279     -0.0009
    131  CE1      205.9480  -28.9110   82.8180 C.ar  279  TYR279      0.0417
    132  CE2      203.8820  -28.7550   84.0460 C.ar  279  TYR279      0.0417
    133  CZ       204.9820  -29.4850   83.6220 C.ar  279  TYR279      0.1957
    134  OH       205.1240  -30.8030   83.9940 O.3   279  TYR279     -0.2866
    135  N        203.9980  -22.5230   87.5720 N.3   282  LEU282     -0.1245
    136  CA       203.0010  -23.3080   88.2810 C.3   282  LEU282      0.1561
    137  C        203.7220  -24.2420   89.2750 C.2   282  LEU282      0.2260
    138  O        203.4890  -24.1770   90.4960 O.2   282  LEU282     -0.2867
    139  CB       202.0940  -24.0860   87.3060 C.3   282  LEU282      0.0270
    140  CG       201.0400  -24.9250   88.0280 C.3   282  LEU282      0.0019
    141  CD1      199.9850  -24.0830   88.6950 C.3   282  LEU282      0.0001
    142  CD2      200.4180  -25.9240   87.1150 C.3   282  LEU282      0.0001
    143  N        199.8540  -19.0800   89.0080 N.3   295  MET295     -0.1230
    144  CA       200.0000  -19.2080   87.5660 C.3   295  MET295      0.1702
    145  C        199.1680  -18.1650   86.8380 C.2   295  MET295      0.2592
    146  O        199.6200  -17.5580   85.8580 O.2   295  MET295     -0.2718
    147  CB       199.5630  -20.5650   87.1020 C.3   295  MET295      0.0401
    148  CG       199.9280  -20.7800   85.6780 C.3   295  MET295      0.0596
    149  SD       199.3730  -22.3940   85.1280 S.3   295  MET295     -0.1393
    150  CE       197.7570  -22.4480   85.8730 C.3   295  MET295      0.0692
    151  N        197.9460  -17.9760   87.3350 N.am  296  PHE296     -0.1976
    152  CA       197.0100  -17.0300   86.7770 C.3   296  PHE296      0.1639
    153  C        197.5000  -15.6420   87.0690 C.2   296  PHE296      0.2290
    154  O        197.3760  -14.7350   86.2300 O.2   296  PHE296     -0.2864
    155  CB       195.6160  -17.2600   87.3580 C.3   296  PHE296      0.0560
    156  CG       194.9530  -18.5100   86.8320 C.ar  296  PHE296     -0.0200
    157  CD1      193.9150  -19.1070   87.5180 C.ar  296  PHE296     -0.0042
    158  CD2      195.3950  -19.1060   85.6450 C.ar  296  PHE296     -0.0042
    159  CE1      193.3300  -20.2630   87.0360 C.ar  296  PHE296     -0.0003
    160  CE2      194.8220  -20.2640   85.1650 C.ar  296  PHE296     -0.0003
    161  CZ       193.7930  -20.8360   85.8560 C.ar  296  PHE296     -0.0000
    162  N        199.8330  -13.6390   84.7840 N.3   299  ILE299     -0.1245
    163  CA       199.2620  -12.9710   83.6200 C.3   299  ILE299      0.1561
    164  C        198.5140  -11.7240   84.0450 C.2   299  ILE299      0.2260
    165  O        198.7190  -10.6650   83.4840 O.2   299  ILE299     -0.2867
    166  CB       198.3690  -13.9520   82.8190 C.3   299  ILE299      0.0252
    167  CG1      199.2510  -15.0790   82.2480 C.3   299  ILE299      0.0019
    168  CG2      197.5830  -13.2450   81.6890 C.3   299  ILE299      0.0019
    169  CD1      198.5220  -16.2280   81.5690 C.3   299  ILE299      0.0001
@<TRIPOS>BOND
     1    28    29    1
     2    29    30    1
     3    29    32    1
     4    31    30    2
     5    34    36   ar
     6    34    33   ar
     7    36    38   ar
     8    32    33    1
     9    33    35   ar
    10    38    39    1
    11    38    37   ar
    12    17    18    1
    13    35    37   ar
    14    20    19    2
    15    19    18    1
    16    18    21    1
    17    44    45    1
    18    44    41    1
    19     9    10    1
    20    45    46    1
    21    40    41    1
    22    12    11    2
    23    10    11    1
    24    10    13    1
    25    41    42    1
    26    42    43    2
    27    21    22    1
    28   100    99    2
    29   104   105    1
    30    99    98    1
    31    46    47    1
    32    14    13    1
    33    14    16    1
    34    22    23   ar
    35    22    24   ar
    36   110   109    1
    37    13    15    1
    38     4     3    2
    39     3     2    1
    40   109   108    1
    41   109   111    1
    42    23    25   ar
    43    24    26   ar
    44     1     2    1
    45    98    97    1
    46    98   101    1
    47   108   105    1
    48   105   106    1
    49    25    27   ar
    50    26    27   ar
    51     2     5    1
    52    97   103    1
    53   101   102    1
    54    48    49    1
    55   106   107    2
    56     5     7    1
    57     5     6    1
    58    62    63    1
    59    62    50   am
    60    63    64    1
    61   103   102    1
    62    54    56   ar
    63    54    53   ar
    64    64    65    2
    65   120   118   ar
    66   120   122   ar
    67    56    57   ar
    68    49    50    1
    69    49    52    1
    70    91    90    1
    71    91    92    2
    72    50    51    2
    73     6     8    1
    74    52    53    1
    75    90    89    1
    76    90    93    1
    77    53    55   ar
    78   118   117   ar
    79   122   121   ar
    80    80    78    1
    81    57    55   ar
    82    57    59   ar
    83    78    77    1
    84    55    58   ar
    85    94    93    1
    86    94    96    1
    87    93    95    1
    88    79    77    1
    89   169   167    1
    90    77    74    1
    91    59    61   ar
    92   168   166    1
    93   117   116    1
    94   117   119   ar
    95   121   119   ar
    96   112   113    1
    97   167   166    1
    98    58    60   ar
    99   129   131   ar
   100   129   128   ar
   101   116   113    1
   102   127   128    1
   103   127   124    1
   104    61    60   ar
   105   131   133   ar
   106   166   163    1
   107   128   130   ar
   108    74    73    1
   109    74    75    1
   110   123   124    1
   111   123   114   am
   112   113   114    1
   113    73    68   am
   114    66    67    1
   115   165   164    2
   116    75    76    2
   117   124   125    1
   118   163   164    1
   119   163   162    1
   120   133   134    1
   121   133   132   ar
   122   130   132   ar
   123   114   115    2
   124    72    70    1
   125    70    67    1
   126    70    71    1
   127    68    67    1
   128    68    69    2
   129   125   126    2
   130    87    86    1
   131   149   148    1
   132   149   150    1
   133   160   158   ar
   134   160   161   ar
   135   158   156   ar
   136   148   147    1
   137   161   159   ar
   138   146   145    2
   139    86    88    1
   140    86    85    1
   141   154   153    2
   142   152   153    1
   143   152   151    1
   144   152   155    1
   145   156   155    1
   146   156   157   ar
   147   145   151   am
   148   145   144    1
   149    85    82    1
   150   159   157   ar
   151   147   144    1
   152   142   140    1
   153    81    82    1
   154   139   140    1
   155   139   136    1
   156   144   143    1
   157   135   136    1
   158    82    83    1
   159   140   141    1
   160   136   137    1
   161    83    84    2
   162   137   138    2
