@<TRIPOS>MOLECULE
tmp/4pd5A00.pdb
 143 134 0 0 0
SMALL
GASTEIGER

@<TRIPOS>ATOM
      1  N         -2.9710   48.5830   -5.5980 N.3   151  GLY151     -0.1210
      2  CA        -4.3000   49.0900   -5.8860 C.3   151  GLY151      0.1956
      3  C         -4.8400   48.7660   -7.2650 C.2   151  GLY151      0.2612
      4  O         -4.1610   48.1570   -8.0920 O.2   151  GLY151     -0.2717
      5  N         -6.0740   49.1970   -7.5080 N.am  152  GLN152     -0.1965
      6  CA        -6.7980   48.8750   -8.7330 C.3   152  GLN152      0.1733
      7  C         -6.1930   49.5040   -9.9850 C.2   152  GLN152      0.2617
      8  O         -6.3460   48.9750  -11.0860 O.2   152  GLN152     -0.2715
      9  CB        -8.2600   49.3090   -8.5980 C.3   152  GLN152      0.0408
     10  CG        -8.4450   50.7430   -8.1360 C.3   152  GLN152      0.0908
     11  CD        -9.9010   51.0890   -7.9020 C.2   152  GLN152      0.2608
     12  OE1      -10.7990   50.4240   -8.4180 O.2   152  GLN152     -0.2717
     13  NE2      -10.1430   52.1300   -7.1140 N.am  152  GLN152     -0.0878
     14  N         -5.5130   50.6330   -9.8180 N.am  153  THR153     -0.1937
     15  CA        -4.9390   51.3450  -10.9550 C.3   153  THR153      0.2028
     16  C         -3.4610   51.0160  -11.1520 C.2   153  THR153      0.2642
     17  O         -2.8730   51.3660  -12.1750 O.2   153  THR153     -0.2714
     18  CB        -5.0950   52.8710  -10.7980 C.3   153  THR153      0.1808
     19  OG1       -4.4610   53.2980   -9.5860 O.3   153  THR153     -0.2208
     20  CG2       -6.5640   53.2530  -10.7530 C.3   153  THR153      0.0379
     21  N         -2.8670   50.3420  -10.1720 N.am  154  GLU154     -0.1976
     22  CA        -1.4500   49.9920  -10.2280 C.3   154  GLU154      0.1602
     23  C         -1.2440   48.5400  -10.6420 C.2   154  GLU154      0.2287
     24  O         -0.2110   48.1890  -11.2110 O.2   154  GLU154     -0.2864
     25  CB        -0.7770   50.2410   -8.8740 C.3   154  GLU154      0.0415
     26  CG        -0.6090   51.7060   -8.5080 C.3   154  GLU154      0.1163
     27  CD        -1.8980   52.3480   -8.0360 C.2   154  GLU154      0.3649
     28  OE1       -2.8750   51.6130   -7.7830 O.co2 154  GLU154     -0.2457
     29  OE2       -1.9330   53.5910   -7.9180 O.co2 154  GLU154     -0.2457
     30  N         -5.1790   47.7920   -1.3280 N.3   183  ALA183     -0.1245
     31  CA        -3.7550   47.9750   -1.5800 C.3   183  ALA183      0.1562
     32  C         -2.9570   47.7700   -0.2960 C.2   183  ALA183      0.2260
     33  O         -3.5040   47.8650    0.8030 O.2   183  ALA183     -0.2867
     34  CB        -3.4890   49.3520   -2.1610 C.3   183  ALA183      0.0290
     35  N         -3.0290   51.0600    2.1720 N.3   186  VAL186     -0.1245
     36  CA        -4.2240   51.2610    2.9840 C.3   186  VAL186      0.1561
     37  C         -4.4550   50.0950    3.9410 C.2   186  VAL186      0.2260
     38  O         -5.0820   50.2600    4.9870 O.2   186  VAL186     -0.2867
     39  CB        -5.4800   51.4530    2.1090 C.3   186  VAL186      0.0252
     40  CG1       -5.4200   52.7860    1.3800 C.3   186  VAL186      0.0019
     41  CG2       -5.6290   50.3030    1.1230 C.3   186  VAL186      0.0019
     42  N         -5.4240   50.5350    7.7540 N.3   190  TYR190     -0.1241
     43  CA        -6.5570   49.9590    8.4710 C.3   190  TYR190      0.1605
     44  C         -6.0860   49.1770    9.6910 C.2   190  TYR190      0.2264
     45  O         -6.7490   49.1650   10.7260 O.2   190  TYR190     -0.2867
     46  CB        -7.3770   49.0560    7.5460 C.3   190  TYR190      0.0534
     47  CG        -7.9130   49.7690    6.3270 C.ar  190  TYR190     -0.0201
     48  CD1       -8.3220   51.0930    6.4010 C.ar  190  TYR190     -0.0009
     49  CD2       -7.9970   49.1230    5.1000 C.ar  190  TYR190     -0.0009
     50  CE1       -8.8070   51.7520    5.2910 C.ar  190  TYR190      0.0417
     51  CE2       -8.4800   49.7770    3.9820 C.ar  190  TYR190      0.0417
     52  CZ        -8.8840   51.0910    4.0850 C.ar  190  TYR190      0.1957
     53  OH        -9.3660   51.7520    2.9790 O.3   190  TYR190     -0.2866
     54  N         -1.5110   60.3060   -2.2720 N.3   246  LEU246     -0.1245
     55  CA        -2.6070   59.4570   -1.8240 C.3   246  LEU246      0.1561
     56  C         -3.0270   59.8170   -0.4030 C.2   246  LEU246      0.2260
     57  O         -4.2180   59.8770   -0.0950 O.2   246  LEU246     -0.2867
     58  CB        -2.2050   57.9830   -1.8990 C.3   246  LEU246      0.0270
     59  CG        -3.2260   56.9560   -1.4040 C.3   246  LEU246      0.0019
     60  CD1       -4.4850   56.9850   -2.2580 C.3   246  LEU246      0.0001
     61  CD2       -2.6160   55.5630   -1.3840 C.3   246  LEU246      0.0001
     62  N         -6.7700   60.9980    0.6960 N.3   250  VAL250     -0.1245
     63  CA        -7.5510   60.2620    1.6840 C.3   250  VAL250      0.1561
     64  C         -7.9440   61.1640    2.8490 C.2   250  VAL250      0.2260
     65  O         -9.0850   61.1370    3.3110 O.2   250  VAL250     -0.2867
     66  CB        -6.7750   59.0370    2.2170 C.3   250  VAL250      0.0252
     67  CG1       -7.5030   58.4110    3.3990 C.3   250  VAL250      0.0019
     68  CG2       -6.5730   58.0130    1.1090 C.3   250  VAL250      0.0019
     69  N        -10.6140   63.6810    1.8910 N.3   253  MET253     -0.1245
     70  CA       -11.8640   62.9650    1.6780 C.3   253  MET253      0.1570
     71  C        -12.5460   62.6540    3.0060 C.2   253  MET253      0.2261
     72  O        -13.7610   62.8000    3.1390 O.2   253  MET253     -0.2867
     73  CB       -11.6100   61.6760    0.8890 C.3   253  MET253      0.0387
     74  CG       -12.8250   60.7690    0.7320 C.3   253  MET253      0.0595
     75  SD       -12.9930   59.5660    2.0670 S.3   253  MET253     -0.1393
     76  CE       -11.3980   58.7530    1.9910 C.3   253  MET253      0.0692
     77  N        -17.0140   54.7530    0.7500 N.3   318  ASN318     -0.1225
     78  CA       -15.8540   53.9000    0.5230 C.3   318  ASN318      0.1785
     79  C        -15.4870   53.1530    1.7990 C.2   318  ASN318      0.2597
     80  O        -16.0200   53.4420    2.8700 O.2   318  ASN318     -0.2718
     81  CB       -14.6600   54.7150    0.0130 C.3   318  ASN318      0.1169
     82  CG       -14.2740   55.8400    0.9510 C.2   318  ASN318      0.2627
     83  OD1      -13.5790   55.6240    1.9430 O.2   318  ASN318     -0.2716
     84  ND2      -14.7160   57.0530    0.6350 N.am  318  ASN318     -0.0877
     85  N        -14.5750   52.1950    1.6810 N.am  319  GLU319     -0.1965
     86  CA       -14.2550   51.3130    2.7970 C.3   319  GLU319      0.1733
     87  C        -13.4480   52.0170    3.8830 C.2   319  GLU319      0.2616
     88  O        -13.4310   51.5780    5.0320 O.2   319  GLU319     -0.2715
     89  CB       -13.4970   50.0800    2.3010 C.3   319  GLU319      0.0429
     90  CG       -12.0020   50.2790    2.1140 C.3   319  GLU319      0.1163
     91  CD       -11.6610   51.2010    0.9580 C.2   319  GLU319      0.3649
     92  OE1      -12.5380   51.4460    0.1020 O.co2 319  GLU319     -0.2457
     93  OE2      -10.5090   51.6810    0.9050 O.co2 319  GLU319     -0.2457
     94  N        -12.7870   53.1110    3.5200 N.am  320  PHE320     -0.1974
     95  CA       -11.9820   53.8590    4.4780 C.3   320  PHE320      0.1639
     96  C        -12.8860   54.5720    5.4780 C.2   320  PHE320      0.2290
     97  O        -12.6190   54.5730    6.6800 O.2   320  PHE320     -0.2864
     98  CB       -11.0810   54.8660    3.7610 C.3   320  PHE320      0.0560
     99  CG        -9.7390   55.0470    4.4100 C.ar  320  PHE320     -0.0200
    100  CD1       -8.5760   54.7390    3.7220 C.ar  320  PHE320     -0.0042
    101  CD2       -9.6400   55.5140    5.7100 C.ar  320  PHE320     -0.0042
    102  CE1       -7.3400   54.9000    4.3180 C.ar  320  PHE320     -0.0003
    103  CE2       -8.4070   55.6760    6.3110 C.ar  320  PHE320     -0.0003
    104  CZ        -7.2560   55.3690    5.6140 C.ar  320  PHE320     -0.0000
    105  N        -12.1640   47.8690   -2.5130 N.3   353  PHE353     -0.1241
    106  CA       -12.3240   49.2000   -3.0920 C.3   353  PHE353      0.1605
    107  C        -13.6230   49.3110   -3.8830 C.2   353  PHE353      0.2264
    108  O        -13.7950   50.2330   -4.6820 O.2   353  PHE353     -0.2867
    109  CB       -11.1400   49.5410   -4.0010 C.3   353  PHE353      0.0534
    110  CG        -9.8610   49.8200   -3.2630 C.ar  353  PHE353     -0.0203
    111  CD1       -9.8570   50.0070   -1.8910 C.ar  353  PHE353     -0.0042
    112  CD2       -8.6610   49.9090   -3.9500 C.ar  353  PHE353     -0.0042
    113  CE1       -8.6770   50.2670   -1.2170 C.ar  353  PHE353     -0.0003
    114  CE2       -7.4800   50.1690   -3.2820 C.ar  353  PHE353     -0.0003
    115  CZ        -7.4880   50.3490   -1.9150 C.ar  353  PHE353     -0.0000
    116  N        -16.7900   50.4880   -4.7560 N.3   355  ASN355     -0.1240
    117  CA       -17.7670   51.5530   -4.5630 C.3   355  ASN355      0.1653
    118  C        -18.0030   52.3170   -5.8600 C.2   355  ASN355      0.2266
    119  O        -17.2260   52.2000   -6.8090 O.2   355  ASN355     -0.2867
    120  CB       -17.3210   52.5090   -3.4540 C.3   355  ASN355      0.1155
    121  CG       -15.9530   53.1070   -3.7120 C.2   355  ASN355      0.2627
    122  OD1      -15.8150   54.0690   -4.4660 O.2   355  ASN355     -0.2716
    123  ND2      -14.9320   52.5420   -3.0770 N.am  355  ASN355     -0.0877
    124  N        -17.6960   55.3870   -6.5670 N.3   357  SER357     -0.1202
    125  CA       -16.6950   56.4100   -6.8540 C.3   357  SER357      0.2020
    126  C        -15.4570   55.8280   -7.5240 C.2   357  SER357      0.2619
    127  O        -14.6410   56.5610   -8.0850 O.2   357  SER357     -0.2717
    128  CB       -16.2930   57.1380   -5.5710 C.3   357  SER357      0.2103
    129  OG       -17.3960   57.8280   -5.0130 O.3   357  SER357     -0.2182
    130  N        -15.3210   54.5090   -7.4610 N.am  358  SER358     -0.1951
    131  CA       -14.1640   53.8340   -8.0330 C.3   358  SER358      0.1924
    132  C        -14.2890   53.6860   -9.5470 C.2   358  SER358      0.2314
    133  O        -13.3130   53.3760  -10.2270 O.2   358  SER358     -0.2863
    134  CB       -13.9710   52.4630   -7.3840 C.3   358  SER358      0.2116
    135  OG       -13.6440   52.5880   -6.0110 O.3   358  SER358     -0.2180
    136  N        -12.4580   56.4040  -10.8840 N.3   361  ILE361     -0.1245
    137  CA       -11.0550   56.1020  -10.6240 C.3   361  ILE361      0.1561
    138  C        -10.5190   55.1210  -11.6640 C.2   361  ILE361      0.2260
    139  O         -9.3950   55.2660  -12.1450 O.2   361  ILE361     -0.2867
    140  CB       -10.8580   55.5250   -9.2060 C.3   361  ILE361      0.0252
    141  CG1      -11.2210   56.5760   -8.1550 C.3   361  ILE361      0.0019
    142  CG2       -9.4260   55.0540   -9.0060 C.3   361  ILE361      0.0019
    143  CD1      -10.9940   56.1230   -6.7310 C.3   361  ILE361      0.0001
@<TRIPOS>BOND
     1    17    16    2
     2   139   138    2
     3   138   137    1
     4    24    23    2
     5    16    15    1
     6    16    21   am
     7     8     7    2
     8    15    18    1
     9    15    14    1
    10   136   137    1
    11    18    20    1
    12    18    19    1
    13    23    22    1
    14   137   140    1
    15    22    21    1
    16    22    25    1
    17   133   132    2
    18     7    14   am
    19     7     6    1
    20   132   131    1
    21   140   142    1
    22   140   141    1
    23    25    26    1
    24     6     9    1
    25     6     5    1
    26     9    10    1
    27    26    27    1
    28    12    11    2
    29   141   143    1
    30    10    11    1
    31     4     3    2
    32   127   126    2
    33    27    29   ar
    34    27    28   ar
    35   131   130    1
    36   131   134    1
    37    11    13   am
    38   126   130   am
    39   126   125    1
    40     5     3   am
    41   134   135    1
    42     3     2    1
    43   125   124    1
    44   125   128    1
    45   119   118    2
    46     2     1    1
    47   118   117    1
    48   128   129    1
    49   116   117    1
    50   108   107    2
    51   117   120    1
    52   122   121    2
    53   109   110    1
    54   109   106    1
    55   112   114   ar
    56   112   110   ar
    57   107   106    1
    58   121   120    1
    59   121   123   am
    60   114   115   ar
    61   110   111   ar
    62   106   105    1
    63    54    55    1
    64    60    59    1
    65    34    31    1
    66   115   113   ar
    67    58    55    1
    68    58    59    1
    69   111   113   ar
    70    55    56    1
    71    31    30    1
    72    31    32    1
    73    59    61    1
    74    56    57    2
    75    32    33    2
    76    81    78    1
    77    81    82    1
    78    92    91   ar
    79    78    77    1
    80    78    79    1
    81    84    82   am
    82    62    63    1
    83    74    73    1
    84    74    75    1
    85    73    70    1
    86    93    91   ar
    87    82    83    2
    88    91    90    1
    89    68    66    1
    90    41    39    1
    91    40    39    1
    92    70    69    1
    93    70    71    1
    94    85    79   am
    95    85    86    1
    96    63    66    1
    97    63    64    1
    98    79    80    2
    99    76    75    1
   100    39    36    1
   101    90    89    1
   102    35    36    1
   103    66    67    1
   104    89    86    1
   105    86    87    1
   106    64    65    2
   107    53    52    1
   108    36    37    1
   109    71    72    2
   110    94    87   am
   111    94    95    1
   112   100   102   ar
   113   100    99   ar
   114    98    99    1
   115    98    95    1
   116    87    88    2
   117    37    38    2
   118    51    52   ar
   119    51    49   ar
   120    52    50   ar
   121   102   104   ar
   122    99   101   ar
   123    95    96    1
   124    49    47   ar
   125    50    48   ar
   126    96    97    2
   127   104   103   ar
   128   101   103   ar
   129    47    48   ar
   130    47    46    1
   131    46    43    1
   132    42    43    1
   133    43    44    1
   134    44    45    2
