@<TRIPOS>MOLECULE
tmp/4pd8A00.pdb
 161 150 0 0 0
SMALL
GASTEIGER

@<TRIPOS>ATOM
      1  N        -11.2830  130.8020   -0.0450 N.3   104  LEU104     -0.1245
      2  CA       -11.4650  130.9700   -1.4830 C.3   104  LEU104      0.1561
      3  C        -10.4920  130.0970   -2.2630 C.2   104  LEU104      0.2260
      4  O        -10.8040  129.6230   -3.3540 O.2   104  LEU104     -0.2867
      5  CB       -11.2850  132.4360   -1.8850 C.3   104  LEU104      0.0270
      6  CG       -12.2610  133.4550   -1.2960 C.3   104  LEU104      0.0019
      7  CD1      -11.9870  134.8440   -1.8530 C.3   104  LEU104      0.0001
      8  CD2      -13.6920  133.0450   -1.5710 C.3   104  LEU104      0.0001
      9  N        -11.8150  126.7140   -4.3980 N.3   108  SER108     -0.1217
     10  CA       -11.5210  126.7880   -5.8210 C.3   108  SER108      0.1889
     11  C        -10.7780  125.5320   -6.2570 C.2   108  SER108      0.2288
     12  O        -11.0110  125.0080   -7.3470 O.2   108  SER108     -0.2866
     13  CB       -10.7020  128.0380   -6.1460 C.3   108  SER108      0.2089
     14  OG       -11.4050  129.2120   -5.7790 O.3   108  SER108     -0.2183
     15  N        -18.9620  130.6350  -10.1410 N.3   152  GLY152     -0.1210
     16  CA       -19.1470  132.0540  -10.3890 C.3   152  GLY152      0.1956
     17  C        -19.6360  132.3980  -11.7820 C.2   152  GLY152      0.2612
     18  O        -19.7290  131.5360  -12.6550 O.2   152  GLY152     -0.2717
     19  N        -19.9340  133.6770  -11.9870 N.am  153  GLN153     -0.1965
     20  CA       -20.5400  134.1550  -13.2250 C.3   153  GLN153      0.1733
     21  C        -19.6480  133.9970  -14.4520 C.2   153  GLN153      0.2617
     22  O        -20.1430  133.9560  -15.5790 O.2   153  GLN153     -0.2715
     23  CB       -20.9350  135.6250  -13.0750 C.3   153  GLN153      0.0408
     24  CG       -19.7900  136.5440  -12.6900 C.3   153  GLN153      0.0908
     25  CD       -20.2620  137.9480  -12.3870 C.2   153  GLN153      0.2608
     26  OE1      -21.3610  138.3420  -12.7760 O.2   153  GLN153     -0.2717
     27  NE2      -19.4360  138.7110  -11.6790 N.am  153  GLN153     -0.0878
     28  N        -18.3390  133.9170  -14.2420 N.am  154  THR154     -0.1937
     29  CA       -17.4130  133.7880  -15.3640 C.3   154  THR154      0.2028
     30  C        -17.0450  132.3300  -15.6200 C.2   154  THR154      0.2642
     31  O        -16.5960  131.9820  -16.7100 O.2   154  THR154     -0.2714
     32  CB       -16.1230  134.6020  -15.1350 C.3   154  THR154      0.1808
     33  OG1      -15.5430  134.2430  -13.8760 O.3   154  THR154     -0.2208
     34  CG2      -16.4270  136.0900  -15.1370 C.3   154  THR154      0.0379
     35  N        -17.2460  131.4830  -14.6160 N.am  155  GLU155     -0.1976
     36  CA       -16.8990  130.0710  -14.7240 C.3   155  GLU155      0.1602
     37  C        -18.0730  129.2310  -15.2230 C.2   155  GLU155      0.2287
     38  O        -17.8810  128.2260  -15.9030 O.2   155  GLU155     -0.2864
     39  CB       -16.4100  129.5330  -13.3750 C.3   155  GLU155      0.0415
     40  CG       -15.0950  130.1320  -12.8880 C.3   155  GLU155      0.1163
     41  CD       -15.2660  131.4970  -12.2430 C.2   155  GLU155      0.3649
     42  OE1      -16.4140  131.9850  -12.1670 O.co2 155  GLU155     -0.2457
     43  OE2      -14.2510  132.0830  -11.8090 O.co2 155  GLU155     -0.2457
     44  N        -21.0120  132.1960   -5.8500 N.3   184  ALA184     -0.1245
     45  CA       -20.1640  131.0460   -6.1480 C.3   184  ALA184      0.1562
     46  C        -19.9000  130.2420   -4.8800 C.2   184  ALA184      0.2260
     47  O        -20.0080  130.7680   -3.7710 O.2   184  ALA184     -0.2867
     48  CB       -18.8590  131.4970   -6.7790 C.3   184  ALA184      0.0290
     49  N        -17.1660  129.2430   -3.6940 N.3   186  GLY186     -0.1210
     50  CA       -15.9980  129.7620   -3.0060 C.3   186  GLY186      0.1956
     51  C        -16.3130  130.8400   -1.9850 C.2   186  GLY186      0.2611
     52  O        -15.8340  130.7820   -0.8520 O.2   186  GLY186     -0.2717
     53  N        -17.1110  131.8280   -2.3830 N.am  187  VAL187     -0.1979
     54  CA       -17.4670  132.9240   -1.4840 C.3   187  VAL187      0.1595
     55  C        -18.5710  132.5340   -0.5110 C.2   187  VAL187      0.2287
     56  O        -18.7100  133.1460    0.5470 O.2   187  VAL187     -0.2864
     57  CB       -17.9190  134.1820   -2.2550 C.3   187  VAL187      0.0276
     58  CG1      -16.7160  134.9710   -2.7460 C.3   187  VAL187      0.0022
     59  CG2      -18.8480  133.8070   -3.4050 C.3   187  VAL187      0.0022
     60  N        -18.6230  133.8100    3.1940 N.3   191  TYR191     -0.1241
     61  CA       -19.6920  134.4950    3.9100 C.3   191  TYR191      0.1605
     62  C        -20.1300  133.6810    5.1210 C.2   191  TYR191      0.2264
     63  O        -20.4690  134.2360    6.1650 O.2   191  TYR191     -0.2867
     64  CB       -20.8810  134.7500    2.9810 C.3   191  TYR191      0.0534
     65  CG       -20.5240  135.5630    1.7590 C.ar  191  TYR191     -0.0201
     66  CD1      -19.5830  136.5810    1.8330 C.ar  191  TYR191     -0.0009
     67  CD2      -21.1130  135.3020    0.5290 C.ar  191  TYR191     -0.0009
     68  CE1      -19.2450  137.3230    0.7200 C.ar  191  TYR191      0.0417
     69  CE2      -20.7810  136.0410   -0.5920 C.ar  191  TYR191      0.0417
     70  CZ       -19.8470  137.0500   -0.4890 C.ar  191  TYR191      0.1957
     71  OH       -19.5080  137.7900   -1.5970 O.3   191  TYR191     -0.2866
     72  N         -7.7900  135.3010   -6.9070 N.3   247  LEU247     -0.1245
     73  CA        -9.1040  135.7890   -6.5260 C.3   247  LEU247      0.1561
     74  C         -9.1350  136.2580   -5.0750 C.2   247  LEU247      0.2260
     75  O         -9.7980  137.2430   -4.7470 O.2   247  LEU247     -0.2867
     76  CB       -10.1370  134.6930   -6.7520 C.3   247  LEU247      0.0270
     77  CG       -11.6020  135.0030   -6.4780 C.3   247  LEU247      0.0019
     78  CD1      -12.0920  136.1420   -7.3510 C.3   247  LEU247      0.0001
     79  CD2      -12.3830  133.7500   -6.7500 C.3   247  LEU247      0.0001
     80  N        -10.0270  140.1600   -3.9170 N.3   251  VAL251     -0.1245
     81  CA       -11.0650  140.4690   -2.9380 C.3   251  VAL251      0.1561
     82  C        -10.4840  141.2360   -1.7530 C.2   251  VAL251      0.2260
     83  O        -11.0650  142.2220   -1.2930 O.2   251  VAL251     -0.2867
     84  CB       -11.7660  139.1890   -2.4340 C.3   251  VAL251      0.0252
     85  CG1      -12.6600  139.4990   -1.2400 C.3   251  VAL251      0.0019
     86  CG2      -12.5710  138.5490   -3.5560 C.3   251  VAL251      0.0019
     87  N         -9.7060  144.7650   -2.7430 N.3   254  MET254     -0.1245
     88  CA       -10.9630  145.4780   -2.9350 C.3   254  MET254      0.1570
     89  C        -11.5640  145.9120   -1.6020 C.2   254  MET254      0.2261
     90  O        -12.0800  147.0220   -1.4800 O.2   254  MET254     -0.2867
     91  CB       -11.9600  144.6070   -3.7070 C.3   254  MET254      0.0387
     92  CG       -13.3490  145.2190   -3.8760 C.3   254  MET254      0.0595
     93  SD       -14.4790  144.8900   -2.5020 S.3   254  MET254     -0.1393
     94  CE       -14.5340  143.0970   -2.5240 C.3   254  MET254      0.0692
     95  N        -20.6800  145.9620   -3.9360 N.3   319  ASN319     -0.1225
     96  CA       -20.8120  144.5210   -4.1330 C.3   319  ASN319      0.1785
     97  C        -21.2960  143.8400   -2.8560 C.2   319  ASN319      0.2597
     98  O        -21.3380  144.4560   -1.7910 O.2   319  ASN319     -0.2718
     99  CB       -19.4920  143.9000   -4.6040 C.3   319  ASN319      0.1169
    100  CG       -18.3450  144.1540   -3.6460 C.2   319  ASN319      0.2627
    101  OD1      -18.2470  143.5200   -2.5960 O.2   319  ASN319     -0.2716
    102  ND2      -17.4580  145.0740   -4.0130 N.am  319  ASN319     -0.0877
    103  N        -21.6600  142.5670   -2.9720 N.am  320  GLU320     -0.1965
    104  CA       -22.2700  141.8390   -1.8660 C.3   320  GLU320      0.1733
    105  C        -21.2710  141.4990   -0.7650 C.2   320  GLU320      0.2616
    106  O        -21.6590  141.2440    0.3760 O.2   320  GLU320     -0.2715
    107  CB       -22.9310  140.5570   -2.3760 C.3   320  GLU320      0.0429
    108  CG       -21.9870  139.3810   -2.5600 C.3   320  GLU320      0.1163
    109  CD       -21.0090  139.5720   -3.7060 C.2   320  GLU320      0.3649
    110  OE1      -21.2590  140.4330   -4.5740 O.co2 320  GLU320     -0.2457
    111  OE2      -19.9880  138.8530   -3.7390 O.co2 320  GLU320     -0.2457
    112  N        -19.9880  141.4940   -1.1100 N.am  321  PHE321     -0.1974
    113  CA       -18.9470  141.1510   -0.1520 C.3   321  PHE321      0.1639
    114  C        -18.7560  142.2830    0.8560 C.2   321  PHE321      0.2290
    115  O        -18.5750  142.0410    2.0510 O.2   321  PHE321     -0.2864
    116  CB       -17.6380  140.8420   -0.8790 C.3   321  PHE321      0.0560
    117  CG       -16.8510  139.7250   -0.2600 C.ar  321  PHE321     -0.0200
    118  CD1      -16.3550  138.6930   -1.0410 C.ar  321  PHE321     -0.0042
    119  CD2      -16.6020  139.7090    1.1010 C.ar  321  PHE321     -0.0042
    120  CE1      -15.6290  137.6640   -0.4720 C.ar  321  PHE321     -0.0003
    121  CE2      -15.8770  138.6840    1.6750 C.ar  321  PHE321     -0.0003
    122  CZ       -15.3900  137.6600    0.8880 C.ar  321  PHE321     -0.0000
    123  N        -24.2920  138.2670   -7.0880 N.3   354  PHE354     -0.1241
    124  CA       -23.2370  139.0950   -7.6680 C.3   354  PHE354      0.1605
    125  C        -23.8160  140.2840   -8.4360 C.2   354  PHE354      0.2264
    126  O        -23.0960  140.9750   -9.1580 O.2   354  PHE354     -0.2867
    127  CB       -22.3440  138.2650   -8.5960 C.3   354  PHE354      0.0534
    128  CG       -21.3870  137.3520   -7.8740 C.ar  354  PHE354     -0.0203
    129  CD1      -21.2520  137.4080   -6.4960 C.ar  354  PHE354     -0.0042
    130  CD2      -20.6140  136.4430   -8.5800 C.ar  354  PHE354     -0.0042
    131  CE1      -20.3670  136.5690   -5.8380 C.ar  354  PHE354     -0.0003
    132  CE2      -19.7300  135.6040   -7.9280 C.ar  354  PHE354     -0.0003
    133  CZ       -19.6060  135.6670   -6.5560 C.ar  354  PHE354     -0.0000
    134  N        -24.3540  143.5040   -9.2820 N.3   356  ASN356     -0.1240
    135  CA       -23.9290  144.8900   -9.1100 C.3   356  ASN356      0.1653
    136  C        -23.3460  145.4220  -10.4150 C.2   356  ASN356      0.2266
    137  O        -23.0520  144.6500  -11.3270 O.2   356  ASN356     -0.2867
    138  CB       -22.9140  145.0230   -7.9680 C.3   356  ASN356      0.1155
    139  CG       -21.6600  144.1950   -8.1940 C.2   356  ASN356      0.2627
    140  OD1      -20.8350  144.5150   -9.0500 O.2   356  ASN356     -0.2716
    141  ND2      -21.5030  143.1360   -7.4090 N.am  356  ASN356     -0.0877
    142  N        -20.4690  146.7180  -11.1130 N.3   358  SER358     -0.1202
    143  CA       -19.0770  146.3600  -11.3680 C.3   358  SER358      0.2020
    144  C        -18.9460  144.9700  -11.9800 C.2   358  SER358      0.2619
    145  O        -17.9340  144.6510  -12.6060 O.2   358  SER358     -0.2717
    146  CB       -18.2550  146.4430  -10.0810 C.3   358  SER358      0.2103
    147  OG       -17.9450  147.7900   -9.7680 O.3   358  SER358     -0.2182
    148  N        -19.9750  144.1490  -11.8080 N.am  359  SER359     -0.1951
    149  CA       -19.9620  142.7980  -12.3530 C.3   359  SER359      0.1924
    150  C        -20.0970  142.7990  -13.8740 C.2   359  SER359      0.2314
    151  O        -19.7970  141.7990  -14.5250 O.2   359  SER359     -0.2863
    152  CB       -21.0740  141.9580  -11.7260 C.3   359  SER359      0.2116
    153  OG       -20.8020  141.6790  -10.3640 O.3   359  SER359     -0.2180
    154  N        -16.6830  142.6400  -15.3020 N.3   362  ILE362     -0.1245
    155  CA       -16.2020  141.2810  -15.0960 C.3   362  ILE362      0.1561
    156  C        -16.8300  140.3380  -16.1200 C.2   362  ILE362      0.2260
    157  O        -16.1680  139.4340  -16.6320 O.2   362  ILE362     -0.2867
    158  CB       -16.5020  140.7950  -13.6630 C.3   362  ILE362      0.0252
    159  CG1      -15.7700  141.6790  -12.6500 C.3   362  ILE362      0.0019
    160  CG2      -16.0900  139.3420  -13.4840 C.3   362  ILE362      0.0019
    161  CD1      -15.9710  141.2630  -11.2140 C.3   362  ILE362      0.0001
@<TRIPOS>BOND
     1    31    30    2
     2   157   156    2
     3   156   155    1
     4    38    37    2
     5    30    29    1
     6    30    35   am
     7    22    21    2
     8    29    32    1
     9    29    28    1
    10   154   155    1
    11    37    36    1
    12    34    32    1
    13    32    33    1
    14   155   158    1
    15    36    35    1
    16    36    39    1
    17   151   150    2
    18    21    28   am
    19    21    20    1
    20   150   149    1
    21   158   160    1
    22   158   159    1
    23    39    40    1
    24    20    23    1
    25    20    19    1
    26    23    24    1
    27    40    41    1
    28    26    25    2
    29    24    25    1
    30    18    17    2
    31   159   161    1
    32   145   144    2
    33    25    27   am
    34   149   148    1
    35   149   152    1
    36    41    42   ar
    37    41    43   ar
    38    19    17   am
    39   144   148   am
    40   144   143    1
    41    17    16    1
    42   152   153    1
    43   143   142    1
    44   143   146    1
    45   137   136    2
    46   136   135    1
    47    16    15    1
    48   146   147    1
    49   134   135    1
    50   126   125    2
    51   135   138    1
    52   140   139    2
    53   127   128    1
    54   127   124    1
    55   130   132   ar
    56   130   128   ar
    57   125   124    1
    58   139   138    1
    59   139   141   am
    60   132   133   ar
    61   128   129   ar
    62   124   123    1
    63    78    77    1
    64    12    11    2
    65    72    73    1
    66    48    45    1
    67    76    73    1
    68    76    77    1
    69    79    77    1
    70   133   131   ar
    71    73    74    1
    72   129   131   ar
    73    11    10    1
    74    45    44    1
    75    45    46    1
    76    13    10    1
    77    13    14    1
    78    10     9    1
    79    74    75    2
    80    46    47    2
    81    99    96    1
    82    99   100    1
    83   110   109   ar
    84    96    95    1
    85    96    97    1
    86   102   100   am
    87    80    81    1
    88    92    91    1
    89    92    93    1
    90   111   109   ar
    91    91    88    1
    92   109   108    1
    93    49    50    1
    94   100   101    2
    95    86    84    1
    96    59    57    1
    97     4     3    2
    98    50    51    1
    99   103    97   am
   100   103   104    1
   101    81    84    1
   102    81    82    1
   103    88    87    1
   104    88    89    1
   105    97    98    2
   106    58    57    1
   107   108   107    1
   108    94    93    1
   109    84    85    1
   110    53    51   am
   111    53    54    1
   112   107   104    1
   113     3     2    1
   114    57    54    1
   115    51    52    2
   116     5     2    1
   117     5     6    1
   118   104   105    1
   119     7     6    1
   120    82    83    2
   121    89    90    2
   122    71    70    1
   123     8     6    1
   124    54    55    1
   125     2     1    1
   126   112   105   am
   127   112   113    1
   128   118   120   ar
   129   118   117   ar
   130   116   117    1
   131   116   113    1
   132   105   106    2
   133    69    70   ar
   134    69    67   ar
   135    55    56    2
   136    70    68   ar
   137   120   122   ar
   138   117   119   ar
   139   113   114    1
   140    67    65   ar
   141    68    66   ar
   142   114   115    2
   143   122   121   ar
   144   119   121   ar
   145    65    66   ar
   146    65    64    1
   147    64    61    1
   148    60    61    1
   149    61    62    1
   150    62    63    2
