@<TRIPOS>MOLECULE
tmp/4pd9A00.pdb
 143 134 0 0 0
SMALL
GASTEIGER

@<TRIPOS>ATOM
      1  N         44.1230  -22.0410   -8.0730 N.3   152  GLY152     -0.1210
      2  CA        45.2560  -21.1760   -8.3480 C.3   152  GLY152      0.1956
      3  C         45.2140  -20.4510   -9.6790 C.2   152  GLY152      0.2612
      4  O         44.2680  -20.5930  -10.4550 O.2   152  GLY152     -0.2717
      5  N         46.2610  -19.6740   -9.9390 N.am  153  GLN153     -0.1965
      6  CA        46.3410  -18.8370  -11.1320 C.3   153  GLN153      0.1733
      7  C         46.5750  -19.6390  -12.4110 C.2   153  GLN153      0.2617
      8  O         46.2280  -19.1890  -13.5020 O.2   153  GLN153     -0.2715
      9  CB        47.4520  -17.7970  -10.9670 C.3   153  GLN153      0.0408
     10  CG        48.7920  -18.3840  -10.5790 C.3   153  GLN153      0.0908
     11  CD        49.8600  -17.3260  -10.4100 C.2   153  GLN153      0.2608
     12  OE1       49.7270  -16.2060  -10.9050 O.2   153  GLN153     -0.2717
     13  NE2       50.9280  -17.6750   -9.7040 N.am  153  GLN153     -0.0878
     14  N         47.1660  -20.8230  -12.2750 N.am  154  THR154     -0.1937
     15  CA        47.4600  -21.6700  -13.4310 C.3   154  THR154      0.2028
     16  C         46.4470  -22.8070  -13.5860 C.2   154  THR154      0.2642
     17  O         46.4030  -23.4780  -14.6200 O.2   154  THR154     -0.2714
     18  CB        48.8750  -22.2730  -13.3390 C.3   154  THR154      0.1808
     19  OG1       49.0290  -22.9480  -12.0850 O.3   154  THR154     -0.2208
     20  CG2       49.9250  -21.1800  -13.4510 C.3   154  THR154      0.0379
     21  N         45.6310  -23.0170  -12.5580 N.am  155  GLU155     -0.1976
     22  CA        44.6310  -24.0800  -12.5840 C.3   155  GLU155      0.1602
     23  C         43.2750  -23.5530  -13.0360 C.2   155  GLU155      0.2287
     24  O         42.4490  -24.3010  -13.5600 O.2   155  GLU155     -0.2864
     25  CB        44.5030  -24.7370  -11.2060 C.3   155  GLU155      0.0415
     26  CG        45.7210  -25.5440  -10.7700 C.3   155  GLU155      0.1163
     27  CD        46.8350  -24.6770  -10.2130 C.2   155  GLU155      0.3649
     28  OE1       46.7110  -23.4340  -10.2610 O.co2 155  GLU155     -0.2457
     29  OE2       47.8350  -25.2430   -9.7220 O.co2 155  GLU155     -0.2457
     30  N         44.7520  -19.6750   -3.9010 N.3   184  ALA184     -0.1245
     31  CA        44.2240  -21.0120   -4.1440 C.3   184  ALA184      0.1562
     32  C         43.5980  -21.5700   -2.8710 C.2   184  ALA184      0.2260
     33  O         43.9090  -21.1180   -1.7690 O.2   184  ALA184     -0.2867
     34  CB        45.3180  -21.9350   -4.6520 C.3   184  ALA184      0.0290
     35  N         46.4160  -23.1940   -0.3250 N.3   187  VAL187     -0.1245
     36  CA        47.1660  -22.2630    0.5110 C.3   187  VAL187      0.1561
     37  C         46.2500  -21.4760    1.4460 C.2   187  VAL187      0.2260
     38  O         46.6910  -20.9800    2.4820 O.2   187  VAL187     -0.2867
     39  CB        47.9880  -21.2720   -0.3410 C.3   187  VAL187      0.0252
     40  CG1       49.1030  -22.0020   -1.0750 C.3   187  VAL187      0.0019
     41  CG2       47.0890  -20.5320   -1.3200 C.3   187  VAL187      0.0019
     42  N         46.9350  -20.9240    5.2910 N.3   191  TYR191     -0.1241
     43  CA        46.9710  -19.6390    5.9830 C.3   191  TYR191      0.1605
     44  C         46.0350  -19.6510    7.1860 C.2   191  TYR191      0.2264
     45  O         46.3320  -19.0550    8.2210 O.2   191  TYR191     -0.2867
     46  CB        46.5940  -18.5000    5.0330 C.3   191  TYR191      0.0534
     47  CG        47.5380  -18.3400    3.8630 C.ar  191  TYR191     -0.0201
     48  CD1       48.8740  -18.7050    3.9690 C.ar  191  TYR191     -0.0009
     49  CD2       47.0920  -17.8290    2.6510 C.ar  191  TYR191     -0.0009
     50  CE1       49.7390  -18.5630    2.9030 C.ar  191  TYR191      0.0417
     51  CE2       47.9520  -17.6840    1.5780 C.ar  191  TYR191      0.0417
     52  CZ        49.2740  -18.0520    1.7100 C.ar  191  TYR191      0.1957
     53  OH        50.1350  -17.9110    0.6470 O.3   191  TYR191     -0.2866
     54  N         53.5350  -29.1490   -4.5100 N.3   247  LEU247     -0.1245
     55  CA        53.3690  -27.7620   -4.0950 C.3   247  LEU247      0.1561
     56  C         53.8630  -27.5640   -2.6660 C.2   247  LEU247      0.2260
     57  O         54.4920  -26.5530   -2.3530 O.2   247  LEU247     -0.2867
     58  CB        51.9040  -27.3380   -4.2120 C.3   247  LEU247      0.0270
     59  CG        51.5630  -25.9060   -3.7950 C.3   247  LEU247      0.0019
     60  CD1       52.2840  -24.8990   -4.6780 C.3   247  LEU247      0.0001
     61  CD2       50.0600  -25.6800   -3.8330 C.3   247  LEU247      0.0001
     62  N         56.7950  -24.9100   -1.5970 N.3   251  VAL251     -0.1245
     63  CA        56.5170  -23.8530   -0.6300 C.3   251  VAL251      0.1561
     64  C         57.4460  -23.9640    0.5760 C.2   251  VAL251      0.2260
     65  O         58.0040  -22.9670    1.0370 O.2   251  VAL251     -0.2867
     66  CB        55.0500  -23.8920   -0.1550 C.3   251  VAL251      0.0252
     67  CG1       54.8470  -22.9660    1.0340 C.3   251  VAL251      0.0019
     68  CG2       54.1120  -23.5180   -1.2950 C.3   251  VAL251      0.0019
     69  N         60.8710  -22.9650   -0.3040 N.3   254  MET254     -0.1245
     70  CA        60.8820  -21.5260   -0.5360 C.3   254  MET254      0.1570
     71  C         60.9790  -20.7620    0.7790 C.2   254  MET254      0.2261
     72  O         61.7080  -19.7760    0.8830 O.2   254  MET254     -0.2867
     73  CB        59.6290  -21.1050   -1.3110 C.3   254  MET254      0.0387
     74  CG        59.4680  -19.6030   -1.5100 C.3   254  MET254      0.0595
     75  SD        58.5030  -18.8110   -0.2060 S.3   254  MET254     -0.1393
     76  CE        56.9630  -19.7180   -0.3210 C.3   254  MET254      0.0692
     77  N         56.5170  -12.7220   -1.6570 N.3   319  ASN319     -0.1225
     78  CA        55.2120  -13.3400   -1.8550 C.3   319  ASN319      0.1785
     79  C         54.4010  -13.3020   -0.5650 C.2   319  ASN319      0.2597
     80  O         54.9350  -13.0000    0.5020 O.2   319  ASN319     -0.2718
     81  CB        55.3550  -14.7790   -2.3600 C.3   319  ASN319      0.1169
     82  CG        56.1590  -15.6530   -1.4220 C.2   319  ASN319      0.2627
     83  OD1       55.6150  -16.2540   -0.4970 O.2   319  ASN319     -0.2716
     84  ND2       57.4630  -15.7350   -1.6610 N.am  319  ASN319     -0.0877
     85  N         53.1130  -13.6100   -0.6670 N.am  320  GLU320     -0.1965
     86  CA        52.2030  -13.4560    0.4610 C.3   320  GLU320      0.1733
     87  C         52.3990  -14.5260    1.5310 C.2   320  GLU320      0.2616
     88  O         52.0070  -14.3350    2.6830 O.2   320  GLU320     -0.2715
     89  CB        50.7520  -13.4710   -0.0230 C.3   320  GLU320      0.0429
     90  CG        50.1750  -14.8530   -0.2830 C.3   320  GLU320      0.1163
     91  CD        50.7400  -15.5060   -1.5280 C.2   320  GLU320      0.3649
     92  OE1       51.3600  -14.7960   -2.3470 O.co2 320  GLU320     -0.2457
     93  OE2       50.5610  -16.7320   -1.6870 O.co2 320  GLU320     -0.2457
     94  N         53.0040  -15.6470    1.1540 N.am  321  PHE321     -0.1974
     95  CA        53.2290  -16.7340    2.0980 C.3   321  PHE321      0.1639
     96  C         54.3400  -16.3590    3.0730 C.2   321  PHE321      0.2290
     97  O         54.2840  -16.6990    4.2550 O.2   321  PHE321     -0.2864
     98  CB        53.5670  -18.0300    1.3580 C.3   321  PHE321      0.0560
     99  CG        52.9970  -19.2630    2.0030 C.ar  321  PHE321     -0.0200
    100  CD1       52.3560  -20.2240    1.2400 C.ar  321  PHE321     -0.0042
    101  CD2       53.1040  -19.4610    3.3700 C.ar  321  PHE321     -0.0042
    102  CE1       51.8270  -21.3580    1.8290 C.ar  321  PHE321     -0.0003
    103  CE2       52.5800  -20.5930    3.9640 C.ar  321  PHE321     -0.0003
    104  CZ        51.9420  -21.5430    3.1930 C.ar  321  PHE321     -0.0000
    105  N         48.1350  -13.5810   -5.0370 N.3   354  PHE354     -0.1241
    106  CA        49.3850  -14.0510   -5.6260 C.3   354  PHE354      0.1605
    107  C         50.0950  -12.9340   -6.3870 C.2   354  PHE354      0.2264
    108  O         50.9720  -13.1940   -7.2120 O.2   354  PHE354     -0.2867
    109  CB        49.1310  -15.2320   -6.5680 C.3   354  PHE354      0.0534
    110  CG        48.7680  -16.5120   -5.8660 C.ar  354  PHE354     -0.0203
    111  CD1       48.9050  -16.6340   -4.4930 C.ar  354  PHE354     -0.0042
    112  CD2       48.2980  -17.5980   -6.5860 C.ar  354  PHE354     -0.0042
    113  CE1       48.5740  -17.8140   -3.8510 C.ar  354  PHE354     -0.0003
    114  CE2       47.9650  -18.7800   -5.9500 C.ar  354  PHE354     -0.0003
    115  CZ        48.1040  -18.8880   -4.5810 C.ar  354  PHE354     -0.0000
    116  N         52.6040  -10.8690   -7.2680 N.3   356  ASN356     -0.1240
    117  CA        54.0360  -10.6300   -7.1250 C.3   356  ASN356      0.1653
    118  C         54.7860  -10.9510   -8.4150 C.2   356  ASN356      0.2266
    119  O         54.2440  -11.5960   -9.3130 O.2   356  ASN356     -0.2867
    120  CB        54.6080  -11.4450   -5.9620 C.3   356  ASN356      0.1155
    121  CG        54.3490  -12.9310   -6.1050 C.2   356  ASN356      0.2627
    122  OD1       55.0970  -13.6400   -6.7780 O.2   356  ASN356     -0.2716
    123  ND2       53.2900  -13.4120   -5.4630 N.am  356  ASN356     -0.0877
    124  N         57.2630  -12.9190   -8.9870 N.3   358  SER358     -0.1202
    125  CA        57.6340  -14.3200   -9.1570 C.3   358  SER358      0.2020
    126  C         56.4980  -15.1450   -9.7500 C.2   358  SER358      0.2619
    127  O         56.7220  -16.2310  -10.2840 O.2   358  SER358     -0.2717
    128  CB        58.0720  -14.9190   -7.8200 C.3   358  SER358      0.2103
    129  OG        59.2220  -14.2600   -7.3210 O.3   358  SER358     -0.2182
    130  N         55.2790  -14.6240   -9.6550 N.am  359  SER359     -0.1951
    131  CA        54.1120  -15.3220  -10.1790 C.3   359  SER359      0.1924
    132  C         54.0100  -15.1760  -11.6940 C.2   359  SER359      0.2314
    133  O         53.2660  -15.9080  -12.3460 O.2   359  SER359     -0.2863
    134  CB        52.8370  -14.8060   -9.5120 C.3   359  SER359      0.2116
    135  OG        52.8400  -15.0820   -8.1220 O.3   359  SER359     -0.2180
    136  N         55.4920  -18.2120  -13.1460 N.3   362  ILE362     -0.1245
    137  CA        54.5450  -19.3100  -13.0020 C.3   362  ILE362      0.1561
    138  C         53.4630  -19.2220  -14.0750 C.2   362  ILE362      0.2260
    139  O         53.0210  -20.2390  -14.6120 O.2   362  ILE362     -0.2867
    140  CB        53.8980  -19.3120  -11.6020 C.3   362  ILE362      0.0252
    141  CG1       54.9800  -19.3590  -10.5210 C.3   362  ILE362      0.0019
    142  CG2       52.9390  -20.4840  -11.4500 C.3   362  ILE362      0.0019
    143  CD1       54.4380  -19.4380   -9.1140 C.3   362  ILE362      0.0001
@<TRIPOS>BOND
     1    17    16    2
     2   139   138    2
     3   138   137    1
     4    16    15    1
     5    16    21   am
     6    24    23    2
     7     8     7    2
     8    20    18    1
     9    15    18    1
    10    15    14    1
    11    18    19    1
    12   136   137    1
    13    23    22    1
    14   137   140    1
    15    22    21    1
    16    22    25    1
    17     7    14   am
    18     7     6    1
    19   133   132    2
    20   132   131    1
    21   140   142    1
    22   140   141    1
    23    25    26    1
    24     6     9    1
    25     6     5    1
    26     9    10    1
    27    12    11    2
    28    26    27    1
    29    10    11    1
    30   141   143    1
    31     4     3    2
    32    11    13   am
    33   127   126    2
    34    28    27   ar
    35    27    29   ar
    36   131   130    1
    37   131   134    1
    38     5     3   am
    39   126   130   am
    40   126   125    1
    41     3     2    1
    42   134   135    1
    43   119   118    2
    44   125   124    1
    45   125   128    1
    46   118   117    1
    47     2     1    1
    48   128   129    1
    49   116   117    1
    50   108   107    2
    51   117   120    1
    52   122   121    2
    53   112   114   ar
    54   112   110   ar
    55   109   110    1
    56   109   106    1
    57   107   106    1
    58   121   120    1
    59   121   123   am
    60   114   115   ar
    61   110   111   ar
    62   106   105    1
    63    60    59    1
    64    34    31    1
    65   115   113   ar
    66    54    55    1
    67   111   113   ar
    68    58    55    1
    69    58    59    1
    70    31    30    1
    71    31    32    1
    72    55    56    1
    73    61    59    1
    74    32    33    2
    75    56    57    2
    76    81    78    1
    77    81    82    1
    78    92    91   ar
    79    78    77    1
    80    78    79    1
    81    93    91   ar
    82    84    82   am
    83    62    63    1
    84    91    90    1
    85    74    73    1
    86    74    75    1
    87    82    83    2
    88    41    39    1
    89    73    70    1
    90    68    66    1
    91    40    39    1
    92    85    79   am
    93    85    86    1
    94    63    66    1
    95    63    64    1
    96    79    80    2
    97    70    69    1
    98    70    71    1
    99    39    36    1
   100    35    36    1
   101    76    75    1
   102    90    89    1
   103    66    67    1
   104    89    86    1
   105    86    87    1
   106    36    37    1
   107    64    65    2
   108    53    52    1
   109    71    72    2
   110    94    87   am
   111    94    95    1
   112   100   102   ar
   113   100    99   ar
   114    98    99    1
   115    98    95    1
   116    37    38    2
   117    87    88    2
   118    51    52   ar
   119    51    49   ar
   120    52    50   ar
   121   102   104   ar
   122    99   101   ar
   123    95    96    1
   124    49    47   ar
   125    50    48   ar
   126    96    97    2
   127   104   103   ar
   128   101   103   ar
   129    47    48   ar
   130    47    46    1
   131    46    43    1
   132    42    43    1
   133    43    44    1
   134    44    45    2
