@<TRIPOS>MOLECULE
tmp/4pdaA01.pdb
 114 104 0 0 0
SMALL
GASTEIGER

@<TRIPOS>ATOM
      1  N         63.9010  -18.1540   -0.3480 N.3   258  PHE258     -0.1241
      2  CA        63.5270  -16.7440   -0.2520 C.3   258  PHE258      0.1605
      3  C         63.7230  -16.1740    1.1500 C.2   258  PHE258      0.2264
      4  O         64.3350  -15.1200    1.3110 O.2   258  PHE258     -0.2867
      5  CB        62.0760  -16.5430   -0.6950 C.3   258  PHE258      0.0534
      6  CG        61.8910  -16.5390   -2.1890 C.ar  258  PHE258     -0.0203
      7  CD1       62.9050  -16.9680   -3.0300 C.ar  258  PHE258     -0.0042
      8  CD2       60.7080  -16.0870   -2.7520 C.ar  258  PHE258     -0.0042
      9  CE1       62.7370  -16.9600   -4.4030 C.ar  258  PHE258     -0.0003
     10  CE2       60.5360  -16.0750   -4.1230 C.ar  258  PHE258     -0.0003
     11  CZ        61.5530  -16.5120   -4.9500 C.ar  258  PHE258     -0.0000
     12  N         67.2780  -16.0170    1.7490 N.3   261  LEU261     -0.1231
     13  CA        67.8680  -14.9240    0.9820 C.3   261  LEU261      0.1693
     14  C         67.5770  -13.5720    1.6230 C.2   261  LEU261      0.2591
     15  O         68.4390  -12.6940    1.6500 O.2   261  LEU261     -0.2718
     16  CB        67.3580  -14.9420   -0.4610 C.3   261  LEU261      0.0284
     17  CG        67.9950  -15.9830   -1.3840 C.3   261  LEU261      0.0019
     18  CD1       67.2640  -16.0420   -2.7140 C.3   261  LEU261      0.0001
     19  CD2       69.4690  -15.6760   -1.5960 C.3   261  LEU261      0.0001
     20  N         66.3600  -13.4100    2.1350 N.am  262  ILE262     -0.1980
     21  CA        65.9750  -12.1890    2.8350 C.3   262  ILE262      0.1595
     22  C         66.8490  -11.9890    4.0710 C.2   262  ILE262      0.2287
     23  O         67.2640  -10.8710    4.3780 O.2   262  ILE262     -0.2864
     24  CB        64.4850  -12.2170    3.2400 C.3   262  ILE262      0.0276
     25  CG1       63.5970  -12.1270    1.9980 C.3   262  ILE262      0.0022
     26  CG2       64.1570  -11.0780    4.1940 C.3   262  ILE262      0.0022
     27  CD1       62.1160  -12.1910    2.3000 C.3   262  ILE262      0.0001
     28  N         70.0720  -10.8030    2.7700 N.3   265  ILE265     -0.1245
     29  CA        69.9300   -9.4130    2.3540 C.3   265  ILE265      0.1561
     30  C         69.9740   -8.4820    3.5640 C.2   265  ILE265      0.2260
     31  O         70.6520   -7.4540    3.5390 O.2   265  ILE265     -0.2867
     32  CB        68.6180   -9.1900    1.5710 C.3   265  ILE265      0.0252
     33  CG1       68.6800   -9.8980    0.2160 C.3   265  ILE265      0.0019
     34  CG2       68.3560   -7.7070    1.3660 C.3   265  ILE265      0.0019
     35  CD1       67.4110   -9.7720   -0.5990 C.3   265  ILE265      0.0001
     36  N         65.3990   -5.1770    5.1040 N.3   283  LEU283     -0.1245
     37  CA        64.5160   -5.2070    3.9450 C.3   283  LEU283      0.1561
     38  C         63.1060   -4.7630    4.3240 C.2   283  LEU283      0.2260
     39  O         62.3940   -4.1660    3.5160 O.2   283  LEU283     -0.2867
     40  CB        64.4830   -6.6100    3.3340 C.3   283  LEU283      0.0270
     41  CG        63.6500   -6.7980    2.0640 C.3   283  LEU283      0.0019
     42  CD1       64.1480   -5.8810    0.9590 C.3   283  LEU283      0.0001
     43  CD2       63.6780   -8.2510    1.6150 C.3   283  LEU283      0.0001
     44  N         60.8320   -1.6810    2.5020 N.3   287  LEU287     -0.1245
     45  CA        59.5170   -1.9790    1.9450 C.3   287  LEU287      0.1561
     46  C         58.4160   -1.2200    2.6780 C.2   287  LEU287      0.2260
     47  O         57.4760   -0.7230    2.0590 O.2   287  LEU287     -0.2867
     48  CB        59.2420   -3.4830    1.9980 C.3   287  LEU287      0.0270
     49  CG        60.0970   -4.3600    1.0800 C.3   287  LEU287      0.0019
     50  CD1       59.8190   -5.8340    1.3320 C.3   287  LEU287      0.0001
     51  CD2       59.8480   -4.0060   -0.3800 C.3   287  LEU287      0.0001
     52  N         56.3360   -6.8290    0.3380 N.3   314  LEU314     -0.1245
     53  CA        56.9760   -8.1360    0.2350 C.3   314  LEU314      0.1561
     54  C         56.1980   -9.0520   -0.7040 C.2   314  LEU314      0.2260
     55  O         56.7790   -9.8800   -1.4050 O.2   314  LEU314     -0.2867
     56  CB        57.1030   -8.7810    1.6160 C.3   314  LEU314      0.0270
     57  CG        57.9260  -10.0680    1.6970 C.3   314  LEU314      0.0019
     58  CD1       59.3630   -9.8110    1.2680 C.3   314  LEU314      0.0001
     59  CD2       57.8770  -10.6460    3.1020 C.3   314  LEU314      0.0001
     60  N         57.2060   -7.7180   -4.3550 N.3   317  VAL317     -0.1231
     61  CA        58.5780   -7.9670   -4.7890 C.3   317  VAL317      0.1692
     62  C         58.9380   -9.4510   -4.7780 C.2   317  VAL317      0.2591
     63  O         59.9380   -9.8580   -5.3670 O.2   317  VAL317     -0.2718
     64  CB        59.5900   -7.2060   -3.9110 C.3   317  VAL317      0.0266
     65  CG1       59.2950   -5.7150   -3.9380 C.3   317  VAL317      0.0020
     66  CG2       59.5630   -7.7350   -2.4840 C.3   317  VAL317      0.0020
     67  N         58.1230  -10.2550   -4.1030 N.am  318  ALA318     -0.1980
     68  CA        58.3440  -11.6960   -4.0490 C.3   318  ALA318      0.1597
     69  C         57.0670  -12.4400   -4.4220 C.2   318  ALA318      0.2287
     70  O         56.7630  -12.6140   -5.6010 O.2   318  ALA318     -0.2864
     71  CB        58.8230  -12.1110   -2.6670 C.3   318  ALA318      0.0319
     72  N         55.9410  -10.3990  -10.0640 N.3   357  LEU357     -0.1245
     73  CA        56.7380  -10.5110  -11.2820 C.3   357  LEU357      0.1561
     74  C         57.0410  -11.9580  -11.6590 C.2   357  LEU357      0.2260
     75  O         57.1240  -12.2920  -12.8400 O.2   357  LEU357     -0.2867
     76  CB        58.0470   -9.7350  -11.1310 C.3   357  LEU357      0.0270
     77  CG        57.9070   -8.2250  -10.9330 C.3   357  LEU357      0.0019
     78  CD1       59.2750   -7.5760  -10.8050 C.3   357  LEU357      0.0001
     79  CD2       57.1190   -7.6060  -12.0780 C.3   357  LEU357      0.0001
     80  N         54.6640  -13.9990  -13.9240 N.3   360  ILE360     -0.1245
     81  CA        54.7390  -13.8050  -15.3680 C.3   360  ILE360      0.1561
     82  C         55.3780  -15.0140  -16.0400 C.2   360  ILE360      0.2260
     83  O         54.8690  -15.5240  -17.0400 O.2   360  ILE360     -0.2867
     84  CB        55.5450  -12.5460  -15.7350 C.3   360  ILE360      0.0252
     85  CG1       54.9450  -11.3100  -15.0630 C.3   360  ILE360      0.0019
     86  CG2       55.5930  -12.3660  -17.2460 C.3   360  ILE360      0.0019
     87  CD1       55.7020  -10.0320  -15.3520 C.3   360  ILE360      0.0001
     88  N         54.4330  -12.1870  -22.7100 N.3   379  ALA379     -0.1231
     89  CA        55.6250  -11.5280  -22.1910 C.3   379  ALA379      0.1694
     90  C         55.5290  -10.0130  -22.3400 C.2   379  ALA379      0.2591
     91  O         56.0320   -9.2650  -21.5020 O.2   379  ALA379     -0.2718
     92  CB        56.8690  -12.0510  -22.8960 C.3   379  ALA379      0.0304
     93  N         54.8760   -9.5660  -23.4070 N.am  380  ARG380     -0.1980
     94  CA        54.7460   -8.1390  -23.6810 C.3   380  ARG380      0.1597
     95  C         53.8080   -7.4560  -22.6900 C.2   380  ARG380      0.2287
     96  O         54.0670   -6.3360  -22.2500 O.2   380  ARG380     -0.2864
     97  CB        54.2420   -7.9100  -25.1080 C.3   380  ARG380      0.0334
     98  CG        54.3710   -6.4720  -25.5850 C.3   380  ARG380      0.0492
     99  CD        53.1500   -6.0100  -26.3650 C.3   380  ARG380      0.2205
    100  NE        52.8380   -6.8820  -27.4920 N.pl3 380  ARG380     -0.0865
    101  CZ        51.8130   -7.7290  -27.5210 C.cat 380  ARG380      0.5346
    102  NH1       50.9940   -7.8220  -26.4820 N.pl3 380  ARG380      0.1354
    103  NH2       51.6070   -8.4820  -28.5930 N.pl3 380  ARG380      0.1354
    104  N         52.9990   -8.7070  -19.7540 N.3   382  GLY382     -0.1210
    105  CA        53.2780   -9.2490  -18.4350 C.3   382  GLY382      0.1956
    106  C         53.2760   -8.2320  -17.3080 C.2   382  GLY382      0.2611
    107  O         52.5620   -8.3980  -16.3190 O.2   382  GLY382     -0.2717
    108  N         54.0720   -7.1770  -17.4570 N.am  383  VAL383     -0.1979
    109  CA        54.2030   -6.1610  -16.4160 C.3   383  VAL383      0.1595
    110  C         52.8860   -5.4310  -16.1520 C.2   383  VAL383      0.2287
    111  O         52.4870   -5.2570  -15.0000 O.2   383  VAL383     -0.2864
    112  CB        55.2920   -5.1310  -16.7750 C.3   383  VAL383      0.0276
    113  CG1       55.3090   -3.9940  -15.7650 C.3   383  VAL383      0.0022
    114  CG2       56.6540   -5.8060  -16.8440 C.3   383  VAL383      0.0022
@<TRIPOS>BOND
     1   103   101    1
     2   101   100    2
     3   101   102    1
     4   100    99    1
     5    99    98    1
     6    98    97    1
     7    97    94    1
     8    94    93    1
     9    94    95    1
    10    93    90   am
    11    92    89    1
    12    88    89    1
    13    95    96    2
    14    90    89    1
    15    90    91    2
    16   104   105    1
    17   105   106    1
    18   108   106   am
    19   108   109    1
    20   106   107    2
    21    86    84    1
    22    83    82    2
    23   114   112    1
    24   112   109    1
    25   112   113    1
    26   109   110    1
    27   110   111    2
    28    82    81    1
    29    84    81    1
    30    84    85    1
    31    81    80    1
    32    87    85    1
    33    75    74    2
    34    79    77    1
    35    74    73    1
    36    73    76    1
    37    73    72    1
    38    76    77    1
    39    77    78    1
    40    70    69    2
    41    63    62    2
    42    11     9   ar
    43    11    10   ar
    44    61    62    1
    45    61    60    1
    46    61    64    1
    47    62    67   am
    48    69    68    1
    49     9     7   ar
    50    10     8   ar
    51    67    68    1
    52    68    71    1
    53    65    64    1
    54    64    66    1
    55     7     6   ar
    56     8     6   ar
    57    18    17    1
    58     6     5    1
    59    19    17    1
    60    55    54    2
    61    17    16    1
    62    54    53    1
    63     5     2    1
    64    35    33    1
    65    16    13    1
    66    51    49    1
    67     1     2    1
    68     2     3    1
    69    33    32    1
    70    53    52    1
    71    53    56    1
    72    42    41    1
    73    13    14    1
    74    13    12    1
    75    49    50    1
    76    49    48    1
    77     3     4    2
    78    58    57    1
    79    34    32    1
    80    32    29    1
    81    43    41    1
    82    56    57    1
    83    14    15    2
    84    14    20   am
    85    57    59    1
    86    45    48    1
    87    45    44    1
    88    45    46    1
    89    25    27    1
    90    25    24    1
    91    47    46    2
    92    41    40    1
    93    20    21    1
    94    29    28    1
    95    29    30    1
    96    21    24    1
    97    21    22    1
    98    24    26    1
    99    40    37    1
   100    39    38    2
   101    31    30    2
   102    37    38    1
   103    37    36    1
   104    22    23    2
