@<TRIPOS>MOLECULE
tmp/4pdaA00.pdb
 143 134 0 0 0
SMALL
GASTEIGER

@<TRIPOS>ATOM
      1  N         44.0370  -21.9840   -9.7110 N.3   152  GLY152     -0.1210
      2  CA        45.1530  -21.0930   -9.9770 C.3   152  GLY152      0.1956
      3  C         45.1770  -20.4770  -11.3630 C.2   152  GLY152      0.2612
      4  O         44.3440  -20.7870  -12.2130 O.2   152  GLY152     -0.2717
      5  N         46.1580  -19.6060  -11.5860 N.am  153  GLN153     -0.1965
      6  CA        46.2670  -18.8370  -12.8230 C.3   153  GLN153      0.1733
      7  C         46.5530  -19.6950  -14.0530 C.2   153  GLN153      0.2617
      8  O         46.2980  -19.2730  -15.1810 O.2   153  GLN153     -0.2715
      9  CB        47.3600  -17.7770  -12.6770 C.3   153  GLN153      0.0408
     10  CG        48.7080  -18.3340  -12.2520 C.3   153  GLN153      0.0908
     11  CD        49.7370  -17.2480  -12.0120 C.2   153  GLN153      0.2608
     12  OE1       49.5210  -16.0860  -12.3550 O.2   153  GLN153     -0.2717
     13  NE2       50.8640  -17.6210  -11.4150 N.am  153  GLN153     -0.0878
     14  N         47.0870  -20.8920  -13.8400 N.am  154  THR154     -0.1937
     15  CA        47.4280  -21.7740  -14.9500 C.3   154  THR154      0.2028
     16  C         46.3520  -22.8300  -15.1850 C.2   154  THR154      0.2642
     17  O         46.2490  -23.3880  -16.2770 O.2   154  THR154     -0.2714
     18  CB        48.7800  -22.4740  -14.7190 C.3   154  THR154      0.1808
     19  OG1       48.7610  -23.1490  -13.4560 O.3   154  THR154     -0.2208
     20  CG2       49.9100  -21.4570  -14.7240 C.3   154  THR154      0.0379
     21  N         45.5480  -23.0960  -14.1610 N.am  155  GLU155     -0.1976
     22  CA        44.4920  -24.0980  -14.2590 C.3   155  GLU155      0.1602
     23  C         43.1690  -23.4890  -14.7180 C.2   155  GLU155      0.2287
     24  O         42.3390  -24.1710  -15.3160 O.2   155  GLU155     -0.2864
     25  CB        44.2990  -24.8090  -12.9160 C.3   155  GLU155      0.0415
     26  CG        45.3240  -25.8990  -12.6280 C.3   155  GLU155      0.1163
     27  CD        46.7220  -25.3520  -12.4110 C.2   155  GLU155      0.3649
     28  OE1       46.8720  -24.3920  -11.6260 O.co2 155  GLU155     -0.2457
     29  OE2       47.6700  -25.8800  -13.0290 O.co2 155  GLU155     -0.2457
     30  N         44.4630  -19.5090   -5.3450 N.3   184  ALA184     -0.1245
     31  CA        43.9680  -20.8460   -5.6500 C.3   184  ALA184      0.1562
     32  C         43.4080  -21.5090   -4.3940 C.2   184  ALA184      0.2260
     33  O         43.7800  -21.1510   -3.2770 O.2   184  ALA184     -0.2867
     34  CB        45.0710  -21.6960   -6.2570 C.3   184  ALA184      0.0290
     35  N         46.2380  -23.1220   -1.9470 N.3   187  VAL187     -0.1245
     36  CA        47.0170  -22.1910   -1.1380 C.3   187  VAL187      0.1561
     37  C         46.1270  -21.4040   -0.1770 C.2   187  VAL187      0.2260
     38  O         46.5920  -20.9350    0.8620 O.2   187  VAL187     -0.2867
     39  CB        47.8190  -21.2070   -2.0180 C.3   187  VAL187      0.0252
     40  CG1       48.9090  -21.9450   -2.7820 C.3   187  VAL187      0.0019
     41  CG2       46.8990  -20.4630   -2.9750 C.3   187  VAL187      0.0019
     42  N         46.9630  -20.7330    3.6790 N.3   191  TYR191     -0.1241
     43  CA        46.9690  -19.4510    4.3750 C.3   191  TYR191      0.1605
     44  C         46.0270  -19.4890    5.5730 C.2   191  TYR191      0.2264
     45  O         46.2990  -18.8830    6.6090 O.2   191  TYR191     -0.2867
     46  CB        46.5760  -18.3200    3.4230 C.3   191  TYR191      0.0534
     47  CG        47.4610  -18.2230    2.2010 C.ar  191  TYR191     -0.0201
     48  CD1       48.8120  -18.5370    2.2730 C.ar  191  TYR191     -0.0009
     49  CD2       46.9440  -17.8290    0.9730 C.ar  191  TYR191     -0.0009
     50  CE1       49.6240  -18.4570    1.1600 C.ar  191  TYR191      0.0417
     51  CE2       47.7490  -17.7470   -0.1470 C.ar  191  TYR191      0.0417
     52  CZ        49.0880  -18.0620   -0.0470 C.ar  191  TYR191      0.1957
     53  OH        49.8970  -17.9820   -1.1560 O.3   191  TYR191     -0.2866
     54  N         53.4170  -29.0910   -6.3850 N.3   247  LEU247     -0.1245
     55  CA        53.2220  -27.7240   -5.9210 C.3   247  LEU247      0.1561
     56  C         53.7650  -27.5400   -4.5070 C.2   247  LEU247      0.2260
     57  O         54.4260  -26.5440   -4.2120 O.2   247  LEU247     -0.2867
     58  CB        51.7390  -27.3500   -5.9670 C.3   247  LEU247      0.0270
     59  CG        51.3630  -25.9650   -5.4340 C.3   247  LEU247      0.0019
     60  CD1       52.0360  -24.8700   -6.2480 C.3   247  LEU247      0.0001
     61  CD2       49.8520  -25.7840   -5.4280 C.3   247  LEU247      0.0001
     62  N         56.6730  -24.8870   -3.4020 N.3   251  VAL251     -0.1245
     63  CA        56.4300  -23.8500   -2.4030 C.3   251  VAL251      0.1561
     64  C         57.4260  -23.9520   -1.2510 C.2   251  VAL251      0.2260
     65  O         58.0020  -22.9500   -0.8290 O.2   251  VAL251     -0.2867
     66  CB        54.9900  -23.9280   -1.8500 C.3   251  VAL251      0.0252
     67  CG1       54.8230  -23.0080   -0.6490 C.3   251  VAL251      0.0019
     68  CG2       53.9860  -23.5800   -2.9390 C.3   251  VAL251      0.0019
     69  N         60.8810  -22.8960   -2.2660 N.3   254  MET254     -0.1245
     70  CA        60.8750  -21.4520   -2.4590 C.3   254  MET254      0.1570
     71  C         60.9720  -20.7290   -1.1210 C.2   254  MET254      0.2261
     72  O         61.7010  -19.7480   -0.9870 O.2   254  MET254     -0.2867
     73  CB        59.6140  -21.0180   -3.2160 C.3   254  MET254      0.0387
     74  CG        59.4350  -19.5080   -3.3470 C.3   254  MET254      0.0595
     75  SD        58.5100  -18.7670   -1.9830 S.3   254  MET254     -0.1393
     76  CE        56.9500  -19.6360   -2.1180 C.3   254  MET254      0.0692
     77  N         56.3290  -12.8800   -3.4090 N.3   319  ASN319     -0.1225
     78  CA        55.0110  -13.4710   -3.6100 C.3   319  ASN319      0.1785
     79  C         54.1910  -13.3950   -2.3270 C.2   319  ASN319      0.2597
     80  O         54.7210  -13.0750   -1.2620 O.2   319  ASN319     -0.2718
     81  CB        55.1240  -14.9200   -4.0920 C.3   319  ASN319      0.1169
     82  CG        55.9270  -15.7900   -3.1490 C.2   319  ASN319      0.2627
     83  OD1       55.4100  -16.2730   -2.1430 O.2   319  ASN319     -0.2716
     84  ND2       57.1980  -16.0020   -3.4740 N.am  319  ASN319     -0.0877
     85  N         52.9000  -13.6920   -2.4310 N.am  320  GLU320     -0.1965
     86  CA        51.9890  -13.5370   -1.3030 C.3   320  GLU320      0.1733
     87  C         52.2090  -14.5980   -0.2290 C.2   320  GLU320      0.2616
     88  O         51.8580  -14.3920    0.9330 O.2   320  GLU320     -0.2715
     89  CB        50.5340  -13.5730   -1.7810 C.3   320  GLU320      0.0429
     90  CG        49.9760  -14.9630   -2.0490 C.3   320  GLU320      0.1163
     91  CD        50.6130  -15.6370   -3.2490 C.2   320  GLU320      0.3649
     92  OE1       51.2060  -14.9270   -4.0890 O.co2 320  GLU320     -0.2457
     93  OE2       50.5220  -16.8790   -3.3520 O.co2 320  GLU320     -0.2457
     94  N         52.7920  -15.7290   -0.6160 N.am  321  PHE321     -0.1974
     95  CA        53.0530  -16.8060    0.3310 C.3   321  PHE321      0.1639
     96  C         54.1280  -16.3840    1.3280 C.2   321  PHE321      0.2290
     97  O         54.0250  -16.6620    2.5230 O.2   321  PHE321     -0.2864
     98  CB        53.4770  -18.0820   -0.4000 C.3   321  PHE321      0.0560
     99  CG        52.9370  -19.3400    0.2160 C.ar  321  PHE321     -0.0200
    100  CD1       52.1210  -20.1890   -0.5140 C.ar  321  PHE321     -0.0042
    101  CD2       53.2350  -19.6690    1.5280 C.ar  321  PHE321     -0.0042
    102  CE1       51.6190  -21.3460    0.0500 C.ar  321  PHE321     -0.0003
    103  CE2       52.7350  -20.8250    2.0980 C.ar  321  PHE321     -0.0003
    104  CZ        51.9260  -21.6650    1.3580 C.ar  321  PHE321     -0.0000
    105  N         47.9550  -13.5110   -6.6640 N.3   354  PHE354     -0.1241
    106  CA        49.2020  -14.0130   -7.2360 C.3   354  PHE354      0.1605
    107  C         49.9490  -12.9190   -7.9950 C.2   354  PHE354      0.2264
    108  O         50.8740  -13.2030   -8.7560 O.2   354  PHE354     -0.2867
    109  CB        48.9340  -15.1950   -8.1730 C.3   354  PHE354      0.0534
    110  CG        48.5760  -16.4730   -7.4640 C.ar  354  PHE354     -0.0203
    111  CD1       48.6580  -16.5700   -6.0850 C.ar  354  PHE354     -0.0042
    112  CD2       48.1690  -17.5840   -8.1850 C.ar  354  PHE354     -0.0042
    113  CE1       48.3310  -17.7490   -5.4390 C.ar  354  PHE354     -0.0003
    114  CE2       47.8410  -18.7640   -7.5450 C.ar  354  PHE354     -0.0003
    115  CZ        47.9220  -18.8470   -6.1700 C.ar  354  PHE354     -0.0000
    116  N         52.4990  -10.8110   -8.8900 N.3   356  ASN356     -0.1240
    117  CA        53.9200  -10.5280   -8.7210 C.3   356  ASN356      0.1653
    118  C         54.6750  -10.8030  -10.0180 C.2   356  ASN356      0.2266
    119  O         54.1180  -11.3680  -10.9590 O.2   356  ASN356     -0.2867
    120  CB        54.5130  -11.3460   -7.5700 C.3   356  ASN356      0.1155
    121  CG        54.4110  -12.8420   -7.7990 C.2   356  ASN356      0.2627
    122  OD1       55.2410  -13.4330   -8.4890 O.2   356  ASN356     -0.2716
    123  ND2       53.3970  -13.4640   -7.2090 N.am  356  ASN356     -0.0877
    124  N         57.2100  -12.8120  -10.6560 N.3   358  SER358     -0.1202
    125  CA        57.5420  -14.2120  -10.9040 C.3   358  SER358      0.2020
    126  C         56.3750  -14.9760  -11.5160 C.2   358  SER358      0.2619
    127  O         56.5700  -16.0090  -12.1580 O.2   358  SER358     -0.2717
    128  CB        57.9920  -14.8940   -9.6120 C.3   358  SER358      0.2103
    129  OG        59.3030  -14.4900   -9.2600 O.3   358  SER358     -0.2182
    130  N         55.1640  -14.4650  -11.3220 N.am  359  SER359     -0.1951
    131  CA        53.9740  -15.1050  -11.8690 C.3   359  SER359      0.1924
    132  C         53.9030  -14.9480  -13.3870 C.2   359  SER359      0.2314
    133  O         53.1720  -15.6770  -14.0560 O.2   359  SER359     -0.2863
    134  CB        52.7120  -14.5370  -11.2210 C.3   359  SER359      0.2116
    135  OG        52.6170  -14.9200   -9.8580 O.3   359  SER359     -0.2180
    136  N         55.5170  -17.9510  -14.8550 N.3   362  ILE362     -0.1245
    137  CA        54.5910  -19.0610  -14.6720 C.3   362  ILE362      0.1561
    138  C         53.4720  -19.0020  -15.7100 C.2   362  ILE362      0.2260
    139  O         53.0500  -20.0310  -16.2400 O.2   362  ILE362     -0.2867
    140  CB        53.9950  -19.0620  -13.2490 C.3   362  ILE362      0.0252
    141  CG1       55.1100  -19.2370  -12.2150 C.3   362  ILE362      0.0019
    142  CG2       52.9550  -20.1600  -13.0960 C.3   362  ILE362      0.0019
    143  CD1       54.6200  -19.3330  -10.7890 C.3   362  ILE362      0.0001
@<TRIPOS>BOND
     1    17    16    2
     2   139   138    2
     3   138   137    1
     4    24    23    2
     5    16    15    1
     6    16    21   am
     7     8     7    2
     8    15    18    1
     9    15    14    1
    10   136   137    1
    11    20    18    1
    12    18    19    1
    13    23    22    1
    14   137   140    1
    15    22    21    1
    16    22    25    1
    17   133   132    2
    18     7    14   am
    19     7     6    1
    20   132   131    1
    21   140   142    1
    22   140   141    1
    23    29    27   ar
    24    25    26    1
    25     6     9    1
    26     6     5    1
    27     9    10    1
    28    26    27    1
    29    27    28   ar
    30    12    11    2
    31    10    11    1
    32   141   143    1
    33     4     3    2
    34   127   126    2
    35    11    13   am
    36   131   130    1
    37   131   134    1
    38     5     3   am
    39   126   130   am
    40   126   125    1
    41     3     2    1
    42   134   135    1
    43   119   118    2
    44   125   124    1
    45   125   128    1
    46   118   117    1
    47     2     1    1
    48   128   129    1
    49   116   117    1
    50   108   107    2
    51   117   120    1
    52   122   121    2
    53   112   114   ar
    54   112   110   ar
    55   109   110    1
    56   109   106    1
    57   107   106    1
    58   121   120    1
    59   121   123   am
    60   114   115   ar
    61   110   111   ar
    62   106   105    1
    63    54    55    1
    64    34    31    1
    65    60    59    1
    66   115   113   ar
    67   111   113   ar
    68    58    55    1
    69    58    59    1
    70    55    56    1
    71    31    30    1
    72    31    32    1
    73    59    61    1
    74    56    57    2
    75    32    33    2
    76    81    78    1
    77    81    82    1
    78    92    91   ar
    79    78    77    1
    80    78    79    1
    81    84    82   am
    82    62    63    1
    83    93    91   ar
    84    74    73    1
    85    74    75    1
    86    91    90    1
    87    73    70    1
    88    82    83    2
    89    41    39    1
    90    68    66    1
    91    40    39    1
    92    70    69    1
    93    70    71    1
    94    85    79   am
    95    85    86    1
    96    63    66    1
    97    63    64    1
    98    79    80    2
    99    76    75    1
   100    90    89    1
   101    39    36    1
   102    35    36    1
   103    66    67    1
   104    89    86    1
   105    86    87    1
   106    64    65    2
   107    53    52    1
   108    36    37    1
   109    71    72    2
   110    94    87   am
   111    94    95    1
   112   100   102   ar
   113   100    99   ar
   114    98    99    1
   115    98    95    1
   116    87    88    2
   117    37    38    2
   118    51    52   ar
   119    51    49   ar
   120    52    50   ar
   121   102   104   ar
   122    99   101   ar
   123    95    96    1
   124    49    47   ar
   125    50    48   ar
   126    96    97    2
   127   104   103   ar
   128   101   103   ar
   129    47    48   ar
   130    47    46    1
   131    46    43    1
   132    42    43    1
   133    43    44    1
   134    44    45    2
