@<TRIPOS>MOLECULE
tmp/4pddA02.pdb
 85 80 0 0 0
SMALL
GASTEIGER

@<TRIPOS>ATOM
      1  N         12.5620   23.6560   30.1820 N.3   101  GLN101     -0.1245
      2  CA        11.4880   23.0780   30.9890 C.3   101  GLN101      0.1566
      3  C         11.2470   23.9200   32.2290 C.2   101  GLN101      0.2260
      4  O         10.1040   24.0930   32.6390 O.2   101  GLN101     -0.2867
      5  CB        11.8020   21.6350   31.4050 C.3   101  GLN101      0.0367
      6  CG        11.8780   20.6510   30.2760 C.3   101  GLN101      0.0905
      7  CD        12.5480   19.3200   30.7100 C.2   101  GLN101      0.2608
      8  OE1       12.3840   18.8700   31.8490 O.2   101  GLN101     -0.2717
      9  NE2       13.3160   18.7090   29.8040 N.am  101  GLN101     -0.0878
     10  N          9.1100   26.9290   31.4230 N.3   104  LEU104     -0.1231
     11  CA         7.6840   26.5730   31.3660 C.3   104  LEU104      0.1693
     12  C          7.0550   26.5610   32.7710 C.2   104  LEU104      0.2591
     13  O          5.9370   27.0540   32.9640 O.2   104  LEU104     -0.2718
     14  CB         7.4900   25.2060   30.6820 C.3   104  LEU104      0.0284
     15  CG         7.9040   25.1270   29.2050 C.3   104  LEU104      0.0019
     16  CD1        7.7200   23.7220   28.6450 C.3   104  LEU104      0.0001
     17  CD2        7.1550   26.1560   28.3670 C.3   104  LEU104      0.0001
     18  N          7.7650   26.0220   33.7520 N.am  105  LYS105     -0.1980
     19  CA         7.2460   25.9720   35.1140 C.3   105  LYS105      0.1596
     20  C          7.1300   27.3800   35.6930 C.2   105  LYS105      0.2287
     21  O          6.1880   27.6820   36.4370 O.2   105  LYS105     -0.2864
     22  CB         8.1400   25.0840   35.9810 C.3   105  LYS105      0.0298
     23  CG         8.1410   23.6520   35.4850 C.3   105  LYS105      0.0038
     24  CD         9.1190   22.7700   36.2040 C.3   105  LYS105      0.0206
     25  CE         8.9970   21.3370   35.6890 C.3   105  LYS105      0.1093
     26  NZ         7.5690   20.8580   35.6100 N.3   105  LYS105     -0.1314
     27  N          4.0360   28.7260   34.3440 N.3   108  GLN108     -0.1245
     28  CA         2.8620   28.1070   34.9690 C.3   108  GLN108      0.1566
     29  C          2.5430   28.7350   36.3410 C.2   108  GLN108      0.2260
     30  O          1.3790   28.8960   36.6990 O.2   108  GLN108     -0.2867
     31  CB         3.0650   26.5910   35.0790 C.3   108  GLN108      0.0367
     32  CG         3.0780   25.9300   33.7060 C.3   108  GLN108      0.0905
     33  CD         3.7940   24.5750   33.6630 C.2   108  GLN108      0.2608
     34  OE1        4.2050   24.1020   32.5970 O.2   108  GLN108     -0.2717
     35  NE2        3.9480   23.9600   34.8160 N.am  108  GLN108     -0.0878
     36  N         -0.0900   28.5990   31.4820 N.3   113  ILE113     -0.1231
     37  CA         0.2830   27.1860   31.3800 C.3   113  ILE113      0.1692
     38  C          0.9990   26.8830   30.0650 C.2   113  ILE113      0.2593
     39  O          0.4060   26.4680   29.0960 O.2   113  ILE113     -0.2718
     40  CB        -0.8950   26.2450   31.5900 C.3   113  ILE113      0.0266
     41  CG1       -1.7630   26.7020   32.7820 C.3   113  ILE113      0.0019
     42  CG2       -0.3620   24.7940   31.7520 C.3   113  ILE113      0.0020
     43  CD1       -1.0100   26.8700   34.1230 C.3   113  ILE113      0.0001
     44  N          2.3120   27.1010   30.0500 N.am  114  GLY114     -0.1942
     45  CA         3.1290   26.7780   28.8890 C.3   114  GLY114      0.2014
     46  C          3.2120   25.2750   28.7430 C.2   114  GLY114      0.2638
     47  O          3.7000   24.5940   29.6330 O.2   114  GLY114     -0.2714
     48  N          2.7620   24.7670   27.6110 N.am  115  LEU115     -0.1977
     49  CA         2.6560   23.3240   27.3850 C.3   115  LEU115      0.1596
     50  C          3.9520   22.8210   26.7510 C.2   115  LEU115      0.2287
     51  O          4.5050   21.8110   27.1800 O.2   115  LEU115     -0.2864
     52  CB         1.4500   23.0040   26.5000 C.3   115  LEU115      0.0297
     53  CG         0.0970   23.4220   27.0740 C.3   115  LEU115      0.0022
     54  CD1       -1.0320   23.1790   26.0700 C.3   115  LEU115      0.0001
     55  CD2       -0.2050   22.6930   28.4040 C.3   115  LEU115      0.0001
     56  N         -6.9220   24.6780   32.1610 N.3   220  TRP220     -0.1241
     57  CA        -6.0570   23.6170   32.6480 C.3   220  TRP220      0.1605
     58  C         -6.6100   22.9930   33.9220 C.2   220  TRP220      0.2264
     59  O         -6.6150   21.7740   34.0720 O.2   220  TRP220     -0.2867
     60  CB        -4.6700   24.1910   32.8980 C.3   220  TRP220      0.0550
     61  CG        -3.6660   23.2540   33.4470 C.ar  220  TRP220      0.0003
     62  CD1       -3.2360   23.1880   34.7490 C.ar  220  TRP220      0.0946
     63  CD2       -2.8940   22.2680   32.7260 C.ar  220  TRP220      0.0152
     64  NE1       -2.2630   22.2360   34.8740 N.ar  220  TRP220     -0.2442
     65  CE2       -2.0390   21.6510   33.6560 C.ar  220  TRP220      0.0810
     66  CE3       -2.8560   21.8480   31.3910 C.ar  220  TRP220      0.0012
     67  CZ2       -1.1350   20.6440   33.2980 C.ar  220  TRP220      0.0191
     68  CZ3       -1.9680   20.8540   31.0380 C.ar  220  TRP220      0.0001
     69  CH2       -1.1130   20.2630   31.9850 C.ar  220  TRP220      0.0015
     70  N         -0.2070   18.2430   26.8610 N.3   232  VAL232     -0.1245
     71  CA         1.2540   18.4050   26.8070 C.3   232  VAL232      0.1561
     72  C          1.8330   17.5780   25.6530 C.2   232  VAL232      0.2260
     73  O          2.6290   18.0910   24.8650 O.2   232  VAL232     -0.2867
     74  CB         1.9360   18.0760   28.1500 C.3   232  VAL232      0.0252
     75  CG1        3.4640   17.9060   27.9820 C.3   232  VAL232      0.0019
     76  CG2        1.6490   19.1770   29.1720 C.3   232  VAL232      0.0019
     77  N          3.9390   18.9040   22.3290 N.3   236  GLN236     -0.1245
     78  CA         5.2700   18.4530   21.9270 C.3   236  GLN236      0.1566
     79  C          5.2670   17.9100   20.4940 C.2   236  GLN236      0.2260
     80  O          6.2360   18.0380   19.7620 O.2   236  GLN236     -0.2867
     81  CB         5.8070   17.4360   22.9310 C.3   236  GLN236      0.0367
     82  CG         5.8870   18.0460   24.3060 C.3   236  GLN236      0.0905
     83  CD         6.2600   17.0670   25.3840 C.2   236  GLN236      0.2608
     84  OE1        6.0940   15.8550   25.2330 O.2   236  GLN236     -0.2717
     85  NE2        6.7690   17.5900   26.4970 N.am  236  GLN236     -0.0878
@<TRIPOS>BOND
     1    80    79    2
     2    79    78    1
     3    78    77    1
     4    78    81    1
     5    81    82    1
     6    82    83    1
     7    73    72    2
     8    84    83    2
     9    83    85   am
    10    72    71    1
    11    54    53    1
    12    52    53    1
    13    52    49    1
    14    50    51    2
    15    50    49    1
    16    71    70    1
    17    71    74    1
    18    53    55    1
    19    49    48    1
    20    48    46   am
    21    75    74    1
    22    74    76    1
    23    17    15    1
    24    16    15    1
    25    46    45    1
    26    46    47    2
    27    45    44    1
    28    39    38    2
    29    15    14    1
    30     9     7   am
    31    44    38   am
    32    38    37    1
    33     1     2    1
    34     6     7    1
    35     6     5    1
    36    14    11    1
    37     7     8    2
    38     2     5    1
    39     2     3    1
    40    68    66   ar
    41    68    69   ar
    42    11    10    1
    43    11    12    1
    44    37    36    1
    45    37    40    1
    46    66    63   ar
    47    40    42    1
    48    40    41    1
    49    69    67   ar
    50    56    57    1
    51     3     4    2
    52    34    33    2
    53    57    60    1
    54    57    58    1
    55    63    61   ar
    56    63    65   ar
    57    12    13    2
    58    12    18   am
    59    41    43    1
    60    60    61    1
    61    67    65   ar
    62    61    62   ar
    63    65    64   ar
    64    33    32    1
    65    33    35   am
    66    32    31    1
    67    18    19    1
    68    58    59    2
    69    27    28    1
    70    62    64   ar
    71    28    31    1
    72    28    29    1
    73    19    20    1
    74    19    22    1
    75    23    22    1
    76    23    24    1
    77    26    25    1
    78    25    24    1
    79    20    21    2
    80    29    30    2
