@<TRIPOS>MOLECULE
tmp/4pddC00.pdb
 105 97 0 0 0
SMALL
GASTEIGER

@<TRIPOS>ATOM
      1  N         -5.7860   63.4120   39.1760 N.3     8  THR8       -0.1204
      2  CA        -6.1830   63.6120   40.5650 C.3     8  THR8        0.1979
      3  C         -6.3670   65.0700   41.0170 C.2     8  THR8        0.2459
      4  O         -7.2510   65.3400   41.8620 O.2     8  THR8       -0.2732
      5  CB        -5.2280   62.9320   41.5350 C.3     8  THR8        0.1783
      6  OG1       -3.9000   63.4610   41.3660 O.3     8  THR8       -0.2211
      7  CG2       -5.2260   61.4260   41.2960 C.3     8  THR8        0.0376
      8  N         -5.5390   66.0050   40.5300 N.am    9  PRO9       -0.2728
      9  CA        -5.8480   67.3980   40.8940 C.3     9  PRO9        0.1401
     10  C         -7.1600   67.9080   40.2620 C.2     9  PRO9        0.2269
     11  O         -7.6810   67.2910   39.3230 O.2     9  PRO9       -0.2865
     12  CB        -4.6720   68.1920   40.3270 C.3     9  PRO9        0.0296
     13  CG        -3.6110   67.1730   40.0320 C.3     9  PRO9        0.0237
     14  CD        -4.3330   65.9290   39.6750 C.3     9  PRO9        0.0939
     15  N         -2.0280   69.9680   36.2580 N.3    15  TYR15      -0.1241
     16  CA        -2.4130   68.8030   35.4780 C.3    15  TYR15       0.1605
     17  C         -3.6080   69.1330   34.5750 C.2    15  TYR15       0.2264
     18  O         -3.6980   68.6390   33.4620 O.2    15  TYR15      -0.2867
     19  CB        -2.7680   67.6160   36.3510 C.3    15  TYR15       0.0534
     20  CG        -1.6180   66.8370   36.9580 C.ar   15  TYR15      -0.0201
     21  CD1       -0.3630   67.3980   37.1310 C.ar   15  TYR15      -0.0009
     22  CD2       -1.8070   65.5180   37.3620 C.ar   15  TYR15      -0.0009
     23  CE1        0.6790   66.6740   37.6960 C.ar   15  TYR15       0.0417
     24  CE2       -0.8020   64.7930   37.9320 C.ar   15  TYR15       0.0417
     25  CZ         0.4470   65.3610   38.1020 C.ar   15  TYR15       0.1957
     26  OH         1.4260   64.5990   38.6960 O.3    15  TYR15      -0.2866
     27  N         -4.3770   57.4700   41.0810 N.3    47  GLU47      -0.1245
     28  CA        -3.4610   57.1980   39.9920 C.3    47  GLU47       0.1567
     29  C         -3.1860   55.7160   39.7310 C.2    47  GLU47       0.2260
     30  O         -3.0890   55.3130   38.5660 O.2    47  GLU47      -0.2867
     31  CB        -2.1380   57.9330   40.2070 C.3    47  GLU47       0.0388
     32  CG        -2.2830   59.4470   40.0850 C.3    47  GLU47       0.1160
     33  CD        -0.9860   60.2200   40.1050 C.2    47  GLU47       0.3649
     34  OE1        0.0090   59.7350   40.6990 O.co2  47  GLU47      -0.2457
     35  OE2       -0.9570   61.3540   39.5300 O.co2  47  GLU47      -0.2457
     36  N          1.3820   61.3740   37.8560 N.3    65  SER65      -0.1217
     37  CA         2.7750   61.3380   38.3580 C.3    65  SER65       0.1889
     38  C          3.3580   59.9500   38.1720 C.2    65  SER65       0.2288
     39  O          2.6490   58.9570   37.9170 O.2    65  SER65      -0.2866
     40  CB         2.8640   61.6860   39.8520 C.3    65  SER65       0.2089
     41  OG         2.5990   60.5540   40.7000 O.3    65  SER65      -0.2183
     42  N          4.9540   67.1700   37.5640 N.3   120  ASN120     -0.1240
     43  CA         4.3140   67.4240   38.8490 C.3   120  ASN120      0.1653
     44  C          5.1190   68.4790   39.6080 C.2   120  ASN120      0.2266
     45  O          4.5910   69.5340   39.9560 O.2   120  ASN120     -0.2867
     46  CB         4.1660   66.1130   39.6110 C.3   120  ASN120      0.1155
     47  CG         3.1200   66.1480   40.6860 C.2   120  ASN120      0.2627
     48  OD1        2.2860   67.0700   40.7790 O.2   120  ASN120     -0.2716
     49  ND2        3.1370   65.1220   41.5120 N.am  120  ASN120     -0.0877
     50  N          8.9960   67.8040   45.1140 N.3   123  ARG123     -0.1245
     51  CA         8.1180   67.5290   46.2560 C.3   123  ARG123      0.1563
     52  C          8.6860   68.0620   47.5840 C.2   123  ARG123      0.2260
     53  O          9.9190   68.0490   47.8020 O.2   123  ARG123     -0.2867
     54  CB         7.8560   66.0250   46.3840 C.3   123  ARG123      0.0307
     55  CG         7.3000   65.3790   45.0920 C.3   123  ARG123      0.0489
     56  CD         7.0680   63.8780   45.2250 C.3   123  ARG123      0.2205
     57  NE         5.8870   63.5720   46.0170 N.pl3 123  ARG123     -0.0865
     58  CZ         4.6550   63.4430   45.5280 C.cat 123  ARG123      0.5346
     59  NH1        4.4360   63.6500   44.2420 N.pl3 123  ARG123      0.1354
     60  NH2        3.6620   63.1400   46.3500 N.pl3 123  ARG123      0.1354
     61  N          2.2990   60.0960   55.0170 N.3   144  ARG144     -0.1245
     62  CA         1.7730   59.4220   53.8380 C.3   144  ARG144      0.1563
     63  C          2.7630   59.5400   52.6920 C.2   144  ARG144      0.2260
     64  O          3.3080   60.6100   52.4490 O.2   144  ARG144     -0.2867
     65  CB         0.4160   60.0110   53.4070 C.3   144  ARG144      0.0307
     66  CG        -0.1380   59.4240   52.1340 C.3   144  ARG144      0.0489
     67  CD         0.3570   60.1470   50.8880 C.3   144  ARG144      0.2205
     68  NE        -0.3120   59.7130   49.6610 N.pl3 144  ARG144     -0.0865
     69  CZ        -0.1410   60.3070   48.4790 C.cat 144  ARG144      0.5346
     70  NH1       -0.7680   59.8630   47.4120 N.pl3 144  ARG144      0.1354
     71  NH2        0.6520   61.3710   48.3620 N.pl3 144  ARG144      0.1354
     72  N          3.2090   58.2240   48.3620 N.3   146  MET146     -0.1245
     73  CA         2.6240   57.5560   47.2420 C.3   146  MET146      0.1570
     74  C          2.8890   56.0550   47.2990 C.2   146  MET146      0.2261
     75  O          3.6140   55.5630   48.1600 O.2   146  MET146     -0.2867
     76  CB         3.1050   58.1590   45.9310 C.3   146  MET146      0.0387
     77  CG         2.7300   59.6400   45.7730 C.3   146  MET146      0.0595
     78  SD         3.0280   60.2390   44.1090 S.3   146  MET146     -0.1393
     79  CE         4.8400   60.2950   44.1650 C.3   146  MET146      0.0692
     80  N         -4.0720   59.0140   46.4650 N.3   167  PHE167     -0.1241
     81  CA        -4.2240   60.4470   46.6720 C.3   167  PHE167      0.1605
     82  C         -5.6260   60.8730   47.1080 C.2   167  PHE167      0.2264
     83  O         -5.7710   61.7410   47.9630 O.2   167  PHE167     -0.2867
     84  CB        -3.8210   61.2280   45.4210 C.3   167  PHE167      0.0534
     85  CG        -3.8500   62.7200   45.6230 C.ar  167  PHE167     -0.0203
     86  CD1       -2.7800   63.3550   46.2140 C.ar  167  PHE167     -0.0042
     87  CD2       -4.9740   63.4480   45.2860 C.ar  167  PHE167     -0.0042
     88  CE1       -2.8010   64.7250   46.4470 C.ar  167  PHE167     -0.0003
     89  CE2       -5.0130   64.8150   45.5050 C.ar  167  PHE167     -0.0003
     90  CZ        -3.9340   65.4470   46.0890 C.ar  167  PHE167     -0.0000
     91  N          4.5290   66.7210   48.6690 N.3   184  ASN184     -0.1240
     92  CA         3.9960   66.9910   47.3520 C.3   184  ASN184      0.1653
     93  C          4.5390   68.3170   46.8170 C.2   184  ASN184      0.2266
     94  O          5.0060   69.1590   47.5880 O.2   184  ASN184     -0.2867
     95  CB         2.4540   67.0760   47.4440 C.3   184  ASN184      0.1155
     96  CG         1.7490   65.9160   46.7420 C.2   184  ASN184      0.2627
     97  OD1        1.9220   65.6920   45.5530 O.2   184  ASN184     -0.2716
     98  ND2        0.9270   65.1800   47.4870 N.am  184  ASN184     -0.0877
     99  N          0.3530   70.9210   43.7950 N.3   188  VAL188     -0.1245
    100  CA        -0.6000   70.0310   44.4380 C.3   188  VAL188      0.1561
    101  C         -1.0670   70.5840   45.7830 C.2   188  VAL188      0.2260
    102  O         -2.2620   70.5910   46.0890 O.2   188  VAL188     -0.2867
    103  CB        -0.0430   68.5860   44.5930 C.3   188  VAL188      0.0252
    104  CG1       -0.9960   67.7270   45.4490 C.3   188  VAL188      0.0019
    105  CG2        0.1520   67.9760   43.2520 C.3   188  VAL188      0.0019
@<TRIPOS>BOND
     1    18    17    2
     2    17    16    1
     3    16    15    1
     4    16    19    1
     5    19    20    1
     6    20    21   ar
     7    20    22   ar
     8    21    23   ar
     9    22    24   ar
    10    42    43    1
    11    23    25   ar
    12    36    37    1
    13    39    38    2
    14    24    25   ar
    15    25    26    1
    16    38    37    1
    17    37    40    1
    18    30    29    2
    19    43    44    1
    20    43    46    1
    21     1     2    1
    22    11    10    2
    23    35    33   ar
    24    44    45    2
    25    46    47    1
    26    14    13    1
    27    14     8    1
    28    29    28    1
    29    40    41    1
    30    28    31    1
    31    28    27    1
    32    13    12    1
    33    32    33    1
    34    32    31    1
    35    33    34   ar
    36    10     9    1
    37    12     9    1
    38     8     9    1
    39     8     3   am
    40     2     3    1
    41     2     5    1
    42    47    48    2
    43    47    49   am
    44     3     4    2
    45     7     5    1
    46     6     5    1
    47   105   103    1
    48    99   100    1
    49    78    79    1
    50    78    77    1
    51    59    58    1
    52   100   103    1
    53   100   101    1
    54   103   104    1
    55    55    56    1
    56    55    54    1
    57    50    51    1
    58    56    57    1
    59    87    89   ar
    60    87    85   ar
    61    84    85    1
    62    84    81    1
    63    89    90   ar
    64    58    57    2
    65    58    60    1
    66    97    96    2
    67    85    86   ar
    68    77    76    1
    69   101   102    2
    70    76    73    1
    71    90    88   ar
    72    86    88   ar
    73    51    54    1
    74    51    52    1
    75    80    81    1
    76    81    82    1
    77    96    95    1
    78    96    98   am
    79    93    92    1
    80    93    94    2
    81    82    83    2
    82    73    74    1
    83    73    72    1
    84    74    75    2
    85    92    95    1
    86    92    91    1
    87    70    69    1
    88    52    53    2
    89    71    69    1
    90    69    68    2
    91    68    67    1
    92    67    66    1
    93    66    65    1
    94    64    63    2
    95    63    62    1
    96    65    62    1
    97    62    61    1
