@<TRIPOS>MOLECULE
tmp/4pdhA00.pdb
 101 91 0 0 0
SMALL
GASTEIGER

@<TRIPOS>ATOM
      1  N         -9.0570  -22.7870  -24.9100 N.3     8  SER8       -0.1202
      2  CA        -8.3980  -23.8030  -25.7150 C.3     8  SER8        0.2020
      3  C         -9.0730  -24.1110  -27.0660 C.2     8  SER8        0.2619
      4  O         -8.5330  -24.8990  -27.8570 O.2     8  SER8       -0.2717
      5  CB        -8.2920  -25.0980  -24.8980 C.3     8  SER8        0.2103
      6  OG        -7.2360  -25.0000  -23.9500 O.3     8  SER8       -0.2182
      7  N        -10.2470  -23.5220  -27.3140 N.am    9  THR9       -0.1952
      8  CA       -10.9890  -23.6950  -28.5660 C.3     9  THR9        0.1897
      9  C        -10.9830  -22.3910  -29.3630 C.2     9  THR9        0.2313
     10  O        -10.4300  -21.3840  -28.9300 O.2     9  THR9       -0.2863
     11  CB       -12.4620  -24.1540  -28.3160 C.3     9  THR9        0.1794
     12  OG1      -13.1580  -23.1950  -27.5040 O.3     9  THR9       -0.2208
     13  CG2      -12.4750  -25.4890  -27.6030 C.3     9  THR9        0.0378
     14  N        -17.1490  -21.2240  -26.8100 N.3    15  GLN15      -0.1245
     15  CA       -16.3430  -20.5700  -25.8170 C.3    15  GLN15       0.1566
     16  C        -15.7580  -19.2660  -26.3390 C.2    15  GLN15       0.2260
     17  O        -15.5110  -18.3200  -25.5950 O.2    15  GLN15      -0.2867
     18  CB       -15.2210  -21.5040  -25.3340 C.3    15  GLN15       0.0367
     19  CG       -15.7520  -22.7500  -24.6210 C.3    15  GLN15       0.0905
     20  CD       -14.6620  -23.5640  -23.9540 C.2    15  GLN15       0.2608
     21  OE1      -13.5610  -23.0810  -23.7460 O.2    15  GLN15      -0.2717
     22  NE2      -14.9820  -24.7860  -23.5780 N.am   15  GLN15      -0.0878
     23  N         -6.0580  -25.7780  -20.8780 N.3    47  GLU47      -0.1245
     24  CA        -6.8690  -25.3590  -19.7460 C.3    47  GLU47       0.1567
     25  C         -6.1510  -25.4580  -18.3960 C.2    47  GLU47       0.2260
     26  O         -6.1980  -24.5120  -17.6170 O.2    47  GLU47      -0.2867
     27  CB        -8.1740  -26.1320  -19.7060 C.3    47  GLU47       0.0388
     28  CG        -9.0710  -25.7930  -20.8760 C.3    47  GLU47       0.1160
     29  CD       -10.4600  -26.3740  -20.7740 C.2    47  GLU47       0.3649
     30  OE1      -10.6310  -27.4830  -20.2170 O.co2  47  GLU47      -0.2457
     31  OE2      -11.3950  -25.7070  -21.2820 O.co2  47  GLU47      -0.2457
     32  N        -13.4370  -25.5860  -19.2920 N.3    65  SER65      -0.1217
     33  CA       -14.3120  -26.6800  -18.8750 C.3    65  SER65       0.1889
     34  C        -13.8460  -27.0980  -17.4900 C.2    65  SER65       0.2288
     35  O        -12.7320  -26.7260  -17.0510 O.2    65  SER65      -0.2866
     36  CB       -14.2290  -27.8760  -19.8180 C.3    65  SER65       0.2089
     37  OG       -13.0930  -28.6730  -19.5130 O.3    65  SER65      -0.2183
     38  N        -19.9220  -26.2370  -21.5160 N.3   120  ASN120     -0.1240
     39  CA       -19.2020  -26.8500  -22.6280 C.3   120  ASN120      0.1653
     40  C        -20.1940  -27.7200  -23.3830 C.2   120  ASN120      0.2266
     41  O        -20.3180  -27.6370  -24.6150 O.2   120  ASN120     -0.2867
     42  CB       -18.0300  -27.6640  -22.0670 C.3   120  ASN120      0.1155
     43  CG       -16.9240  -27.9570  -23.0770 C.2   120  ASN120      0.2627
     44  OD1      -16.8010  -27.3430  -24.1530 O.2   120  ASN120     -0.2716
     45  ND2      -16.0950  -28.9290  -22.7190 N.am  120  ASN120     -0.0877
     46  N        -20.9570  -34.4940  -23.4990 N.3   123  ARG123     -0.1245
     47  CA       -19.8080  -35.0100  -24.2460 C.3   123  ARG123      0.1563
     48  C        -20.1840  -36.3260  -24.9310 C.2   123  ARG123      0.2260
     49  O        -20.9560  -37.1050  -24.3720 O.2   123  ARG123     -0.2867
     50  CB       -18.6230  -35.2600  -23.3110 C.3   123  ARG123      0.0307
     51  CG       -18.1810  -34.0120  -22.5110 C.3   123  ARG123      0.0489
     52  CD       -17.0060  -34.2880  -21.5870 C.3   123  ARG123      0.2205
     53  NE       -15.7220  -34.3920  -22.2850 N.pl3 123  ARG123     -0.0865
     54  CZ       -14.9190  -33.3680  -22.5310 C.cat 123  ARG123      0.5346
     55  NH1      -15.2680  -32.1310  -22.2070 N.pl3 123  ARG123      0.1354
     56  NH2      -13.7660  -33.5770  -23.1380 N.pl3 123  ARG123      0.1354
     57  N         -8.0460  -40.5770  -25.7330 N.3   144  ARG144     -0.1245
     58  CA        -7.6770  -39.4060  -24.9790 C.3   144  ARG144      0.1563
     59  C         -8.7890  -38.9960  -24.0090 C.2   144  ARG144      0.2260
     60  O         -9.9860  -39.0540  -24.3590 O.2   144  ARG144     -0.2867
     61  CB        -7.4110  -38.2500  -25.9290 C.3   144  ARG144      0.0307
     62  CG        -7.0170  -36.9550  -25.2230 C.3   144  ARG144      0.0489
     63  CD        -8.2080  -36.0820  -24.8980 C.3   144  ARG144      0.2205
     64  NE        -7.8080  -34.8370  -24.2630 N.pl3 144  ARG144     -0.0865
     65  CZ        -8.6300  -33.8200  -24.0590 C.cat 144  ARG144      0.5346
     66  NH1       -9.8970  -33.9210  -24.4130 N.pl3 144  ARG144      0.1354
     67  NH2       -8.1970  -32.7100  -23.4820 N.pl3 144  ARG144      0.1354
     68  N         -9.5600  -35.8310  -20.7450 N.3   146  MET146     -0.1245
     69  CA        -9.0470  -34.6780  -20.0470 C.3   146  MET146      0.1570
     70  C         -8.3220  -35.1490  -18.7830 C.2   146  MET146      0.2261
     71  O         -8.3490  -36.3250  -18.4400 O.2   146  MET146     -0.2867
     72  CB       -10.1950  -33.7370  -19.6880 C.3   146  MET146      0.0387
     73  CG       -10.9380  -33.1840  -20.9040 C.3   146  MET146      0.0595
     74  SD       -12.0780  -31.8390  -20.4750 S.3   146  MET146     -0.1393
     75  CE       -13.3370  -32.7530  -19.6410 C.3   146  MET146      0.0692
     76  N         -5.6780  -30.2220  -24.1990 N.3   167  PHE167     -0.1241
     77  CA        -6.4550  -30.1540  -25.4250 C.3   167  PHE167      0.1605
     78  C         -5.6880  -29.7970  -26.7010 C.2   167  PHE167      0.2264
     79  O         -5.9750  -30.3490  -27.7880 O.2   167  PHE167     -0.2867
     80  CB        -7.6670  -29.2480  -25.2760 C.3   167  PHE167      0.0534
     81  CG        -8.6090  -29.3520  -26.4340 C.ar  167  PHE167     -0.0203
     82  CD1       -9.2930  -30.5330  -26.6600 C.ar  167  PHE167     -0.0042
     83  CD2       -8.7880  -28.2980  -27.3180 C.ar  167  PHE167     -0.0042
     84  CE1      -10.1670  -30.6700  -27.7340 C.ar  167  PHE167     -0.0003
     85  CE2       -9.6590  -28.4300  -28.3900 C.ar  167  PHE167     -0.0003
     86  CZ       -10.3440  -29.6230  -28.5860 C.ar  167  PHE167     -0.0000
     87  N        -16.0490  -35.3500  -26.5590 N.3   184  ASN184     -0.1240
     88  CA       -16.2500  -33.9130  -26.3970 C.3   184  ASN184      0.1653
     89  C        -17.6550  -33.5430  -26.8730 C.2   184  ASN184      0.2266
     90  O        -18.3030  -34.3340  -27.5500 O.2   184  ASN184     -0.2867
     91  CB       -15.2000  -33.1750  -27.2070 C.3   184  ASN184      0.1155
     92  CG       -14.1860  -32.4240  -26.3570 C.2   184  ASN184      0.2627
     93  OD1      -14.5410  -31.5550  -25.5570 O.2   184  ASN184     -0.2716
     94  ND2      -12.8960  -32.7110  -26.5860 N.am  184  ASN184     -0.0877
     95  N        -17.3490  -28.5750  -29.5790 N.3   188  VAL188     -0.1245
     96  CA       -15.8960  -28.7360  -29.6460 C.3   188  VAL188      0.1561
     97  C        -15.4680  -29.5720  -30.8530 C.2   188  VAL188      0.2260
     98  O        -14.5330  -29.1960  -31.6010 O.2   188  VAL188     -0.2867
     99  CB       -15.3460  -29.3840  -28.4010 C.3   188  VAL188      0.0252
    100  CG1      -13.8540  -29.6530  -28.5900 C.3   188  VAL188      0.0019
    101  CG2      -15.6260  -28.5210  -27.1860 C.3   188  VAL188      0.0019
@<TRIPOS>BOND
     1    98    97    2
     2    97    96    1
     3    96    95    1
     4    96    99    1
     5     9    10    2
     6     9     8    1
     7   100    99    1
     8    86    85   ar
     9    86    84   ar
    10     8    11    1
    11     8     7    1
    12    99   101    1
    13    85    83   ar
    14    11    13    1
    15    11    12    1
    16     4     3    2
    17    79    78    2
    18    84    82   ar
    19    90    89    2
    20    83    81   ar
    21     7     3   am
    22    91    88    1
    23    91    92    1
    24     3     2    1
    25    89    88    1
    26    14    15    1
    27    78    77    1
    28    82    81   ar
    29    94    92   am
    30    87    88    1
    31    81    80    1
    32    92    93    2
    33    16    15    1
    34    16    17    2
    35    61    62    1
    36    61    58    1
    37    15    18    1
    38    57    58    1
    39     2     1    1
    40     2     5    1
    41    77    80    1
    42    77    76    1
    43    18    19    1
    44    62    63    1
    45    58    59    1
    46    48    49    2
    47    48    47    1
    48    63    64    1
    49     5     6    1
    50    19    20    1
    51    41    40    2
    52    66    65    1
    53    60    59    2
    54    64    65    2
    55    47    46    1
    56    47    50    1
    57    44    43    2
    58    65    67    1
    59    20    21    2
    60    20    22   am
    61    40    39    1
    62    50    51    1
    63    56    54    1
    64    43    45   am
    65    43    42    1
    66    39    42    1
    67    39    38    1
    68    54    53    2
    69    54    55    1
    70    51    52    1
    71    53    52    1
    72    31    29   ar
    73    73    74    1
    74    73    72    1
    75    23    24    1
    76    28    29    1
    77    28    27    1
    78    29    30   ar
    79    68    69    1
    80    74    75    1
    81    69    72    1
    82    69    70    1
    83    36    37    1
    84    36    33    1
    85    24    27    1
    86    24    25    1
    87    32    33    1
    88    33    34    1
    89    70    71    2
    90    25    26    2
    91    34    35    2
