@<TRIPOS>MOLECULE
tmp/4pdwA00.pdb
 185 177 0 0 0
SMALL
GASTEIGER

@<TRIPOS>ATOM
      1  N         24.8380  113.5470   70.5340 N.3    87  TRP87      -0.1241
      2  CA        24.2660  114.7880   71.0190 C.3    87  TRP87       0.1605
      3  C         23.8360  114.5140   72.4430 C.2    87  TRP87       0.2264
      4  O         22.8820  113.7710   72.6710 O.2    87  TRP87      -0.2867
      5  CB        23.0550  115.2490   70.1990 C.3    87  TRP87       0.0550
      6  CG        22.3810  116.4520   70.8330 C.ar   87  TRP87       0.0003
      7  CD1       22.9960  117.4740   71.5090 C.ar   87  TRP87       0.0946
      8  CD2       20.9760  116.7440   70.8690 C.ar   87  TRP87       0.0152
      9  NE1       22.0640  118.3750   71.9660 N.ar   87  TRP87      -0.2442
     10  CE2       20.8170  117.9530   71.5880 C.ar   87  TRP87       0.0810
     11  CE3       19.8360  116.1030   70.3650 C.ar   87  TRP87       0.0012
     12  CZ2       19.5660  118.5310   71.8150 C.ar   87  TRP87       0.0191
     13  CZ3       18.5910  116.6800   70.5910 C.ar   87  TRP87       0.0001
     14  CH2       18.4680  117.8820   71.3100 C.ar   87  TRP87       0.0015
     15  N         21.8350  115.3630   74.8810 N.3    89  ILE89      -0.1231
     16  CA        20.6200  116.1650   74.9930 C.3    89  ILE89       0.1692
     17  C         20.6960  117.2370   76.0680 C.2    89  ILE89       0.2592
     18  O         21.0320  116.9590   77.2250 O.2    89  ILE89      -0.2718
     19  CB        19.3790  115.3010   75.3050 C.3    89  ILE89       0.0266
     20  CG1       19.3980  113.9930   74.5090 C.3    89  ILE89       0.0019
     21  CG2       18.1340  116.0810   74.9540 C.3    89  ILE89       0.0020
     22  CD1       19.1730  114.1660   73.0460 C.3    89  ILE89       0.0001
     23  N         20.3720  118.4620   75.6690 N.am   90  ASN90      -0.1960
     24  CA        20.3680  119.6110   76.5640 C.3    90  ASN90       0.1819
     25  C         19.7290  120.7550   75.7730 C.2    90  ASN90       0.2621
     26  O         19.7630  120.7450   74.5400 O.2    90  ASN90      -0.2715
     27  CB        21.7990  119.9650   76.9720 C.3    90  ASN90       0.1195
     28  CG        22.4780  120.8760   75.9790 C.2    90  ASN90       0.2630
     29  OD1       22.2800  122.0910   76.0040 O.2    90  ASN90      -0.2716
     30  ND2       23.2760  120.2970   75.0850 N.am   90  ASN90      -0.0877
     31  N         19.1390  121.7280   76.4630 N.am   91  LEU91      -0.1977
     32  CA        18.5020  122.8440   75.7680 C.3    91  LEU91       0.1596
     33  C         19.1860  124.2000   75.9640 C.2    91  LEU91       0.2287
     34  O         18.6450  125.2330   75.5520 O.2    91  LEU91      -0.2864
     35  CB        17.0290  122.9480   76.1770 C.3    91  LEU91       0.0297
     36  CG        16.1470  121.7670   75.7610 C.3    91  LEU91       0.0022
     37  CD1       14.7290  121.9870   76.2430 C.3    91  LEU91       0.0001
     38  CD2       16.1810  121.6110   74.2560 C.3    91  LEU91       0.0001
     39  N         13.5390  130.1880   78.2580 N.3   101  LEU101     -0.1245
     40  CA        13.3150  129.2260   79.3240 C.3   101  LEU101      0.1561
     41  C         13.7910  129.7670   80.6660 C.2   101  LEU101      0.2260
     42  O         13.1230  129.5850   81.6860 O.2   101  LEU101     -0.2867
     43  CB        14.0480  127.9230   79.0220 C.3   101  LEU101      0.0270
     44  CG        13.4820  127.0890   77.8780 C.3   101  LEU101      0.0019
     45  CD1       14.4690  126.0030   77.5000 C.3   101  LEU101      0.0001
     46  CD2       12.1460  126.4950   78.2990 C.3   101  LEU101      0.0001
     47  N          6.7460  120.7220   80.8060 N.3   109  PHE109     -0.1241
     48  CA         6.0750  120.6370   79.5120 C.3   109  PHE109      0.1605
     49  C          6.4520  119.3890   78.7170 C.2   109  PHE109      0.2264
     50  O          7.4150  118.6840   79.0430 O.2   109  PHE109     -0.2867
     51  CB         6.4180  121.8730   78.6720 C.3   109  PHE109      0.0534
     52  CG         7.9030  122.0820   78.4760 C.ar  109  PHE109     -0.0203
     53  CD1        8.6580  121.1890   77.7170 C.ar  109  PHE109     -0.0042
     54  CD2        8.5550  123.1540   79.0740 C.ar  109  PHE109     -0.0042
     55  CE1       10.0410  121.3620   77.5620 C.ar  109  PHE109     -0.0003
     56  CE2        9.9350  123.3320   78.9220 C.ar  109  PHE109     -0.0003
     57  CZ        10.6750  122.4370   78.1680 C.ar  109  PHE109     -0.0000
     58  N          7.5680  117.8720   74.9640 N.3   111  SER111     -0.1217
     59  CA         8.3870  118.4290   73.8980 C.3   111  SER111      0.1889
     60  C          8.0670  117.8210   72.5390 C.2   111  SER111      0.2288
     61  O          7.8370  116.6210   72.4230 O.2   111  SER111     -0.2866
     62  CB         9.8730  118.2190   74.2170 C.3   111  SER111      0.2089
     63  OG        10.2090  118.7120   75.5060 O.3   111  SER111     -0.2183
     64  N          9.7560  117.4900   68.9470 N.3   113  TYR113     -0.1241
     65  CA        10.9810  117.6640   68.1860 C.3   113  TYR113      0.1605
     66  C         10.7560  117.5660   66.6900 C.2   113  TYR113      0.2264
     67  O          9.8590  116.8660   66.2190 O.2   113  TYR113     -0.2867
     68  CB        12.0100  116.6230   68.6160 C.3   113  TYR113      0.0534
     69  CG        12.4850  116.8160   70.0310 C.ar  113  TYR113     -0.0201
     70  CD1       13.4520  117.7730   70.3420 C.ar  113  TYR113     -0.0009
     71  CD2       11.9390  116.0680   71.0720 C.ar  113  TYR113     -0.0009
     72  CE1       13.8620  117.9810   71.6620 C.ar  113  TYR113      0.0417
     73  CE2       12.3400  116.2650   72.3910 C.ar  113  TYR113      0.0417
     74  CZ        13.2970  117.2220   72.6810 C.ar  113  TYR113      0.1957
     75  OH        13.6580  117.4190   73.9950 O.3   113  TYR113     -0.2866
     76  N         13.4460  117.2120   63.4400 N.3   115  ILE115     -0.1245
     77  CA        14.8450  117.0770   63.0460 C.3   115  ILE115      0.1561
     78  C         15.0120  117.2030   61.5390 C.2   115  ILE115      0.2260
     79  O         14.4260  116.4390   60.7700 O.2   115  ILE115     -0.2867
     80  CB        15.4270  115.7210   63.4800 C.3   115  ILE115      0.0252
     81  CG1       15.1410  115.4750   64.9570 C.3   115  ILE115      0.0019
     82  CG2       16.9270  115.7200   63.2790 C.3   115  ILE115      0.0019
     83  CD1       15.5970  114.1250   65.4320 C.3   115  ILE115      0.0001
     84  N         17.5800  107.3160   70.1850 N.3   137  TYR137     -0.1241
     85  CA        17.6930  107.9050   71.5070 C.3   137  TYR137      0.1605
     86  C         18.3620  106.9010   72.4340 C.2   137  TYR137      0.2264
     87  O         17.9070  105.7660   72.5690 O.2   137  TYR137     -0.2867
     88  CB        16.3090  108.2870   72.0380 C.3   137  TYR137      0.0534
     89  CG        16.3220  108.7780   73.4640 C.ar  137  TYR137     -0.0201
     90  CD1       17.1640  109.8160   73.8560 C.ar  137  TYR137     -0.0009
     91  CD2       15.5120  108.1900   74.4310 C.ar  137  TYR137     -0.0009
     92  CE1       17.2030  110.2540   75.1770 C.ar  137  TYR137      0.0417
     93  CE2       15.5410  108.6190   75.7560 C.ar  137  TYR137      0.0417
     94  CZ        16.3900  109.6500   76.1230 C.ar  137  TYR137      0.1957
     95  OH        16.4290  110.0740   77.4340 O.3   137  TYR137     -0.2866
     96  N         14.0460  104.0540   71.4690 N.3   159  PRO159     -0.2116
     97  CA        13.2090  104.4730   70.3440 C.3   159  PRO159      0.1372
     98  C         14.1210  105.1460   69.3170 C.2   159  PRO159      0.2244
     99  O         15.0970  105.7920   69.6960 O.2   159  PRO159     -0.2868
    100  CB        12.2330  105.4610   70.9930 C.3   159  PRO159      0.0268
    101  CG        13.0370  106.0590   72.0980 C.3   159  PRO159      0.0207
    102  CD        13.7580  104.8510   72.6760 C.3   159  PRO159      0.0892
    103  N          8.2420  114.0810   65.9930 N.3   171  PHE171     -0.1241
    104  CA         7.6050  113.2850   67.0270 C.3   171  PHE171      0.1605
    105  C          7.6280  114.0830   68.3230 C.2   171  PHE171      0.2264
    106  O          8.3990  115.0360   68.4600 O.2   171  PHE171     -0.2867
    107  CB         8.3660  111.9800   67.2400 C.3   171  PHE171      0.0534
    108  CG         9.8080  112.1790   67.5970 C.ar  171  PHE171     -0.0203
    109  CD1       10.7750  112.2980   66.6030 C.ar  171  PHE171     -0.0042
    110  CD2       10.2010  112.2700   68.9290 C.ar  171  PHE171     -0.0042
    111  CE1       12.1130  112.5010   66.9300 C.ar  171  PHE171     -0.0003
    112  CE2       11.5330  112.4730   69.2620 C.ar  171  PHE171     -0.0003
    113  CZ        12.4890  112.5880   68.2550 C.ar  171  PHE171     -0.0000
    114  N          7.6380  114.0260   72.7620 N.3   173  VAL173     -0.1231
    115  CA         8.1160  113.2830   73.9140 C.3   173  VAL173      0.1678
    116  C          7.4430  113.8330   75.1610 C.2   173  VAL173      0.2434
    117  O          7.3980  115.0440   75.3650 O.2   173  VAL173     -0.2733
    118  CB         9.6410  113.4590   74.0770 C.3   173  VAL173      0.0265
    119  CG1       10.1480  112.6140   75.2300 C.3   173  VAL173      0.0020
    120  CG2       10.3420  113.1010   72.7830 C.3   173  VAL173      0.0020
    121  N          6.9080  112.9510   76.0140 N.am  174  PRO174     -0.2729
    122  CA         6.2480  113.4090   77.2390 C.3   174  PRO174      0.1401
    123  C          7.2570  114.0240   78.2030 C.2   174  PRO174      0.2269
    124  O          8.4640  113.8580   78.0310 O.2   174  PRO174     -0.2865
    125  CB         5.6430  112.1290   77.7930 C.3   174  PRO174      0.0296
    126  CG         6.6480  111.0910   77.3730 C.3   174  PRO174      0.0237
    127  CD         6.9190  111.4800   75.9400 C.3   174  PRO174      0.0939
    128  N          9.6980  114.1670   80.6870 N.3   176  VAL176     -0.1245
    129  CA        10.5150  113.1170   81.2850 C.3   176  VAL176      0.1561
    130  C         11.2950  113.4510   82.5420 C.2   176  VAL176      0.2260
    131  O         12.1060  112.6420   82.9880 O.2   176  VAL176     -0.2867
    132  CB        11.5180  112.5520   80.2690 C.3   176  VAL176      0.0252
    133  CG1       10.7960  111.6850   79.2520 C.3   176  VAL176      0.0019
    134  CG2       12.2460  113.6990   79.5830 C.3   176  VAL176      0.0019
    135  N         11.1430  120.6480   85.5200 N.3   182  TYR182     -0.1227
    136  CA        12.5510  120.7250   85.1520 C.3   182  TYR182      0.1736
    137  C         13.1220  121.9450   85.8850 C.2   182  TYR182      0.2595
    138  O         12.3970  122.9060   86.1600 O.2   182  TYR182     -0.2718
    139  CB        12.7310  120.9530   83.6480 C.3   182  TYR182      0.0548
    140  CG        12.2510  119.8690   82.7070 C.ar  182  TYR182     -0.0200
    141  CD1       12.7430  118.5660   82.7800 C.ar  182  TYR182     -0.0009
    142  CD2       11.3650  120.1760   81.6750 C.ar  182  TYR182     -0.0009
    143  CE1       12.3670  117.5950   81.8360 C.ar  182  TYR182      0.0417
    144  CE2       10.9850  119.2230   80.7330 C.ar  182  TYR182      0.0417
    145  CZ        11.4870  117.9360   80.8160 C.ar  182  TYR182      0.1957
    146  OH        11.0950  117.0130   79.8680 O.3   182  TYR182     -0.2866
    147  N         14.4120  121.9080   86.2050 N.am  183  ASN183     -0.1974
    148  CA        15.0590  123.0340   86.8710 C.3   183  ASN183      0.1688
    149  C         15.8330  123.8220   85.8310 C.2   183  ASN183      0.2292
    150  O         16.5780  123.2450   85.0330 O.2   183  ASN183     -0.2864
    151  CB        16.0480  122.5560   87.9340 C.3   183  ASN183      0.1181
    152  CG        15.3760  122.1400   89.2140 C.2   183  ASN183      0.2629
    153  OD1       14.4300  121.3570   89.2040 O.2   183  ASN183     -0.2716
    154  ND2       15.8720  122.6520   90.3360 N.am  183  ASN183     -0.0877
    155  N         20.9650  117.5730   84.7220 N.3   204  ASN204     -0.1240
    156  CA        20.7270  117.2870   83.3170 C.3   204  ASN204      0.1653
    157  C         21.4790  116.1200   82.6860 C.2   204  ASN204      0.2266
    158  O         22.3330  116.3230   81.8250 O.2   204  ASN204     -0.2867
    159  CB        20.9770  118.5340   82.4670 C.3   204  ASN204      0.1155
    160  CG        20.5680  118.3280   81.0130 C.2   204  ASN204      0.2627
    161  OD1       19.3730  118.3510   80.6790 O.2   204  ASN204     -0.2716
    162  ND2       21.5560  118.0980   80.1430 N.am  204  ASN204     -0.0877
    163  N         20.2610  113.5890   80.6760 N.3   206  MET206     -0.1245
    164  CA        19.1620  113.1280   79.8340 C.3   206  MET206      0.1570
    165  C         19.5390  112.1010   78.7850 C.2   206  MET206      0.2261
    166  O         18.6780  111.6420   78.0390 O.2   206  MET206     -0.2867
    167  CB        18.5330  114.3100   79.0980 C.3   206  MET206      0.0387
    168  CG        18.0750  115.4470   79.9760 C.3   206  MET206      0.0595
    169  SD        16.8200  114.9350   81.1400 S.3   206  MET206     -0.1393
    170  CE        17.6930  115.1850   82.6910 C.3   206  MET206      0.0692
    171  N         21.5090  111.3240   71.8010 N.3   209  MET209     -0.1245
    172  CA        20.7810  111.0180   70.5870 C.3   209  MET209      0.1570
    173  C         21.9020  110.6710   69.6060 C.2   209  MET209      0.2261
    174  O         22.7580  111.5120   69.3070 O.2   209  MET209     -0.2867
    175  CB        20.0160  112.2360   70.0880 C.3   209  MET209      0.0387
    176  CG        19.2610  111.9860   68.7940 C.3   209  MET209      0.0595
    177  SD        17.5590  111.4950   69.0490 S.3   209  MET209     -0.1393
    178  CE        16.7460  112.7980   68.2250 C.3   209  MET209      0.0692
    179  N         18.3160  120.0050   65.0840 N.3   228  VAL228     -0.1245
    180  CA        17.2160  119.5850   65.9420 C.3   228  VAL228      0.1561
    181  C         16.4440  120.7890   66.4650 C.2   228  VAL228      0.2260
    182  O         17.0310  121.7160   67.0340 O.2   228  VAL228     -0.2867
    183  CB        17.7320  118.7760   67.1490 C.3   228  VAL228      0.0252
    184  CG1       16.5750  118.3820   68.0390 C.3   228  VAL228      0.0019
    185  CG2       18.4690  117.5450   66.6720 C.3   228  VAL228      0.0019
@<TRIPOS>BOND
     1    79    78    2
     2    78    77    1
     3    77    76    1
     4    77    80    1
     5    82    80    1
     6    80    81    1
     7    81    83    1
     8   179   180    1
     9   180   181    1
    10   180   183    1
    11   103   104    1
    12    67    66    2
    13   181   182    2
    14   109   111   ar
    15   109   108   ar
    16   185   183    1
    17    66    65    1
    18   111   113   ar
    19   104   107    1
    20   104   105    1
    21   183   184    1
    22   107   108    1
    23   108   110   ar
    24    65    68    1
    25    65    64    1
    26   178   177    1
    27   113   112   ar
    28   105   106    2
    29    68    69    1
    30   176   177    1
    31   176   175    1
    32   110   112   ar
    33   174   173    2
    34    98    99    2
    35    98    97    1
    36   173   172    1
    37    69    70   ar
    38    69    71   ar
    39   175   172    1
    40    84    85    1
    41     5     6    1
    42     5     2    1
    43    70    72   ar
    44    97   100    1
    45    97    96    1
    46    11    13   ar
    47    11     8   ar
    48     1     2    1
    49   172   171    1
    50    13    14   ar
    51     6     8   ar
    52     6     7   ar
    53     8    10   ar
    54   100   101    1
    55     2     3    1
    56    71    73   ar
    57    14    12   ar
    58    96   102    1
    59    85    88    1
    60    85    86    1
    61     7     9   ar
    62    10    12   ar
    63    10     9   ar
    64    72    74   ar
    65    88    89    1
    66   101   102    1
    67    73    74   ar
    68    61    60    2
    69    86    87    2
    70     3     4    2
    71    60    59    1
    72    74    75    1
    73   114   115    1
    74   120   118    1
    75    22    20    1
    76    89    90   ar
    77    89    91   ar
    78    90    92   ar
    79    59    62    1
    80    59    58    1
    81   115   118    1
    82   115   116    1
    83   118   119    1
    84    62    63    1
    85    38    36    1
    86    91    93   ar
    87    20    19    1
    88    26    25    2
    89    15    16    1
    90    21    19    1
    91    16    19    1
    92    16    17    1
    93    30    28   am
    94   116   117    2
    95   116   121   am
    96    92    94   ar
    97    34    33    2
    98    23    17   am
    99    23    24    1
   100    93    94   ar
   101    36    35    1
   102    36    37    1
   103    32    33    1
   104    32    35    1
   105    32    31    1
   106    25    31   am
   107    25    24    1
   108   127   121    1
   109   127   126    1
   110    28    29    2
   111    28    27    1
   112   121   122    1
   113    17    18    2
   114    94    95    1
   115    24    27    1
   116   122   125    1
   117   122   123    1
   118   126   125    1
   119    45    44    1
   120    55    53   ar
   121    55    57   ar
   122    53    52   ar
   123    44    46    1
   124    44    43    1
   125   124   123    2
   126   166   165    2
   127    57    56   ar
   128    39    40    1
   129    52    51    1
   130    52    54   ar
   131    51    48    1
   132    49    50    2
   133    49    48    1
   134   165   164    1
   135    56    54   ar
   136    43    40    1
   137   167   164    1
   138   167   168    1
   139   133   132    1
   140    40    41    1
   141    48    47    1
   142   134   132    1
   143   164   163    1
   144   146   145    1
   145   168   169    1
   146   162   160   am
   147   132   129    1
   148    41    42    2
   149   161   160    2
   150   128   129    1
   151   144   145   ar
   152   144   142   ar
   153   145   143   ar
   154   160   159    1
   155   169   170    1
   156   129   130    1
   157   142   140   ar
   158   158   157    2
   159   143   141   ar
   160   159   156    1
   161   130   131    2
   162   157   156    1
   163   140   141   ar
   164   140   139    1
   165   156   155    1
   166   139   136    1
   167   150   149    2
   168   136   135    1
   169   136   137    1
   170   149   148    1
   171   137   138    2
   172   137   147   am
   173   147   148    1
   174   148   151    1
   175   151   152    1
   176   153   152    2
   177   152   154   am
