@<TRIPOS>MOLECULE
tmp/4pdyA00.pdb
 91 85 0 0 0
SMALL
GASTEIGER

@<TRIPOS>ATOM
      1  N          2.5890   20.2590   -2.6800 N.3    29  ASP29      -0.1239
      2  CA         3.7180   19.3900   -2.4730 C.3    29  ASP29       0.1674
      3  C          3.8140   19.1620   -0.9690 C.2    29  ASP29       0.2266
      4  O          4.3220   19.9930   -0.2250 O.2    29  ASP29      -0.2867
      5  CB         4.9990   19.9890   -3.0550 C.3    29  ASP29       0.1410
      6  CG         6.1740   19.0310   -2.9980 C.2    29  ASP29       0.3668
      7  OD1        6.0730   17.9800   -2.3290 O.co2  29  ASP29      -0.2456
      8  OD2        7.2190   19.3260   -3.6080 O.co2  29  ASP29      -0.2456
      9  N          2.7520   21.9530    1.9270 N.3    32  ILE32      -0.1245
     10  CA         2.8300   23.2940    1.3650 C.3    32  ILE32       0.1561
     11  C          2.3990   23.2770   -0.0890 C.2    32  ILE32       0.2260
     12  O          2.1730   22.2170   -0.6790 O.2    32  ILE32      -0.2867
     13  CB         4.2190   23.9450    1.5440 C.3    32  ILE32       0.0252
     14  CG1        5.3400   23.1090    0.9180 C.3    32  ILE32       0.0019
     15  CG2        4.5090   24.2020    3.0180 C.3    32  ILE32       0.0019
     16  CD1        5.5370   23.3710   -0.5410 C.3    32  ILE32       0.0001
     17  N          7.3700   28.7080   -1.2560 N.3    44  ALA44      -0.1245
     18  CA         6.5590   27.7780   -0.4850 C.3    44  ALA44       0.1562
     19  C          5.4300   28.5550    0.1910 C.2    44  ALA44       0.2260
     20  O          5.7110   29.4570    0.9930 O.2    44  ALA44      -0.2867
     21  CB         7.4220   27.1230    0.5850 C.3    44  ALA44       0.0290
     22  N          7.1800   31.7230    2.0110 N.3    95  THR95      -0.1203
     23  CA         8.6260   31.8650    2.1440 C.3    95  THR95       0.1994
     24  C          9.3160   31.6110    0.8120 C.2    95  THR95       0.2618
     25  O          8.7660   31.0080   -0.1360 O.2    95  THR95      -0.2717
     26  CB         9.2460   30.9070    3.1780 C.3    95  THR95       0.1784
     27  OG1        9.1120   29.5560    2.7550 O.3    95  THR95      -0.2211
     28  CG2        8.5950   31.0440    4.5430 C.3    95  THR95       0.0376
     29  N         10.5350   32.1260    0.7180 N.am   96  GLU96      -0.1965
     30  CA        11.4100   31.7710   -0.3930 C.3    96  GLU96       0.1733
     31  C         11.5820   30.2640   -0.3140 C.2    96  GLU96       0.2616
     32  O         11.5330   29.6860    0.7790 O.2    96  GLU96      -0.2715
     33  CB        12.7820   32.4680   -0.2740 C.3    96  GLU96       0.0429
     34  CG        12.7660   33.9970   -0.2210 C.3    96  GLU96       0.1163
     35  CD        12.4130   34.7130   -1.5350 C.2    96  GLU96       0.3649
     36  OE1       12.5040   34.1200   -2.6310 O.co2  96  GLU96      -0.2457
     37  OE2       12.0510   35.9140   -1.4730 O.co2  96  GLU96      -0.2457
     38  N         11.7860   29.6160   -1.4520 N.am   97  TRP97      -0.1960
     39  CA        12.0560   28.2120   -1.4730 C.3    97  TRP97       0.1771
     40  C         13.4480   27.8960   -1.0000 C.2    97  TRP97       0.2619
     41  O         14.3950   28.5970   -1.3400 O.2    97  TRP97      -0.2715
     42  CB        11.9990   27.7350   -2.9070 C.3    97  TRP97       0.0590
     43  CG        12.0980   26.3020   -3.0410 C.ar   97  TRP97       0.0006
     44  CD1       13.1770   25.5500   -3.4740 C.ar   97  TRP97       0.0946
     45  CD2       11.0410   25.4070   -2.8260 C.ar   97  TRP97       0.0152
     46  NE1       12.8260   24.2220   -3.4890 N.ar   97  TRP97      -0.2442
     47  CE2       11.5160   24.1130   -3.0960 C.ar   97  TRP97       0.0810
     48  CE3        9.7130   25.5740   -2.4300 C.ar   97  TRP97       0.0012
     49  CZ2       10.7190   22.9980   -2.9470 C.ar   97  TRP97       0.0191
     50  CZ3        8.9330   24.4790   -2.2800 C.ar   97  TRP97       0.0001
     51  CH2        9.4220   23.2040   -2.5500 C.ar   97  TRP97       0.0015
     52  N         13.5680   26.8280   -0.2200 N.am   98  VAL98      -0.1977
     53  CA        14.8520   26.3220    0.2210 C.3    98  VAL98       0.1596
     54  C         15.1600   25.0240   -0.4960 C.2    98  VAL98       0.2287
     55  O         14.4390   24.0430   -0.3490 O.2    98  VAL98      -0.2864
     56  CB        14.8630   26.0640    1.7380 C.3    98  VAL98       0.0276
     57  CG1       16.2290   25.5390    2.1270 C.3    98  VAL98       0.0022
     58  CG2       14.5130   27.3400    2.4780 C.3    98  VAL98       0.0022
     59  N         16.9220   21.6460   -1.0170 N.3   100  GLY100     -0.1225
     60  CA        17.4560   20.6370   -0.0840 C.3   100  GLY100      0.1811
     61  C         16.5900   19.4040    0.0050 C.2   100  GLY100      0.2280
     62  O         15.5650   19.3020   -0.6860 O.2   100  GLY100     -0.2866
     63  N         14.8380   16.4360    2.8490 N.3   102  PRO102     -0.2116
     64  CA        14.4800   16.2280    4.2460 C.3   102  PRO102      0.1372
     65  C         15.6590   15.5120    4.9110 C.2   102  PRO102      0.2244
     66  O         16.2220   14.5840    4.3340 O.2   102  PRO102     -0.2868
     67  CB        13.2330   15.3390    4.1550 C.3   102  PRO102      0.0268
     68  CG        13.3310   14.6650    2.8240 C.3   102  PRO102      0.0207
     69  CD        13.9550   15.6850    1.9330 C.3   102  PRO102      0.0892
     70  N         10.9270   16.4530    7.3990 N.3   209  SER209     -0.1217
     71  CA        10.3670   17.3840    6.4350 C.3   209  SER209      0.1889
     72  C         10.4820   18.8540    6.8260 C.2   209  SER209      0.2288
     73  O         10.2850   19.7060    5.9650 O.2   209  SER209     -0.2866
     74  CB         8.9140   17.0390    6.1110 C.3   209  SER209      0.2089
     75  OG         8.1060   17.0150    7.2600 O.3   209  SER209     -0.2183
     76  N         15.6660   20.8400    6.4940 N.3   212  LEU212     -0.1245
     77  CA        16.1140   20.6380    5.1190 C.3   212  LEU212      0.1561
     78  C         17.6400   20.6860    5.0450 C.2   212  LEU212      0.2260
     79  O         18.2500   21.7060    5.3680 O.2   212  LEU212     -0.2867
     80  CB        15.5140   21.7300    4.2590 C.3   212  LEU212      0.0270
     81  CG        13.9890   21.7150    4.2100 C.3   212  LEU212      0.0019
     82  CD1       13.5000   22.8360    3.3240 C.3   212  LEU212      0.0001
     83  CD2       13.4560   20.3760    3.7290 C.3   212  LEU212      0.0001
     84  N         12.2100   24.9110    8.5780 N.3   222  ILE222     -0.1245
     85  CA        10.9430   25.4980    8.1750 C.3   222  ILE222      0.1561
     86  C          9.8590   25.1190    9.2070 C.2   222  ILE222      0.2260
     87  O         10.0730   24.2360   10.0500 O.2   222  ILE222     -0.2867
     88  CB        10.5370   25.1080    6.7530 C.3   222  ILE222      0.0252
     89  CG1       10.2850   23.6190    6.7070 C.3   222  ILE222      0.0019
     90  CG2       11.6410   25.5110    5.7610 C.3   222  ILE222      0.0019
     91  CD1        9.6900   23.1590    5.3990 C.3   222  ILE222      0.0001
@<TRIPOS>BOND
     1     8     6   ar
     2    46    44   ar
     3    46    47   ar
     4    44    43   ar
     5    47    49   ar
     6    47    45   ar
     7     5     6    1
     8     5     2    1
     9    43    42    1
    10    43    45   ar
    11     6     7   ar
    12    49    51   ar
    13    42    39    1
    14    45    48   ar
    15     1     2    1
    16    36    35   ar
    17    51    50   ar
    18     2     3    1
    19    48    50   ar
    20    35    37   ar
    21    35    34    1
    22    39    38    1
    23    39    40    1
    24    38    31   am
    25    41    40    2
    26    17    18    1
    27    59    60    1
    28    40    52   am
    29     3     4    2
    30    62    61    2
    31    12    11    2
    32    16    14    1
    33    54    55    2
    34    54    53    1
    35    18    19    1
    36    18    21    1
    37    30    31    1
    38    30    33    1
    39    30    29    1
    40    31    32    2
    41    33    34    1
    42    52    53    1
    43    25    24    2
    44    11    10    1
    45    60    61    1
    46    19    20    2
    47    53    56    1
    48    29    24   am
    49    24    23    1
    50    14    13    1
    51    10    13    1
    52    10     9    1
    53    13    15    1
    54    56    57    1
    55    56    58    1
    56    69    68    1
    57    69    63    1
    58    22    23    1
    59    23    26    1
    60    27    26    1
    61    68    67    1
    62    63    64    1
    63    26    28    1
    64    82    81    1
    65    83    81    1
    66    67    64    1
    67    81    80    1
    68    64    65    1
    69    80    77    1
    70    66    65    2
    71    78    77    1
    72    78    79    2
    73    77    76    1
    74    91    89    1
    75    90    88    1
    76    73    72    2
    77    74    71    1
    78    74    75    1
    79    71    72    1
    80    71    70    1
    81    89    88    1
    82    88    85    1
    83    85    84    1
    84    85    86    1
    85    86    87    2
