@<TRIPOS>MOLECULE
tmp/4pe2A00.pdb
 188 184 0 0 0
SMALL
GASTEIGER

@<TRIPOS>ATOM
      1  N          4.4050   -3.8980   43.3000 N.3    11  ASN11      -0.1240
      2  CA         5.7680   -4.4350   43.4050 C.3    11  ASN11       0.1653
      3  C          6.4090   -4.1630   44.7730 C.2    11  ASN11       0.2266
      4  O          6.1360   -3.1410   45.4110 O.2    11  ASN11      -0.2867
      5  CB         6.6390   -3.8470   42.3000 C.3    11  ASN11       0.1155
      6  CG         7.8360   -4.7210   41.9630 C.2    11  ASN11       0.2627
      7  OD1        7.7520   -5.9590   41.9670 O.2    11  ASN11      -0.2716
      8  ND2        8.9670   -4.0790   41.6880 N.am   11  ASN11      -0.0877
      9  N          9.4040   -3.2370   45.6110 N.3    13  ASP13      -0.1225
     10  CA        10.2870   -2.0920   45.7760 C.3    13  ASP13       0.1805
     11  C          9.4920   -0.8050   46.0380 C.2    13  ASP13       0.2597
     12  O         10.0800    0.2320   46.3500 O.2    13  ASP13      -0.2718
     13  CB        11.2560   -1.9360   44.5660 C.3    13  ASP13       0.1424
     14  CG        10.5580   -1.8520   43.2100 C.2    13  ASP13       0.3668
     15  OD1        9.3240   -1.6540   43.1310 O.co2  13  ASP13      -0.2456
     16  OD2       11.2790   -1.9740   42.1860 O.co2  13  ASP13      -0.2456
     17  N          8.1600   -0.8780   45.9790 N.am   14  LYS14      -0.1979
     18  CA         7.3300    0.3180   46.1320 C.3    14  LYS14       0.1596
     19  C          6.7660    0.4300   47.5580 C.2    14  LYS14       0.2287
     20  O          6.9900   -0.4460   48.3970 O.2    14  LYS14      -0.2864
     21  CB         6.1730    0.3210   45.1260 C.3    14  LYS14       0.0298
     22  CG         6.6000    0.3200   43.6530 C.3    14  LYS14       0.0038
     23  CD         7.4610    1.5310   43.3610 C.3    14  LYS14       0.0206
     24  CE         8.4090    1.2640   42.2070 C.3    14  LYS14       0.1093
     25  NZ         7.6890    0.6330   41.1060 N.3    14  LYS14      -0.1314
     26  N          4.2170   -8.9110   37.4690 N.3    43  GLU43      -0.1245
     27  CA         3.8200   -8.5400   36.1160 C.3    43  GLU43       0.1567
     28  C          3.6080   -9.7570   35.2200 C.2    43  GLU43       0.2260
     29  O          2.9390   -9.6550   34.1880 O.2    43  GLU43      -0.2867
     30  CB         4.8660   -7.6020   35.4990 C.3    43  GLU43       0.0388
     31  CG         6.1830   -8.2620   35.1170 C.3    43  GLU43       0.1160
     32  CD         7.0630   -8.6350   36.3190 C.2    43  GLU43       0.3649
     33  OE1        6.5290   -8.8590   37.4210 O.co2  43  GLU43      -0.2457
     34  OE2        8.3020   -8.7030   36.1570 O.co2  43  GLU43      -0.2457
     35  N          1.6120   -1.2390   38.3410 N.3    61  TRP61      -0.1227
     36  CA         2.8590   -1.4750   37.6010 C.3    61  TRP61       0.1737
     37  C          3.1250   -0.2630   36.7290 C.2    61  TRP61       0.2595
     38  O          2.2470    0.5670   36.5320 O.2    61  TRP61      -0.2718
     39  CB         2.7870   -2.7360   36.7200 C.3    61  TRP61       0.0564
     40  CG         4.1420   -3.2130   36.2740 C.ar   61  TRP61       0.0003
     41  CD1        4.7580   -2.9690   35.0630 C.ar   61  TRP61       0.0946
     42  CD2        5.0610   -3.9850   37.0430 C.ar   61  TRP61       0.0152
     43  NE1        6.0070   -3.5590   35.0510 N.ar   61  TRP61      -0.2442
     44  CE2        6.2110   -4.1900   36.2500 C.ar   61  TRP61       0.0810
     45  CE3        5.0200   -4.5310   38.3360 C.ar   61  TRP61       0.0012
     46  CZ2        7.3140   -4.9220   36.7120 C.ar   61  TRP61       0.0191
     47  CZ3        6.1120   -5.2510   38.7870 C.ar   61  TRP61       0.0001
     48  CH2        7.2410   -5.4400   37.9830 C.ar   61  TRP61       0.0015
     49  N          4.3320   -0.1490   36.1810 N.am   62  ALA62      -0.1980
     50  CA         4.5440    0.8540   35.1480 C.3    62  ALA62       0.1597
     51  C          3.6330    0.6210   33.9350 C.2    62  ALA62       0.2287
     52  O          3.1960   -0.5090   33.6520 O.2    62  ALA62      -0.2864
     53  CB         6.0180    0.8730   34.7240 C.3    62  ALA62       0.0319
     54  N          3.9670    0.4710   30.8250 N.3    64  ASP64      -0.1225
     55  CA         4.3830   -0.2400   29.6260 C.3    64  ASP64       0.1805
     56  C          3.7440   -1.6340   29.5160 C.2    64  ASP64       0.2597
     57  O          3.5810   -2.1440   28.4200 O.2    64  ASP64      -0.2718
     58  CB         5.9200   -0.3500   29.5360 C.3    64  ASP64       0.1424
     59  CG         6.5280   -1.1320   30.6970 C.2    64  ASP64       0.3668
     60  OD1        6.3130   -0.7150   31.8430 O.co2  64  ASP64      -0.2456
     61  OD2        7.2210   -2.1560   30.4650 O.co2  64  ASP64      -0.2456
     62  N          3.3310   -2.2280   30.6310 N.am   65  ARG65      -0.1979
     63  CA         2.7840   -3.5890   30.5720 C.3    65  ARG65       0.1597
     64  C          1.2960   -3.5960   30.2460 C.2    65  ARG65       0.2287
     65  O          0.7490   -4.6250   29.8670 O.2    65  ARG65      -0.2864
     66  CB         2.9830   -4.3200   31.9010 C.3    65  ARG65       0.0334
     67  CG         4.4330   -4.6990   32.1990 C.3    65  ARG65       0.0492
     68  CD         4.8230   -5.9820   31.5090 C.3    65  ARG65       0.2205
     69  NE         6.2730   -6.1960   31.5560 N.pl3  65  ARG65      -0.0865
     70  CZ         6.8680   -7.3130   31.1550 C.cat  65  ARG65       0.5346
     71  NH1        6.1340   -8.3180   30.6760 N.pl3  65  ARG65       0.1354
     72  NH2        8.1880   -7.4270   31.2340 N.pl3  65  ARG65       0.1354
     73  N          8.2540    8.0990   37.0280 N.3   110  GLU110     -0.1245
     74  CA         9.5640    7.6730   37.5190 C.3   110  GLU110      0.1567
     75  C         10.5730    7.6570   36.3860 C.2   110  GLU110      0.2260
     76  O         10.2530    7.3130   35.2520 O.2   110  GLU110     -0.2867
     77  CB         9.5180    6.2630   38.1290 C.3   110  GLU110      0.0388
     78  CG         8.1940    5.8370   38.7180 C.3   110  GLU110      0.1160
     79  CD         8.0630    4.3120   38.8300 C.2   110  GLU110      0.3649
     80  OE1        7.4860    3.8380   39.8360 O.co2 110  GLU110     -0.2457
     81  OE2        8.5300    3.5850   37.9210 O.co2 110  GLU110     -0.2457
     82  N         22.0090   -2.7120   39.2540 N.3   149  ASN149     -0.1240
     83  CA        21.4030   -3.9710   38.8250 C.3   149  ASN149      0.1653
     84  C         21.6580   -4.2980   37.3490 C.2   149  ASN149      0.2266
     85  O         21.1410   -3.6240   36.4530 O.2   149  ASN149     -0.2867
     86  CB        19.8930   -3.9150   39.0930 C.3   149  ASN149      0.1155
     87  CG        19.1940   -5.2400   38.8450 C.2   149  ASN149      0.2627
     88  OD1       19.8340   -6.2630   38.6370 O.2   149  ASN149     -0.2716
     89  ND2       17.8600   -5.2280   38.9000 N.am  149  ASN149     -0.0877
     90  N         18.3700   -6.6110   35.2590 N.3   152  GLU152     -0.1231
     91  CA        17.1890   -6.0210   34.6290 C.3   152  GLU152      0.1684
     92  C         17.5890   -4.9640   33.6170 C.2   152  GLU152      0.2434
     93  O         18.2330   -3.9700   33.9920 O.2   152  GLU152     -0.2733
     94  CB        16.2750   -5.3900   35.6690 C.3   152  GLU152      0.0402
     95  CG        15.5510   -6.3920   36.5510 C.3   152  GLU152      0.1161
     96  CD        14.4880   -7.1670   35.8060 C.2   152  GLU152      0.3649
     97  OE1       13.9890   -6.6760   34.7640 O.co2 152  GLU152     -0.2457
     98  OE2       14.1360   -8.2730   36.2750 O.co2 152  GLU152     -0.2457
     99  N         17.1560   -5.1390   32.3550 N.am  153  PRO153     -0.2718
    100  CA        17.5570   -4.2510   31.2510 C.3   153  PRO153      0.1535
    101  C         17.1200   -2.7830   31.4330 C.2   153  PRO153      0.2599
    102  O         17.6860   -1.8670   30.8280 O.2   153  PRO153     -0.2715
    103  CB        16.8940   -4.8890   30.0250 C.3   153  PRO153      0.0310
    104  CG        15.7950   -5.7260   30.5480 C.3   153  PRO153      0.0237
    105  CD        16.2580   -6.2120   31.9000 C.3   153  PRO153      0.0939
    106  N         16.1120   -2.5520   32.2680 N.am  154  TYR154     -0.1960
    107  CA        15.6910   -1.2030   32.6090 C.3   154  TYR154      0.1771
    108  C         16.8610   -0.2930   33.0450 C.2   154  TYR154      0.2619
    109  O         16.9190    0.8970   32.6660 O.2   154  TYR154     -0.2715
    110  CB        14.6290   -1.3130   33.7100 C.3   154  TYR154      0.0574
    111  CG        14.0660   -0.0250   34.2220 C.ar  154  TYR154     -0.0198
    112  CD1       13.1470    0.7060   33.4710 C.ar  154  TYR154     -0.0009
    113  CD2       14.4110    0.4420   35.4870 C.ar  154  TYR154     -0.0009
    114  CE1       12.6070    1.8840   33.9650 C.ar  154  TYR154      0.0417
    115  CE2       13.8880    1.6070   35.9760 C.ar  154  TYR154      0.0417
    116  CZ        12.9850    2.3220   35.2190 C.ar  154  TYR154      0.1957
    117  OH        12.4770    3.4940   35.7440 O.3   154  TYR154     -0.2866
    118  N         17.8060   -0.8730   33.7950 N.am  155  PHE155     -0.1974
    119  CA        18.9140   -0.1310   34.3860 C.3   155  PHE155      0.1639
    120  C         20.0550    0.1120   33.3860 C.2   155  PHE155      0.2290
    121  O         20.8080    1.0740   33.5310 O.2   155  PHE155     -0.2864
    122  CB        19.4700   -0.8670   35.6120 C.3   155  PHE155      0.0560
    123  CG        18.4770   -0.9830   36.7400 C.ar  155  PHE155     -0.0200
    124  CD1       17.5600   -2.0210   36.7750 C.ar  155  PHE155     -0.0042
    125  CD2       18.4500   -0.0250   37.7490 C.ar  155  PHE155     -0.0042
    126  CE1       16.6130   -2.1020   37.8120 C.ar  155  PHE155     -0.0003
    127  CE2       17.5280   -0.1000   38.7910 C.ar  155  PHE155     -0.0003
    128  CZ        16.6030   -1.1420   38.8260 C.ar  155  PHE155     -0.0000
    129  N         19.8850   -6.3940   41.9460 N.3   209  TYR209     -0.1241
    130  CA        19.3400   -5.2480   42.6640 C.3   209  TYR209      0.1605
    131  C         19.7520   -5.2330   44.1440 C.2   209  TYR209      0.2264
    132  O         20.1420   -4.1960   44.6850 O.2   209  TYR209     -0.2867
    133  CB        17.8030   -5.2230   42.5630 C.3   209  TYR209      0.0534
    134  CG        17.2000   -3.9460   43.1200 C.ar  209  TYR209     -0.0201
    135  CD1       16.9190   -3.8160   44.4740 C.ar  209  TYR209     -0.0009
    136  CD2       16.9100   -2.8650   42.2790 C.ar  209  TYR209     -0.0009
    137  CE1       16.3910   -2.6320   44.9880 C.ar  209  TYR209      0.0417
    138  CE2       16.3780   -1.6940   42.7700 C.ar  209  TYR209      0.0417
    139  CZ        16.1110   -1.5830   44.1290 C.ar  209  TYR209      0.1957
    140  OH        15.5850   -0.4120   44.6200 O.3   209  TYR209     -0.2866
    141  N         12.0690    5.2330   44.4220 N.3   229  TRP229     -0.1241
    142  CA        11.6710    4.2780   45.4680 C.3   229  TRP229      0.1605
    143  C         12.8480    3.9020   46.3770 C.2   229  TRP229      0.2264
    144  O         12.6630    3.5570   47.5520 O.2   229  TRP229     -0.2867
    145  CB        11.0780    3.0220   44.8420 C.3   229  TRP229      0.0550
    146  CG        11.9950    2.4050   43.8420 C.ar  229  TRP229      0.0003
    147  CD1       13.0190    1.5340   44.0940 C.ar  229  TRP229      0.0946
    148  CD2       11.9890    2.6210   42.4290 C.ar  229  TRP229      0.0152
    149  NE1       13.6420    1.1860   42.9160 N.ar  229  TRP229     -0.2442
    150  CE2       13.0340    1.8480   41.8820 C.ar  229  TRP229      0.0810
    151  CE3       11.2030    3.4020   41.5700 C.ar  229  TRP229      0.0012
    152  CZ2       13.3110    1.8220   40.5120 C.ar  229  TRP229      0.0191
    153  CZ3       11.4850    3.3810   40.2020 C.ar  229  TRP229      0.0001
    154  CH2       12.5300    2.5960   39.6940 C.ar  229  TRP229      0.0015
    155  N          8.7430    5.7530   33.1340 N.3   259  GLY259     -0.1225
    156  CA         7.5770    4.9370   33.4430 C.3   259  GLY259      0.1811
    157  C          6.5480    5.7450   34.2120 C.2   259  GLY259      0.2280
    158  O          6.9070    6.6050   35.0100 O.2   259  GLY259     -0.2866
    159  N          3.9160    4.8600   36.8750 N.3   261  LEU261     -0.1245
    160  CA         3.3010    3.8990   37.7880 C.3   261  LEU261      0.1561
    161  C          1.7990    4.0950   37.6300 C.2   261  LEU261      0.2260
    162  O          1.3110    5.2350   37.6860 O.2   261  LEU261     -0.2867
    163  CB         3.7510    4.1210   39.2400 C.3   261  LEU261      0.0270
    164  CG         3.1130    3.1630   40.2580 C.3   261  LEU261      0.0019
    165  CD1        3.5380    1.7120   39.8950 C.3   261  LEU261      0.0001
    166  CD2        3.4760    3.5240   41.7100 C.3   261  LEU261      0.0001
    167  N          8.0160    5.2580   27.8530 N.3   329  MET329     -0.1245
    168  CA         7.8690    3.8990   27.3310 C.3   329  MET329      0.1570
    169  C          6.6010    3.7850   26.5160 C.2   329  MET329      0.2261
    170  O          5.5720    4.3560   26.8900 O.2   329  MET329     -0.2867
    171  CB         7.8410    2.8690   28.4640 C.3   329  MET329      0.0387
    172  CG         9.1700    2.6670   29.1450 C.3   329  MET329      0.0595
    173  SD         9.1560    1.2920   30.3020 S.3   329  MET329     -0.1393
    174  CE         8.0270    1.9040   31.5140 C.3   329  MET329      0.0692
    175  N         11.3110   -6.3230   26.0930 N.3   339  TRP339     -0.1241
    176  CA        12.0520   -6.4050   27.3440 C.3   339  TRP339      0.1605
    177  C         12.7130   -7.7750   27.5230 C.2   339  TRP339      0.2264
    178  O         13.8110   -7.8640   28.0750 O.2   339  TRP339     -0.2867
    179  CB        11.1470   -6.0960   28.5390 C.3   339  TRP339      0.0550
    180  CG        10.8890   -4.6200   28.7650 C.ar  339  TRP339      0.0003
    181  CD1        9.6650   -4.0040   28.8610 C.ar  339  TRP339      0.0946
    182  CD2       11.8720   -3.5910   28.9720 C.ar  339  TRP339      0.0152
    183  NE1        9.8340   -2.6530   29.1020 N.ar  339  TRP339     -0.2442
    184  CE2       11.1760   -2.3770   29.1710 C.ar  339  TRP339      0.0810
    185  CE3       13.2750   -3.5740   29.0010 C.ar  339  TRP339      0.0012
    186  CZ2       11.8350   -1.1630   29.3990 C.ar  339  TRP339      0.0191
    187  CZ3       13.9220   -2.3720   29.2150 C.ar  339  TRP339      0.0001
    188  CH2       13.2010   -1.1790   29.4100 C.ar  339  TRP339      0.0015
@<TRIPOS>BOND
     1   175   176    1
     2   169   170    2
     3   169   168    1
     4   168   167    1
     5   168   171    1
     6   176   177    1
     7   176   179    1
     8   177   178    2
     9    57    56    2
    10   171   172    1
    11   179   180    1
    12   180   181   ar
    13   180   182   ar
    14   181   183   ar
    15   182   185   ar
    16   182   184   ar
    17   185   187   ar
    18   183   184   ar
    19   172   173    1
    20   184   186   ar
    21   187   188   ar
    22   186   188   ar
    23    56    55    1
    24    56    62   am
    25    58    55    1
    26    58    59    1
    27    55    54    1
    28    65    64    2
    29   103   104    1
    30   103   100    1
    31    64    63    1
    32   173   174    1
    33    61    59   ar
    34   104   105    1
    35    63    62    1
    36    63    66    1
    37    71    70    1
    38    59    60   ar
    39   102   101    2
    40    70    72    1
    41    70    69    2
    42   100   101    1
    43   100    99    1
    44   101   106   am
    45    68    69    1
    46    68    67    1
    47   105    99    1
    48    66    67    1
    49   106   107    1
    50    99    92   am
    51   107   108    1
    52   107   110    1
    53   109   108    2
    54   108   118   am
    55   155   156    1
    56   120   121    2
    57   120   119    1
    58   156   157    1
    59   112   114   ar
    60   112   111   ar
    61    92    93    2
    62    92    91    1
    63    52    51    2
    64   110   111    1
    65   118   119    1
    66    51    50    1
    67   114   116   ar
    68    29    28    2
    69   157   158    2
    70   111   113   ar
    71   119   122    1
    72    91    90    1
    73    91    94    1
    74    53    50    1
    75    97    96   ar
    76    43    41   ar
    77    43    44   ar
    78    41    40   ar
    79    31    30    1
    80    31    32    1
    81    50    49    1
    82   116   117    1
    83   116   115   ar
    84    28    27    1
    85    76    75    2
    86   113   115   ar
    87    30    27    1
    88   122   123    1
    89    94    95    1
    90    96    98   ar
    91    96    95    1
    92    27    26    1
    93    34    32   ar
    94    49    37   am
    95    44    46   ar
    96    44    42   ar
    97    40    39    1
    98    40    42   ar
    99    32    33   ar
   100    75    74    1
   101    85    84    2
   102    38    37    2
   103    46    48   ar
   104    39    36    1
   105    37    36    1
   106   123   124   ar
   107   123   125   ar
   108   124   126   ar
   109   159   160    1
   110    73    74    1
   111    42    45   ar
   112    84    83    1
   113    74    77    1
   114    36    35    1
   115   161   162    2
   116   161   160    1
   117   125   127   ar
   118   160   163    1
   119   126   128   ar
   120    81    79   ar
   121    48    47   ar
   122    77    78    1
   123    45    47   ar
   124    88    87    2
   125    78    79    1
   126   127   128   ar
   127    83    86    1
   128    83    82    1
   129    79    80   ar
   130    87    89   am
   131    87    86    1
   132   163   164    1
   133   154   153   ar
   134   154   152   ar
   135   165   164    1
   136   153   151   ar
   137   164   166    1
   138   152   150   ar
   139    25    24    1
   140   151   148   ar
   141     8     6   am
   142   150   148   ar
   143   150   149   ar
   144   129   130    1
   145     6     7    2
   146     6     5    1
   147    16    14   ar
   148    24    23    1
   149   136   138   ar
   150   136   134   ar
   151     5     2    1
   152   148   146   ar
   153   133   130    1
   154   133   134    1
   155   130   131    1
   156   138   139   ar
   157   149   147   ar
   158   134   135   ar
   159    15    14   ar
   160    14    13    1
   161     1     2    1
   162    23    22    1
   163     2     3    1
   164    22    21    1
   165   146   147   ar
   166   146   145    1
   167   139   140    1
   168   139   137   ar
   169   131   132    2
   170   141   142    1
   171   135   137   ar
   172    13    10    1
   173     3     4    2
   174   145   142    1
   175    21    18    1
   176   142   143    1
   177     9    10    1
   178    10    11    1
   179    17    11   am
   180    17    18    1
   181    11    12    2
   182    18    19    1
   183   143   144    2
   184    19    20    2
