@<TRIPOS>MOLECULE
tmp/4pe5B00.pdb
 75 70 0 0 0
SMALL
GASTEIGER

@<TRIPOS>ATOM
      1  N        -20.0850   -5.6770  -33.4270 N.3   438  GLY438     -0.1210
      2  CA       -20.9630   -5.3950  -34.5480 C.3   438  GLY438      0.1956
      3  C        -20.9770   -3.9240  -34.9160 C.2   438  GLY438      0.2611
      4  O        -19.9910   -3.2150  -34.7160 O.2   438  GLY438     -0.2717
      5  N        -22.1010   -3.4640  -35.4560 N.am  439  LYS439     -0.1979
      6  CA       -22.2460   -2.0680  -35.8490 C.3   439  LYS439      0.1596
      7  C        -23.5660   -1.4890  -35.3500 C.2   439  LYS439      0.2287
      8  O        -23.7480   -1.2750  -34.1510 O.2   439  LYS439     -0.2864
      9  CB       -22.1480   -1.9250  -37.3690 C.3   439  LYS439      0.0298
     10  CG       -20.9530   -2.5800  -38.0280 C.3   439  LYS439      0.0038
     11  CD       -21.1760   -2.6500  -39.5340 C.3   439  LYS439      0.0206
     12  CE       -22.4600   -3.4180  -39.8460 C.3   439  LYS439      0.1093
     13  NZ       -22.8750   -3.3630  -41.2760 N.3   439  LYS439     -0.1314
     14  N        -28.0440   -6.0670  -35.9990 N.3   442  LYS442     -0.1245
     15  CA       -28.5360   -7.1320  -36.8640 C.3   442  LYS442      0.1561
     16  C        -29.0030   -8.3250  -36.0390 C.2   442  LYS442      0.2260
     17  O        -28.8580   -8.3410  -34.8170 O.2   442  LYS442     -0.2867
     18  CB       -27.4520   -7.5670  -37.8520 C.3   442  LYS442      0.0271
     19  CG       -27.6840   -8.4390  -39.0640 C.3   442  LYS442      0.0035
     20  CD       -28.8430   -8.0810  -39.9550 C.3   442  LYS442      0.0206
     21  CE       -29.2030   -9.2560  -40.8520 C.3   442  LYS442      0.1093
     22  NZ       -30.6600   -9.3420  -41.1570 N.3   442  LYS442     -0.1314
     23  N        -28.3870  -12.2820  -35.7880 N.3   444  ILE444     -0.1245
     24  CA       -27.6400  -13.4740  -36.1730 C.3   444  ILE444      0.1561
     25  C        -28.5320  -14.7100  -36.1470 C.2   444  ILE444      0.2260
     26  O        -29.1120  -15.0910  -37.1640 O.2   444  ILE444     -0.2867
     27  CB       -26.4290  -13.7040  -35.2480 C.3   444  ILE444      0.0252
     28  CG1      -25.7080  -12.4320  -34.8630 C.3   444  ILE444      0.0019
     29  CG2      -25.4740  -14.6970  -35.8980 C.3   444  ILE444      0.0019
     30  CD1      -24.6320  -12.5910  -33.7830 C.3   444  ILE444      0.0001
     31  N        -26.6530   -8.5700  -32.3550 N.3   449  ASN449     -0.1240
     32  CA       -25.2070   -8.3790  -32.3250 C.3   449  ASN449      0.1653
     33  C        -24.7970   -6.9770  -32.7680 C.2   449  ASN449      0.2266
     34  O        -23.8560   -6.8080  -33.5430 O.2   449  ASN449     -0.2867
     35  CB       -24.5160   -9.4270  -33.2010 C.3   449  ASN449      0.1155
     36  CG       -24.9730   -9.3750  -34.6460 C.2   449  ASN449      0.2627
     37  OD1      -26.0840   -8.9360  -34.9430 O.2   449  ASN449     -0.2716
     38  ND2      -24.1150   -9.8240  -35.5550 N.am  449  ASN449     -0.0877
     39  N        -24.8980   -2.0470  -47.8060 N.3   583  VAL583     -0.1231
     40  CA       -24.0930   -2.5680  -46.7090 C.3   583  VAL583      0.1678
     41  C        -24.8170   -3.7130  -46.0040 C.2   583  VAL583      0.2434
     42  O        -26.0400   -3.6880  -45.8620 O.2   583  VAL583     -0.2733
     43  CB       -23.7460   -1.4670  -45.6840 C.3   583  VAL583      0.0265
     44  CG1      -22.8580   -0.4100  -46.3230 C.3   583  VAL583      0.0020
     45  CG2      -25.0100   -0.8400  -45.1170 C.3   583  VAL583      0.0020
     46  N        -24.0610   -4.7340  -45.5770 N.am  584  PRO584     -0.2718
     47  CA       -24.6520   -5.8590  -44.8460 C.3   584  PRO584      0.1535
     48  C        -25.0190   -5.4730  -43.4150 C.2   584  PRO584      0.2598
     49  O        -24.4960   -4.4840  -42.9020 O.2   584  PRO584     -0.2715
     50  CB       -23.5420   -6.9120  -44.8670 C.3   584  PRO584      0.0310
     51  CG       -22.2860   -6.1220  -44.9670 C.3   584  PRO584      0.0237
     52  CD       -22.6170   -4.9180  -45.8050 C.3   584  PRO584      0.0939
     53  N        -25.9210   -6.2380  -42.8020 N.am  585  ASN585     -0.1973
     54  CA       -26.3410   -6.0290  -41.4160 C.3   585  ASN585      0.1688
     55  C        -26.9590   -4.6560  -41.1690 C.2   585  ASN585      0.2292
     56  O        -27.0090   -4.1850  -40.0330 O.2   585  ASN585     -0.2864
     57  CB       -25.1570   -6.2320  -40.4680 C.3   585  ASN585      0.1181
     58  CG       -24.3610   -7.4740  -40.7960 C.2   585  ASN585      0.2629
     59  OD1      -24.9260   -8.5340  -41.0700 O.2   585  ASN585     -0.2716
     60  ND2      -23.0390   -7.3510  -40.7790 N.am  585  ASN585     -0.0877
     61  N        -18.4730   -3.4940  -48.0620 N.3   609  ARG609     -0.1231
     62  CA       -18.2390   -3.1190  -46.6730 C.3   609  ARG609      0.1694
     63  C        -17.5670   -1.7540  -46.5760 C.2   609  ARG609      0.2592
     64  O        -16.4330   -1.5770  -47.0200 O.2   609  ARG609     -0.2718
     65  CB       -17.3860   -4.1760  -45.9680 C.3   609  ARG609      0.0321
     66  CG       -18.1000   -5.4910  -45.7190 C.3   609  ARG609      0.0489
     67  CD       -19.0240   -5.3990  -44.4900 C.3   609  ARG609      0.2205
     68  NE       -18.1700   -5.4510  -43.2930 N.pl3 609  ARG609     -0.0865
     69  CZ       -18.1620   -4.6580  -42.2350 C.cat 609  ARG609      0.5346
     70  NH1      -18.9820   -3.6180  -42.0720 N.pl3 609  ARG609      0.1354
     71  NH2      -17.2930   -4.8760  -41.2490 N.pl3 609  ARG609      0.1354
     72  N        -18.2750   -0.7920  -45.9930 N.am  610  GLY610     -0.1957
     73  CA       -17.7570    0.5560  -45.8480 C.3   610  GLY610      0.1869
     74  C        -18.4660    1.5440  -46.7520 C.2   610  GLY610      0.2309
     75  O        -18.5990    1.3150  -47.9550 O.2   610  GLY610     -0.2863
@<TRIPOS>BOND
     1    61    62    1
     2    75    74    2
     3    39    40    1
     4    64    63    2
     5    74    73    1
     6    40    41    1
     7    40    43    1
     8    62    63    1
     9    62    65    1
    10    63    72   am
    11    44    43    1
    12    41    42    2
    13    41    46   am
    14    72    73    1
    15    65    66    1
    16    52    46    1
    17    52    51    1
    18    66    67    1
    19    43    45    1
    20    46    47    1
    21    51    50    1
    22    50    47    1
    23    47    48    1
    24    67    68    1
    25    48    49    2
    26    48    53   am
    27    68    69    2
    28    53    54    1
    29    69    70    1
    30    69    71    1
    31    54    55    1
    32    54    57    1
    33    13    12    1
    34    55    56    2
    35    22    21    1
    36    59    58    2
    37    21    20    1
    38    58    60   am
    39    58    57    1
    40    20    19    1
    41    12    11    1
    42    11    10    1
    43    19    18    1
    44    10     9    1
    45    18    15    1
    46     9     6    1
    47    26    25    2
    48    15    16    1
    49    15    14    1
    50    24    25    1
    51    24    23    1
    52    24    27    1
    53    16    17    2
    54    29    27    1
    55     6     5    1
    56     6     7    1
    57    38    36   am
    58     5     3   am
    59     7     8    2
    60    27    28    1
    61    37    36    2
    62     3     4    2
    63     3     2    1
    64    28    30    1
    65    36    35    1
    66     2     1    1
    67    34    33    2
    68    35    32    1
    69    33    32    1
    70    31    32    1
