@<TRIPOS>MOLECULE
tmp/4pe5D00.pdb
 118 114 0 0 0
SMALL
GASTEIGER

@<TRIPOS>ATOM
      1  N        -58.6580   38.4470   21.0530 N.3    47  PRO47      -0.2116
      2  CA       -59.8350   37.6320   20.7150 C.3    47  PRO47       0.1372
      3  C        -60.8870   37.5240   21.8150 C.2    47  PRO47       0.2244
      4  O        -62.0820   37.6060   21.5240 O.2    47  PRO47      -0.2868
      5  CB       -59.2330   36.2520   20.4110 C.3    47  PRO47       0.0268
      6  CG       -57.8030   36.5140   20.1090 C.3    47  PRO47       0.0207
      7  CD       -57.4210   37.6470   20.9900 C.3    47  PRO47       0.0892
      8  N        -64.6670   38.9310   21.2520 N.3    51  ILE51      -0.1245
      9  CA       -65.7090   37.9110   21.3600 C.3    51  ILE51       0.1561
     10  C        -66.6630   38.1890   22.5210 C.2    51  ILE51       0.2260
     11  O        -67.8860   38.1630   22.3470 O.2    51  ILE51      -0.2867
     12  CB       -65.1040   36.4940   21.5230 C.3    51  ILE51       0.0252
     13  CG1      -64.7250   35.9150   20.1580 C.3    51  ILE51       0.0019
     14  CG2      -66.0830   35.5580   22.2110 C.3    51  ILE51       0.0019
     15  CD1      -63.4390   35.1180   20.1580 C.3    51  ILE51       0.0001
     16  N        -54.9070   42.5350   11.3370 N.3    75  GLU75      -0.1231
     17  CA       -55.8240   41.8160   10.4520 C.3    75  GLU75       0.1699
     18  C        -56.4890   40.6620   11.2050 C.2    75  GLU75       0.2592
     19  O        -57.5770   40.1710   10.8330 O.2    75  GLU75      -0.2718
     20  CB       -55.0840   41.2890    9.2210 C.3    75  GLU75       0.0402
     21  CG       -54.1380   40.1300    9.5050 C.3    75  GLU75       0.1161
     22  CD       -52.9210   40.5400   10.3110 C.2    75  GLU75       0.3649
     23  OE1      -52.4580   41.6880   10.1510 O.co2  75  GLU75      -0.2457
     24  OE2      -52.4300   39.7140   11.1090 O.co2  75  GLU75      -0.2457
     25  N        -55.8110   40.2040   12.2540 N.am   76  ALA76      -0.1980
     26  CA       -56.3910   39.2090   13.1330 C.3    76  ALA76       0.1597
     27  C        -57.7670   39.6670   13.5910 C.2    76  ALA76       0.2287
     28  O        -58.6340   38.8370   13.8350 O.2    76  ALA76      -0.2864
     29  CB       -55.4850   38.9530   14.3220 C.3    76  ALA76       0.0319
     30  N        -60.1560   38.5360   11.1170 N.3    79  GLN79      -0.1231
     31  CA       -60.4200   37.0960   11.1210 C.3    79  GLN79       0.1698
     32  C        -61.2720   36.6850   12.3230 C.2    79  GLN79       0.2592
     33  O        -62.1460   35.8190   12.2120 O.2    79  GLN79      -0.2718
     34  CB       -59.1270   36.2850   11.0840 C.3    79  GLN79       0.0381
     35  CG       -58.3240   36.4680    9.7990 C.3    79  GLN79       0.0905
     36  CD       -56.8610   36.1160    9.9650 C.2    79  GLN79       0.2608
     37  OE1      -56.3480   36.0760   11.0770 O.2    79  GLN79      -0.2717
     38  NE2      -56.1690   35.9090    8.8470 N.am   79  GLN79      -0.0878
     39  N        -61.0160   37.3190   13.4630 N.am   80  ILE80      -0.1980
     40  CA       -61.8230   37.1480   14.6670 C.3    80  ILE80       0.1595
     41  C        -63.2710   37.4780   14.3580 C.2    80  ILE80       0.2287
     42  O        -64.1780   36.7040   14.6730 O.2    80  ILE80      -0.2864
     43  CB       -61.3160   38.0260   15.8260 C.3    80  ILE80       0.0276
     44  CG1      -59.9770   37.5050   16.3470 C.3    80  ILE80       0.0022
     45  CG2      -62.3330   38.0650   16.9550 C.3    80  ILE80       0.0022
     46  CD1      -59.2670   38.4680   17.2670 C.3    80  ILE80       0.0001
     47  N        -64.9450   34.9620   12.1340 N.3    83  PHE83      -0.1241
     48  CA       -65.2690   33.7840   12.9320 C.3    83  PHE83       0.1605
     49  C        -66.5320   33.9890   13.7610 C.2    83  PHE83       0.2264
     50  O        -67.4000   33.1190   13.7950 O.2    83  PHE83      -0.2867
     51  CB       -64.0860   33.4260   13.8390 C.3    83  PHE83       0.0534
     52  CG       -64.4210   32.4520   14.9350 C.ar   83  PHE83      -0.0203
     53  CD1      -64.3890   31.0870   14.6960 C.ar   83  PHE83      -0.0042
     54  CD2      -64.7330   32.8960   16.2110 C.ar   83  PHE83      -0.0042
     55  CE1      -64.6820   30.1860   15.7010 C.ar   83  PHE83      -0.0003
     56  CE2      -65.0280   31.9980   17.2190 C.ar   83  PHE83      -0.0003
     57  CZ       -65.0020   30.6420   16.9630 C.ar   83  PHE83      -0.0000
     58  N        -45.8560   35.8530    1.7860 N.3   143  THR143     -0.1203
     59  CA       -45.8280   34.8980    2.8890 C.3   143  THR143      0.1994
     60  C        -46.9550   33.8850    2.7330 C.2   143  THR143      0.2618
     61  O        -47.5550   33.7850    1.6630 O.2   143  THR143     -0.2717
     62  CB       -45.9520   35.6020    4.2500 C.3   143  THR143      0.1784
     63  OG1      -47.1580   36.3750    4.2840 O.3   143  THR143     -0.2211
     64  CG2      -44.7640   36.5180    4.4800 C.3   143  THR143      0.0376
     65  N        -47.2490   33.1370    3.7920 N.am  144  TYR144     -0.1961
     66  CA       -48.3750   32.2130    3.7370 C.3   144  TYR144      0.1771
     67  C        -49.6920   32.8800    4.1070 C.2   144  TYR144      0.2620
     68  O        -50.7090   32.2050    4.2350 O.2   144  TYR144     -0.2715
     69  CB       -48.1410   31.0110    4.6540 C.3   144  TYR144      0.0574
     70  CG       -47.1630   29.9940    4.1160 C.ar  144  TYR144     -0.0198
     71  CD1      -47.6010   28.9410    3.3220 C.ar  144  TYR144     -0.0009
     72  CD2      -45.8080   30.0770    4.4060 C.ar  144  TYR144     -0.0009
     73  CE1      -46.7180   28.0030    2.8300 C.ar  144  TYR144      0.0417
     74  CE2      -44.9160   29.1410    3.9150 C.ar  144  TYR144      0.0417
     75  CZ       -45.3770   28.1070    3.1290 C.ar  144  TYR144      0.1957
     76  OH       -44.4950   27.1740    2.6350 O.3   144  TYR144     -0.2866
     77  N        -49.6640   34.1960    4.3050 N.am  145  PHE145     -0.1960
     78  CA       -50.8690   34.9420    4.6520 C.3   145  PHE145      0.1756
     79  C        -51.9590   34.6480    3.6260 C.2   145  PHE145      0.2461
     80  O        -51.6940   34.7050    2.4250 O.2   145  PHE145     -0.2730
     81  CB       -50.5870   36.4410    4.7240 C.3   145  PHE145      0.0574
     82  CG       -51.7360   37.2430    5.2560 C.ar  145  PHE145     -0.0200
     83  CD1      -52.0890   37.1630    6.5920 C.ar  145  PHE145     -0.0042
     84  CD2      -52.4650   38.0730    4.4220 C.ar  145  PHE145     -0.0042
     85  CE1      -53.1460   37.8940    7.0860 C.ar  145  PHE145     -0.0003
     86  CE2      -53.5250   38.8090    4.9120 C.ar  145  PHE145     -0.0003
     87  CZ       -53.8650   38.7210    6.2460 C.ar  145  PHE145     -0.0000
     88  N        -53.1720   34.3070    4.0900 N.am  146  PRO146     -0.2727
     89  CA       -54.2470   33.9120    3.1700 C.3   146  PRO146      0.1402
     90  C        -54.4600   34.9300    2.0530 C.2   146  PRO146      0.2269
     91  O        -54.5270   36.1290    2.3240 O.2   146  PRO146     -0.2865
     92  CB       -55.4760   33.8330    4.0810 C.3   146  PRO146      0.0296
     93  CG       -54.9190   33.5730    5.4360 C.3   146  PRO146      0.0237
     94  CD       -53.6230   34.3190    5.4910 C.3   146  PRO146      0.0939
     95  N        -43.2730   32.3630    7.6490 N.3   176  MET176     -0.1245
     96  CA       -43.1370   33.1420    8.8750 C.3   176  MET176      0.1570
     97  C        -43.5680   32.3710   10.1150 C.2   176  MET176      0.2261
     98  O        -43.6750   32.9460   11.1980 O.2   176  MET176     -0.2867
     99  CB       -43.9550   34.4340    8.7770 C.3   176  MET176      0.0387
    100  CG       -43.5480   35.3840    7.6610 C.3   176  MET176      0.0595
    101  SD       -41.9110   36.1060    7.8850 S.3   176  MET176     -0.1393
    102  CE       -40.9090   35.0350    6.8630 C.3   176  MET176      0.0692
    103  N        -48.2840   40.6400    5.9520 N.3   202  THR202     -0.1218
    104  CA       -48.8880   41.5460    6.9220 C.3   202  THR202      0.1862
    105  C        -47.8950   42.6530    7.2330 C.2   202  THR202      0.2287
    106  O        -46.7250   42.5590    6.8660 O.2   202  THR202     -0.2866
    107  CB       -49.2830   40.8360    8.2280 C.3   202  THR202      0.1770
    108  OG1      -48.1050   40.4450    8.9420 O.3   202  THR202     -0.2211
    109  CG2      -50.1300   39.6160    7.9380 C.3   202  THR202      0.0375
    110  N        -45.1090   41.5490    9.4000 N.3   205  GLU205     -0.1245
    111  CA       -44.2630   40.6740    8.5990 C.3   205  GLU205      0.1567
    112  C        -43.4340   41.5340    7.6640 C.2   205  GLU205      0.2260
    113  O        -42.2430   41.2940    7.4610 O.2   205  GLU205     -0.2867
    114  CB       -45.0880   39.6580    7.8040 C.3   205  GLU205      0.0388
    115  CG       -45.6660   38.5240    8.6320 C.3   205  GLU205      0.1160
    116  CD       -46.6180   37.6530    7.8340 C.2   205  GLU205      0.3649
    117  OE1      -47.2550   38.1750    6.8940 O.co2 205  GLU205     -0.2457
    118  OE2      -46.7290   36.4480    8.1440 O.co2 205  GLU205     -0.2457
@<TRIPOS>BOND
     1    61    60    2
     2    58    59    1
     3    90    91    2
     4    90    89    1
     5    80    79    2
     6    76    75    1
     7    60    59    1
     8    60    65   am
     9    73    75   ar
    10    73    71   ar
    11    59    62    1
    12    75    74   ar
    13    89    92    1
    14    89    88    1
    15    71    70   ar
    16    79    88   am
    17    79    78    1
    18    66    65    1
    19    66    67    1
    20    66    69    1
    21    74    72   ar
    22    92    93    1
    23    88    94    1
    24    67    68    2
    25    67    77   am
    26    70    72   ar
    27    70    69    1
    28    62    63    1
    29    62    64    1
    30    77    78    1
    31    84    86   ar
    32    84    82   ar
    33    78    81    1
    34    81    82    1
    35    86    87   ar
    36    82    83   ar
    37    93    94    1
    38   103   104    1
    39    87    85   ar
    40    83    85   ar
    41   102   101    1
    42   106   105    2
    43   117   116   ar
    44   104   105    1
    45   104   107    1
    46   113   112    2
    47    95    96    1
    48   100   101    1
    49   100    99    1
    50   112   111    1
    51   114   111    1
    52   114   115    1
    53   116   118   ar
    54   116   115    1
    55   109   107    1
    56   107   108    1
    57   111   110    1
    58    99    96    1
    59    38    36   am
    60    96    97    1
    61    20    21    1
    62    20    17    1
    63    21    22    1
    64    35    36    1
    65    35    34    1
    66    36    37    2
    67    97    98    2
    68    23    22   ar
    69    22    24   ar
    70    17    18    1
    71    17    16    1
    72    19    18    2
    73    34    31    1
    74    30    31    1
    75    31    32    1
    76    18    25   am
    77    47    48    1
    78    33    32    2
    79    25    26    1
    80    32    39   am
    81    48    49    1
    82    48    51    1
    83    26    27    1
    84    26    29    1
    85    39    40    1
    86    27    28    2
    87    49    50    2
    88    51    52    1
    89    41    40    1
    90    41    42    2
    91    40    43    1
    92    53    52   ar
    93    53    55   ar
    94    52    54   ar
    95    55    57   ar
    96    43    44    1
    97    43    45    1
    98    54    56   ar
    99    44    46    1
   100    57    56   ar
   101     6     5    1
   102     6     7    1
   103    13    15    1
   104    13    12    1
   105     5     2    1
   106     2     1    1
   107     2     3    1
   108     7     1    1
   109     8     9    1
   110     9    12    1
   111     9    10    1
   112    12    14    1
   113     4     3    2
   114    11    10    2
