@<TRIPOS>MOLECULE
tmp/4pe5A03.pdb
 104 102 0 0 0
SMALL
GASTEIGER

@<TRIPOS>ATOM
      1  N          7.8060   36.3690   22.2850 N.3    46  ALA46      -0.1245
      2  CA         6.7700   35.3380   22.2350 C.3    46  ALA46       0.1562
      3  C          6.5900   34.6610   23.5930 C.2    46  ALA46       0.2260
      4  O          5.4600   34.4740   24.0860 O.2    46  ALA46      -0.2867
      5  CB         7.1050   34.3050   21.1690 C.3    46  ALA46       0.0290
      6  N          5.9210   38.9820   16.5250 N.3    69  PRO69      -0.2116
      7  CA         5.8250   37.8180   17.4220 C.3    69  PRO69       0.1372
      8  C          4.5610   37.7770   18.2850 C.2    69  PRO69       0.2244
      9  O          4.0680   36.6940   18.6170 O.2    69  PRO69      -0.2868
     10  CB         7.0560   37.9680   18.3210 C.3    69  PRO69       0.0268
     11  CG         8.0050   38.7880   17.5380 C.3    69  PRO69       0.0207
     12  CD         7.1590   39.7470   16.7670 C.3    69  PRO69       0.0892
     13  N          1.5790   39.1150   17.3730 N.3    71  SER71      -0.1202
     14  CA         0.4910   38.7730   16.4710 C.3    71  SER71       0.2020
     15  C          0.4720   37.2800   16.1930 C.2    71  SER71       0.2619
     16  O         -0.5790   36.6540   16.2630 O.2    71  SER71      -0.2717
     17  CB         0.6160   39.5460   15.1570 C.3    71  SER71       0.2103
     18  OG        -0.3620   39.1230   14.2230 O.3    71  SER71      -0.2182
     19  N          1.6200   36.7230   15.8250 N.am   72  TYR72      -0.1961
     20  CA         1.7400   35.2790   15.6440 C.3    72  TYR72       0.1771
     21  C          1.3110   34.4750   16.8750 C.2    72  TYR72       0.2620
     22  O          0.4790   33.5650   16.7770 O.2    72  TYR72      -0.2715
     23  CB         3.1790   34.9070   15.2820 C.3    72  TYR72       0.0574
     24  CG         3.6230   35.3190   13.8970 C.ar   72  TYR72      -0.0198
     25  CD1        2.7270   35.8570   12.9850 C.ar   72  TYR72      -0.0009
     26  CD2        4.9430   35.1540   13.5000 C.ar   72  TYR72      -0.0009
     27  CE1        3.1360   36.2270   11.7190 C.ar   72  TYR72       0.0417
     28  CE2        5.3610   35.5190   12.2370 C.ar   72  TYR72       0.0417
     29  CZ         4.4550   36.0560   11.3500 C.ar   72  TYR72       0.1957
     30  OH         4.8770   36.4230   10.0930 O.3    72  TYR72      -0.2866
     31  N          1.8630   34.8330   18.0350 N.am   73  THR73      -0.1951
     32  CA         1.6110   34.0760   19.2610 C.3    73  THR73       0.1897
     33  C          0.1520   34.1640   19.6970 C.2    73  THR73       0.2313
     34  O         -0.4640   33.1550   20.0430 O.2    73  THR73      -0.2863
     35  CB         2.5100   34.5520   20.4150 C.3    73  THR73       0.1794
     36  OG1        3.8860   34.3900   20.0500 O.3    73  THR73      -0.2208
     37  CG2        2.2260   33.7500   21.6760 C.3    73  THR73       0.0378
     38  N         -2.3420   35.0660   17.8480 N.3    75  GLY75      -0.1210
     39  CA        -3.1410   34.5450   16.7550 C.3    75  GLY75       0.1956
     40  C         -3.1650   33.0320   16.7550 C.2    75  GLY75       0.2611
     41  O         -4.0660   32.4260   16.1710 O.2    75  GLY75      -0.2717
     42  N         -2.1640   32.4190   17.3860 N.am   76  PHE76      -0.1976
     43  CA        -2.1330   30.9650   17.5250 C.3    76  PHE76       0.1639
     44  C         -3.4140   30.5380   18.2300 C.2    76  PHE76       0.2290
     45  O         -4.0020   29.5020   17.9150 O.2    76  PHE76      -0.2864
     46  CB        -0.8910   30.5050   18.3020 C.3    76  PHE76       0.0560
     47  CG        -0.8350   29.0170   18.5500 C.ar   76  PHE76      -0.0200
     48  CD1       -1.5270   28.4430   19.6080 C.ar   76  PHE76      -0.0042
     49  CD2       -0.0900   28.1930   17.7230 C.ar   76  PHE76      -0.0042
     50  CE1       -1.4760   27.0810   19.8340 C.ar   76  PHE76      -0.0003
     51  CE2       -0.0350   26.8290   17.9470 C.ar   76  PHE76      -0.0003
     52  CZ        -0.7300   26.2730   19.0020 C.ar   76  PHE76      -0.0000
     53  N         -5.9490   32.7750   18.4800 N.3    78  ARG78      -0.1245
     54  CA        -6.9420   33.7080   17.9350 C.3    78  ARG78       0.1563
     55  C         -7.3180   34.7720   18.9600 C.2    78  ARG78       0.2260
     56  O         -8.4320   35.2930   18.9510 O.2    78  ARG78      -0.2867
     57  CB        -8.1930   32.9790   17.4260 C.3    78  ARG78       0.0307
     58  CG        -7.8970   31.7700   16.5550 C.3    78  ARG78       0.0489
     59  CD        -7.3180   32.1840   15.2100 C.3    78  ARG78       0.2205
     60  NE        -7.3930   31.1050   14.2290 N.pl3  78  ARG78      -0.0865
     61  CZ        -6.4380   30.2000   14.0410 C.cat  78  ARG78       0.5346
     62  NH1       -5.3300   30.2430   14.7690 N.pl3  78  ARG78       0.1354
     63  NH2       -6.5920   29.2500   13.1300 N.pl3  78  ARG78       0.1354
     64  N         -4.5620   39.1980    6.3150 N.3    94  LYS94      -0.1231
     65  CA        -5.2750   38.2210    7.1350 C.3    94  LYS94       0.1693
     66  C         -4.6290   36.8330    7.1300 C.2    94  LYS94       0.2593
     67  O         -4.7010   36.1070    8.1220 O.2    94  LYS94      -0.2718
     68  CB        -6.7290   38.1100    6.6710 C.3    94  LYS94       0.0285
     69  CG        -7.5100   39.4090    6.8310 C.3    94  LYS94       0.0035
     70  CD        -7.8310   39.6490    8.2990 C.3    94  LYS94       0.0206
     71  CE        -8.7200   40.8870    8.4080 C.3    94  LYS94       0.1093
     72  NZ        -8.4650   41.6070    9.6880 N.3    94  LYS94      -0.1314
     73  N         -4.0070   36.4680    6.0120 N.am   95  SER95      -0.1938
     74  CA        -3.2920   35.1980    5.9070 C.3    95  SER95       0.2055
     75  C         -2.1710   35.0360    6.9300 C.2    95  SER95       0.2643
     76  O         -1.9570   33.9440    7.4530 O.2    95  SER95      -0.2714
     77  CB        -2.7160   35.0320    4.4990 C.3    95  SER95       0.2130
     78  OG        -3.7040   35.2740    3.5130 O.3    95  SER95      -0.2179
     79  N         -1.4590   36.1200    7.2170 N.am   96  ILE96      -0.1963
     80  CA        -0.3050   36.0400    8.1030 C.3    96  ILE96       0.1727
     81  C         -0.6710   36.4970    9.5100 C.2    96  ILE96       0.2616
     82  O         -0.2630   35.8950   10.5020 O.2    96  ILE96      -0.2715
     83  CB         0.8620   36.8920    7.5690 C.3    96  ILE96       0.0290
     84  CG1        1.2010   36.4870    6.1340 C.3    96  ILE96       0.0022
     85  CG2        2.0800   36.7600    8.4610 C.3    96  ILE96       0.0023
     86  CD1        2.0570   37.4960    5.4040 C.3    96  ILE96       0.0001
     87  N         -1.4210   37.5900    9.5810 N.am   97  HIS97      -0.1959
     88  CA        -1.8520   38.1670   10.8490 C.3    97  HIS97       0.1787
     89  C         -3.3610   38.0500   11.0190 C.2    97  HIS97       0.2620
     90  O         -4.1130   38.9640   10.6780 O.2    97  HIS97      -0.2715
     91  CB        -1.3710   39.6090   10.9690 C.3    97  HIS97       0.0785
     92  CG         0.1080   39.7460   10.8020 C.ar   97  HIS97       0.0821
     93  ND1        0.9990   39.3970   11.7940 N.ar   97  HIS97      -0.2267
     94  CD2        0.8570   40.1580    9.7520 C.ar   97  HIS97       0.1154
     95  CE1        2.2320   39.6020   11.3680 C.ar   97  HIS97       0.1986
     96  NE2        2.1740   40.0650   10.1320 N.ar   97  HIS97      -0.2212
     97  N         -3.7900   36.9130   11.5540 N.am   98  LEU98      -0.1977
     98  CA        -5.1810   36.4840   11.4880 C.3    98  LEU98       0.1596
     99  C         -6.1010   37.3460   12.3340 C.2    98  LEU98       0.2287
    100  O         -7.2350   37.6060   11.9450 O.2    98  LEU98      -0.2864
    101  CB        -5.3200   35.0310   11.9350 C.3    98  LEU98       0.0297
    102  CG        -5.7890   34.0240   10.8870 C.3    98  LEU98       0.0022
    103  CD1       -5.9560   32.6620   11.5360 C.3    98  LEU98       0.0001
    104  CD2       -7.0770   34.4730   10.2160 C.3    98  LEU98       0.0001
@<TRIPOS>BOND
     1    78    77    1
     2    77    74    1
     3    86    84    1
     4    74    73    1
     5    74    75    1
     6    73    66   am
     7    84    83    1
     8    64    65    1
     9    68    69    1
    10    68    65    1
    11    69    70    1
    12    75    79   am
    13    75    76    2
    14    66    65    1
    15    66    67    2
    16    79    80    1
    17    83    80    1
    18    83    85    1
    19    80    81    1
    20    70    71    1
    21    71    72    1
    22    81    87   am
    23    81    82    2
    24    87    88    1
    25    94    96   ar
    26    94    92   ar
    27    30    29    1
    28    96    95   ar
    29   104   102    1
    30    90    89    2
    31    92    91    1
    32    92    93   ar
    33    88    91    1
    34    88    89    1
    35   102   103    1
    36   102   101    1
    37    89    97   am
    38    29    27   ar
    39    29    28   ar
    40    95    93   ar
    41    98    97    1
    42    98   101    1
    43    98    99    1
    44    27    25   ar
    45   100    99    2
    46    28    26   ar
    47    25    24   ar
    48    63    61    1
    49    26    24   ar
    50    24    23    1
    51    61    60    2
    52    61    62    1
    53    18    17    1
    54    60    59    1
    55    17    14    1
    56    59    58    1
    57    23    20    1
    58    20    19    1
    59    20    21    1
    60    19    15   am
    61    41    40    2
    62    15    16    2
    63    15    14    1
    64    14    13    1
    65     6    12    1
    66     6     7    1
    67    58    57    1
    68    40    39    1
    69    40    42   am
    70    39    38    1
    71    12    11    1
    72    22    21    2
    73    21    31   am
    74    42    43    1
    75     7     8    1
    76     7    10    1
    77    57    54    1
    78    43    44    1
    79    43    46    1
    80    11    10    1
    81    49    51   ar
    82    49    47   ar
    83    45    44    2
    84    54    53    1
    85    54    55    1
    86    51    52   ar
    87    31    32    1
    88     8     9    2
    89    46    47    1
    90    47    48   ar
    91    56    55    2
    92    52    50   ar
    93    32    33    1
    94    32    35    1
    95    48    50   ar
    96    33    34    2
    97    36    35    1
    98    35    37    1
    99     5     2    1
   100     2     1    1
   101     2     3    1
   102     3     4    2
