@<TRIPOS>MOLECULE
tmp/4pe5D02.pdb
 105 100 0 0 0
SMALL
GASTEIGER

@<TRIPOS>ATOM
      1  N        -32.0830   66.2010  -36.7710 N.3   437  HIS437     -0.1241
      2  CA       -30.6490   65.9410  -36.6930 C.3   437  HIS437      0.1621
      3  C        -29.8950   67.1630  -36.1810 C.2   437  HIS437      0.2264
      4  O        -30.4900   68.2100  -35.9270 O.2   437  HIS437     -0.2867
      5  CB       -30.0990   65.5230  -38.0590 C.3   437  HIS437      0.0745
      6  CG       -30.5440   64.1640  -38.5020 C.ar  437  HIS437      0.0817
      7  ND1      -29.9800   63.0030  -38.0190 N.ar  437  HIS437     -0.2268
      8  CD2      -31.4910   63.7810  -39.3900 C.ar  437  HIS437      0.1154
      9  CE1      -30.5640   61.9630  -38.5860 C.ar  437  HIS437      0.1986
     10  NE2      -31.4850   62.4080  -39.4230 N.ar  437  HIS437     -0.2212
     11  N        -29.4270   57.2540  -35.7270 N.3   463  SER463     -0.1202
     12  CA       -28.6450   57.5460  -36.9230 C.3   463  SER463      0.2020
     13  C        -27.9880   58.9170  -36.8100 C.2   463  SER463      0.2619
     14  O        -28.5840   59.9320  -37.1670 O.2   463  SER463     -0.2717
     15  CB       -29.5270   57.4840  -38.1710 C.3   463  SER463      0.2103
     16  OG       -30.5360   58.4770  -38.1310 O.3   463  SER463     -0.2182
     17  N        -26.7580   58.9370  -36.3090 N.am  464  LEU464     -0.1965
     18  CA       -26.0490   60.1890  -36.0790 C.3   464  LEU464      0.1728
     19  C        -24.6340   60.1420  -36.6500 C.2   464  LEU464      0.2616
     20  O        -23.7450   59.5100  -36.0800 O.2   464  LEU464     -0.2715
     21  CB       -26.0070   60.5030  -34.5830 C.3   464  LEU464      0.0311
     22  CG       -25.4620   61.8710  -34.1740 C.3   464  LEU464      0.0022
     23  CD1      -26.2790   62.9830  -34.8100 C.3   464  LEU464      0.0001
     24  CD2      -25.4660   61.9990  -32.6630 C.3   464  LEU464      0.0001
     25  N        -24.4350   60.8180  -37.7770 N.am  465  THR465     -0.1951
     26  CA       -23.1410   60.8350  -38.4510 C.3   465  THR465      0.1897
     27  C        -22.1000   61.6090  -37.6480 C.2   465  THR465      0.2313
     28  O        -22.3600   62.7180  -37.1820 O.2   465  THR465     -0.2863
     29  CB       -23.2550   61.4490  -39.8600 C.3   465  THR465      0.1794
     30  OG1      -24.2340   60.7300  -40.6200 O.3   465  THR465     -0.2208
     31  CG2      -21.9190   61.3920  -40.5830 C.3   465  THR465      0.0378
     32  N        -19.5650   68.4270  -35.1880 N.3   470  ARG470     -0.1245
     33  CA       -20.3510   68.0560  -34.0160 C.3   470  ARG470      0.1563
     34  C        -19.4750   67.5650  -32.8670 C.2   470  ARG470      0.2260
     35  O        -19.8260   67.7220  -31.6990 O.2   470  ARG470     -0.2867
     36  CB       -21.3750   66.9810  -34.3850 C.3   470  ARG470      0.0307
     37  CG       -22.3850   67.4280  -35.4290 C.3   470  ARG470      0.0489
     38  CD       -23.1970   66.2560  -35.9490 C.3   470  ARG470      0.2205
     39  NE       -24.1270   66.6630  -36.9970 N.pl3 470  ARG470     -0.0865
     40  CZ       -24.8650   65.8190  -37.7110 C.cat 470  ARG470      0.5346
     41  NH1      -24.7800   64.5140  -37.4920 N.pl3 470  ARG470      0.1354
     42  NH2      -25.6850   66.2790  -38.6450 N.pl3 470  ARG470      0.1354
     43  N        -30.9910   66.5260  -48.3380 N.3   579  VAL579     -0.1245
     44  CA       -31.8190   67.0480  -47.2580 C.3   579  VAL579      0.1561
     45  C        -31.1430   68.2390  -46.5850 C.2   579  VAL579      0.2260
     46  O        -29.9170   68.2900  -46.4770 O.2   579  VAL579     -0.2867
     47  CB       -32.1260   65.9660  -46.2010 C.3   579  VAL579      0.0252
     48  CG1      -32.9190   64.8290  -46.8260 C.3   579  VAL579      0.0019
     49  CG2      -30.8430   65.4500  -45.5700 C.3   579  VAL579      0.0019
     50  N        -28.4050   68.5100  -43.0060 N.3   582  GLY582     -0.1210
     51  CA       -27.8790   67.1640  -42.8830 C.3   582  GLY582      0.1956
     52  C        -26.3650   67.1630  -42.8380 C.2   582  GLY582      0.2613
     53  O        -25.7270   68.1780  -43.1220 O.2   582  GLY582     -0.2717
     54  N        -25.7870   66.0230  -42.4760 N.am  583  SER583     -0.1938
     55  CA       -24.3370   65.8820  -42.4450 C.3   583  SER583      0.2055
     56  C        -23.7750   65.9460  -43.8590 C.2   583  SER583      0.2643
     57  O        -22.6870   66.4780  -44.0840 O.2   583  SER583     -0.2714
     58  CB       -23.9320   64.5700  -41.7720 C.3   583  SER583      0.2130
     59  OG       -24.3830   63.4550  -42.5200 O.3   583  SER583     -0.2179
     60  N        -24.5300   65.4020  -44.8090 N.am  584  THR584     -0.1950
     61  CA       -24.1320   65.4100  -46.2110 C.3   584  THR584      0.1897
     62  C        -24.1120   66.8300  -46.7660 C.2   584  THR584      0.2313
     63  O        -23.2570   67.1710  -47.5820 O.2   584  THR584     -0.2863
     64  CB       -25.0710   64.5450  -47.0720 C.3   584  THR584      0.1794
     65  OG1      -26.4180   65.0140  -46.9340 O.3   584  THR584     -0.2208
     66  CG2      -25.0000   63.0890  -46.6390 C.3   584  THR584      0.0378
     67  N        -27.2890   61.1950  -50.1070 N.3   624  TYR624     -0.1227
     68  CA       -27.7420   61.0280  -48.7310 C.3   624  TYR624      0.1736
     69  C        -26.8260   60.0540  -47.9890 C.2   624  TYR624      0.2595
     70  O        -25.8390   59.5780  -48.5500 O.2   624  TYR624     -0.2718
     71  CB       -29.1980   60.5440  -48.7130 C.3   624  TYR624      0.0548
     72  CG       -29.8880   60.6410  -47.3680 C.ar  624  TYR624     -0.0200
     73  CD1      -30.2030   61.8750  -46.8150 C.ar  624  TYR624     -0.0009
     74  CD2      -30.2330   59.4980  -46.6580 C.ar  624  TYR624     -0.0009
     75  CE1      -30.8340   61.9660  -45.5890 C.ar  624  TYR624      0.0417
     76  CE2      -30.8610   59.5800  -45.4310 C.ar  624  TYR624      0.0417
     77  CZ       -31.1590   60.8160  -44.9020 C.ar  624  TYR624      0.1957
     78  OH       -31.7880   60.9040  -43.6810 O.3   624  TYR624     -0.2866
     79  N        -27.1500   59.7760  -46.7290 N.am  625  ASP625     -0.1974
     80  CA       -26.3790   58.8560  -45.8960 C.3   625  ASP625      0.1709
     81  C        -26.2100   57.4890  -46.5550 C.2   625  ASP625      0.2293
     82  O        -27.1180   56.9940  -47.2230 O.2   625  ASP625     -0.2864
     83  CB       -27.0490   58.7000  -44.5280 C.3   625  ASP625      0.1436
     84  CG       -26.2790   57.7810  -43.6030 C.2   625  ASP625      0.3671
     85  OD1      -25.3710   58.2700  -42.8990 O.co2 625  ASP625     -0.2456
     86  OD2      -26.5810   56.5700  -43.5780 O.co2 625  ASP625     -0.2456
     87  N        -28.4340   54.3570  -44.7750 N.3   628  VAL628     -0.1245
     88  CA       -29.8580   54.5160  -45.0480 C.3   628  VAL628      0.1561
     89  C        -30.1820   54.1740  -46.5000 C.2   628  VAL628      0.2260
     90  O        -31.1830   53.5170  -46.7860 O.2   628  VAL628     -0.2867
     91  CB       -30.3310   55.9520  -44.7470 C.3   628  VAL628      0.0252
     92  CG1      -31.8330   56.0760  -44.9550 C.3   628  VAL628      0.0019
     93  CG2      -29.9540   56.3460  -43.3280 C.3   628  VAL628      0.0019
     94  N        -21.7590   56.0640  -37.8870 N.3   655  TYR655     -0.1241
     95  CA       -22.6950   56.5420  -36.8750 C.3   655  TYR655      0.1605
     96  C        -22.0440   56.5420  -35.4980 C.2   655  TYR655      0.2264
     97  O        -20.8930   56.1390  -35.3470 O.2   655  TYR655     -0.2867
     98  CB       -23.9600   55.6820  -36.8560 C.3   655  TYR655      0.0534
     99  CG       -24.9360   55.9960  -37.9660 C.ar  655  TYR655     -0.0201
    100  CD1      -24.8620   57.1930  -38.6650 C.ar  655  TYR655     -0.0009
    101  CD2      -25.9360   55.0970  -38.3100 C.ar  655  TYR655     -0.0009
    102  CE1      -25.7550   57.4850  -39.6790 C.ar  655  TYR655      0.0417
    103  CE2      -26.8330   55.3800  -39.3220 C.ar  655  TYR655      0.0417
    104  CZ       -26.7370   56.5740  -40.0030 C.ar  655  TYR655      0.1957
    105  OH       -27.6300   56.8580  -41.0100 O.3   655  TYR655     -0.2866
@<TRIPOS>BOND
     1    67    68    1
     2    68    71    1
     3    68    69    1
     4    71    72    1
     5    70    69    2
     6    43    44    1
     7    69    79   am
     8    63    62    2
     9    72    73   ar
    10    72    74   ar
    11    44    45    1
    12    44    47    1
    13    82    81    2
    14    64    65    1
    15    64    66    1
    16    64    61    1
    17    48    47    1
    18    73    75   ar
    19    90    89    2
    20    62    61    1
    21    79    80    1
    22    74    76   ar
    23    45    46    2
    24    81    80    1
    25    89    88    1
    26    61    60    1
    27    47    49    1
    28    80    83    1
    29    75    77   ar
    30    76    77   ar
    31    88    87    1
    32    88    91    1
    33    92    91    1
    34    77    78    1
    35    60    56   am
    36    91    93    1
    37    83    84    1
    38    57    56    2
    39    56    55    1
    40    84    86   ar
    41    84    85   ar
    42    53    52    2
    43    50    51    1
    44    51    52    1
    45    52    54   am
    46    59    58    1
    47    54    55    1
    48    55    58    1
    49   105   104    1
    50    30    29    1
    51    31    29    1
    52   104   102   ar
    53   104   103   ar
    54    29    26    1
    55   102   100   ar
    56    10     8   ar
    57    10     9   ar
    58     8     6   ar
    59   103   101   ar
    60   100    99   ar
    61    42    40    1
    62     9     7   ar
    63     6     5    1
    64     6     7   ar
    65    26    25    1
    66    26    27    1
    67   101    99   ar
    68    15    16    1
    69    15    12    1
    70     5     2    1
    71    99    98    1
    72    94    95    1
    73    25    19   am
    74    40    41    1
    75    40    39    2
    76    27    28    2
    77    14    13    2
    78    39    38    1
    79    12    13    1
    80    12    11    1
    81    95    98    1
    82    95    96    1
    83    13    17   am
    84     1     2    1
    85     2     3    1
    86    19    20    2
    87    19    18    1
    88    17    18    1
    89     3     4    2
    90    18    21    1
    91    38    37    1
    92    96    97    2
    93    37    36    1
    94    32    33    1
    95    23    22    1
    96    21    22    1
    97    36    33    1
    98    22    24    1
    99    33    34    1
   100    34    35    2
