@<TRIPOS>MOLECULE
tmp/4pe6B00.pdb
 113 109 0 0 0
SMALL
GASTEIGER

@<TRIPOS>ATOM
      1  N         15.4650   19.0480   52.3250 N.3    13  ASN13      -0.1240
      2  CA        16.8280   19.3690   51.9130 C.3    13  ASN13       0.1653
      3  C         16.8230   20.0700   50.5480 C.2    13  ASN13       0.2266
      4  O         15.8290   20.0150   49.7960 O.2    13  ASN13      -0.2867
      5  CB        17.7830   18.1410   51.9850 C.3    13  ASN13       0.1155
      6  CG        17.5470   17.1220   50.8830 C.2    13  ASN13       0.2627
      7  OD1       17.3220   17.4850   49.7290 O.2    13  ASN13      -0.2716
      8  ND2       17.6610   15.8280   51.2230 N.am   13  ASN13      -0.0877
      9  N         18.5040   19.5670   47.7960 N.3    15  TRP15      -0.1227
     10  CA        18.5300   18.6580   46.6490 C.3    15  TRP15       0.1737
     11  C         17.1030   18.3610   46.2170 C.2    15  TRP15       0.2595
     12  O         16.7620   18.4830   45.0240 O.2    15  TRP15      -0.2718
     13  CB        19.2690   17.3370   47.0270 C.3    15  TRP15       0.0564
     14  CG        19.4930   16.3840   45.9140 C.ar   15  TRP15       0.0003
     15  CD1       20.6440   16.2200   45.1960 C.ar   15  TRP15       0.0946
     16  CD2       18.5560   15.4060   45.4020 C.ar   15  TRP15       0.0152
     17  NE1       20.4490   15.2580   44.2370 N.ar   15  TRP15      -0.2442
     18  CE2       19.1970   14.7220   44.3700 C.ar   15  TRP15       0.0810
     19  CE3       17.2380   15.0590   45.7250 C.ar   15  TRP15       0.0012
     20  CZ2       18.5710   13.7310   43.6330 C.ar   15  TRP15       0.0191
     21  CZ3       16.6040   14.0750   44.9840 C.ar   15  TRP15       0.0001
     22  CH2       17.2760   13.4080   43.9610 C.ar   15  TRP15       0.0015
     23  N         16.2560   18.0040   47.1850 N.am   16  ARG16      -0.1980
     24  CA        14.8610   17.7250   46.9120 C.3    16  ARG16       0.1597
     25  C         14.1610   18.9970   46.3610 C.2    16  ARG16       0.2287
     26  O         13.3370   18.9160   45.4760 O.2    16  ARG16      -0.2864
     27  CB        14.1490   17.1890   48.1490 C.3    16  ARG16       0.0334
     28  CG        14.6110   15.8120   48.6410 C.3    16  ARG16       0.0492
     29  CD        14.1460   14.6580   47.7280 C.3    16  ARG16       0.2205
     30  NE        14.6490   13.3800   48.2360 N.pl3  16  ARG16      -0.0865
     31  CZ        13.9130   12.3850   48.7350 C.cat  16  ARG16       0.5346
     32  NH1       12.5850   12.4350   48.7820 N.pl3  16  ARG16       0.1354
     33  NH2       14.5340   11.3120   49.2030 N.pl3  16  ARG16       0.1354
     34  N         14.4210    7.9860   41.7340 N.3    95  ASP95      -0.1239
     35  CA        15.3690    8.2510   42.8020 C.3    95  ASP95       0.1674
     36  C         15.2730    7.1960   43.9200 C.2    95  ASP95       0.2266
     37  O         15.4610    7.4790   45.0890 O.2    95  ASP95      -0.2867
     38  CB        15.1960    9.6750   43.3080 C.3    95  ASP95       0.1410
     39  CG        16.2640   10.0770   44.3050 C.2    95  ASP95       0.3668
     40  OD1       17.4470    9.8580   44.0030 O.co2  95  ASP95      -0.2456
     41  OD2       15.9010   10.6210   45.3850 O.co2  95  ASP95      -0.2456
     42  N         23.3620    4.4810   43.5700 N.3   110  PHE110     -0.1241
     43  CA        23.6050    4.9660   44.9250 C.3   110  PHE110      0.1605
     44  C         24.8810    4.3030   45.4340 C.2   110  PHE110      0.2264
     45  O         25.6440    4.8930   46.1920 O.2   110  PHE110     -0.2867
     46  CB        22.3940    4.6630   45.7760 C.3   110  PHE110      0.0534
     47  CG        21.1300    5.2160   45.1900 C.ar  110  PHE110     -0.0203
     48  CD1       21.0120    6.5920   44.9610 C.ar  110  PHE110     -0.0042
     49  CD2       20.0790    4.3830   44.8260 C.ar  110  PHE110     -0.0042
     50  CE1       19.8620    7.1030   44.3980 C.ar  110  PHE110     -0.0003
     51  CE2       18.9210    4.9020   44.2680 C.ar  110  PHE110     -0.0003
     52  CZ        18.8270    6.2590   44.0380 C.ar  110  PHE110     -0.0000
     53  N         27.7290    6.4840   44.0940 N.3   113  TRP113     -0.1241
     54  CA        27.8180    7.7370   44.8540 C.3   113  TRP113      0.1605
     55  C         28.5040    7.4680   46.1920 C.2   113  TRP113      0.2264
     56  O         29.4860    8.1230   46.5360 O.2   113  TRP113     -0.2867
     57  CB        26.4180    8.2940   45.0610 C.3   113  TRP113      0.0550
     58  CG        26.2570    9.4290   45.9880 C.ar  113  TRP113      0.0003
     59  CD1       27.2290   10.1300   46.6480 C.ar  113  TRP113      0.0946
     60  CD2       25.0160   10.0320   46.3510 C.ar  113  TRP113      0.0152
     61  NE1       26.6600   11.1160   47.4180 N.ar  113  TRP113     -0.2442
     62  CE2       25.3060   11.0900   47.2390 C.ar  113  TRP113      0.0810
     63  CE3       23.6880    9.7910   46.0040 C.ar  113  TRP113      0.0012
     64  CZ2       24.3040   11.8890   47.8040 C.ar  113  TRP113      0.0191
     65  CZ3       22.6900   10.5970   46.5650 C.ar  113  TRP113      0.0001
     66  CH2       23.0180   11.6460   47.4400 C.ar  113  TRP113      0.0015
     67  N         19.0770   10.5130   53.9150 N.3   137  VAL137     -0.1245
     68  CA        17.6450   10.5340   54.1480 C.3   137  VAL137      0.1561
     69  C         17.2260    9.2090   54.7640 C.2   137  VAL137      0.2260
     70  O         16.7470    8.2870   54.0710 O.2   137  VAL137     -0.2867
     71  CB        16.8540   10.8570   52.8570 C.3   137  VAL137      0.0252
     72  CG1       15.3670   10.9110   53.1370 C.3   137  VAL137      0.0019
     73  CG2       17.3370   12.1880   52.2610 C.3   137  VAL137      0.0019
     74  N         14.7600    6.0410   53.8200 N.3   140  SER140     -0.1217
     75  CA        14.6410    5.8290   52.3790 C.3   140  SER140      0.1889
     76  C         15.4870    4.6320   51.9300 C.2   140  SER140      0.2288
     77  O         16.4200    4.2250   52.6110 O.2   140  SER140     -0.2866
     78  CB        15.0130    7.0830   51.5980 C.3   140  SER140      0.2089
     79  OG        16.4120    7.2880   51.5230 O.3   140  SER140     -0.2183
     80  N         17.5050    4.4680   49.1210 N.3   142  PRO142     -0.2102
     81  CA        18.8860    4.8090   48.7600 C.3   142  PRO142      0.1504
     82  C         19.7850    5.0490   49.9690 C.2   142  PRO142      0.2575
     83  O         20.9510    4.6190   49.9640 O.2   142  PRO142     -0.2718
     84  CB        18.7350    6.0850   47.9150 C.3   142  PRO142      0.0282
     85  CG        17.3560    6.0870   47.4660 C.3   142  PRO142      0.0208
     86  CD        16.5660    5.4570   48.5720 C.3   142  PRO142      0.0893
     87  N         19.2650    5.7060   51.0030 N.am  143  GLU143     -0.1980
     88  CA        20.0800    5.9550   52.2070 C.3   143  GLU143      0.1602
     89  C         20.5250    4.6370   52.8380 C.2   143  GLU143      0.2287
     90  O         21.6470    4.5260   53.2520 O.2   143  GLU143     -0.2864
     91  CB        19.3360    6.7430   53.2650 C.3   143  GLU143      0.0415
     92  CG        20.2360    7.2450   54.3990 C.3   143  GLU143      0.1163
     93  CD        20.6460    6.1690   55.4130 C.2   143  GLU143      0.3649
     94  OE1       19.8320    5.2750   55.7260 O.co2 143  GLU143     -0.2457
     95  OE2       21.7770    6.2730   55.9350 O.co2 143  GLU143     -0.2457
     96  N         20.8240   14.7160   54.3410 N.3   168  CYS168     -0.1235
     97  CA        21.4390   15.4280   53.2020 C.3   168  CYS168      0.1677
     98  C         21.0890   16.9140   53.2180 C.2   168  CYS168      0.2270
     99  O         20.8570   17.5320   52.1580 O.2   168  CYS168     -0.2867
    100  CB        21.0770   14.8040   51.8360 C.3   168  CYS168      0.0956
    101  SG        21.0480   12.9930   51.7860 S.3   168  CYS168     -0.0801
    102  N         26.2860   12.9580   53.2230 N.3   193  CYS193     -0.1235
    103  CA        25.4040   12.9780   52.0750 C.3   193  CYS193      0.1677
    104  C         25.1950   14.4200   51.5830 C.2   193  CYS193      0.2270
    105  O         24.2510   15.0720   52.0080 O.2   193  CYS193     -0.2867
    106  CB        24.0420   12.4140   52.4660 C.3   193  CYS193      0.0956
    107  SG        22.8720   12.4200   51.0900 S.3   193  CYS193     -0.0801
    108  N         23.5530   12.2710   43.6470 N.3   238  SER238     -0.1217
    109  CA        22.6510   11.9010   42.5750 C.3   238  SER238      0.1889
    110  C         22.1570   13.1410   41.8210 C.2   238  SER238      0.2288
    111  O         22.4100   14.3060   42.2420 O.2   238  SER238     -0.2866
    112  CB        21.4600   11.1750   43.1740 C.3   238  SER238      0.2089
    113  OG        20.8940   11.9360   44.2180 O.3   238  SER238     -0.2183
@<TRIPOS>BOND
     1    34    35    1
     2   110   111    2
     3   110   109    1
     4   109   112    1
     5   109   108    1
     6    35    38    1
     7    35    36    1
     8   112   113    1
     9    38    39    1
    10    42    43    1
    11    20    22   ar
    12    20    18   ar
    13    36    37    2
    14    22    21   ar
    15    40    39   ar
    16    52    51   ar
    17    52    50   ar
    18    53    54    1
    19    17    18   ar
    20    17    15   ar
    21    51    49   ar
    22    39    41   ar
    23    18    16   ar
    24    50    48   ar
    25    49    47   ar
    26    54    57    1
    27    54    55    1
    28    43    44    1
    29    43    46    1
    30    48    47   ar
    31    21    19   ar
    32    12    11    2
    33    57    58    1
    34    47    46    1
    35    15    14   ar
    36    16    19   ar
    37    16    14   ar
    38    44    45    2
    39    26    25    2
    40    14    13    1
    41    58    60   ar
    42    58    59   ar
    43    63    60   ar
    44    63    65   ar
    45    55    56    2
    46    11    10    1
    47    11    23   am
    48    60    62   ar
    49    25    24    1
    50    65    66   ar
    51    59    61   ar
    52    10    13    1
    53    10     9    1
    54    24    23    1
    55    24    27    1
    56    62    61   ar
    57    62    64   ar
    58    66    64   ar
    59    85    84    1
    60    85    86    1
    61    29    30    1
    62    29    28    1
    63    84    81    1
    64    27    28    1
    65    30    31    2
    66    86    80    1
    67    31    32    1
    68    31    33    1
    69    81    80    1
    70    81    82    1
    71     7     6    2
    72     4     3    2
    73    83    82    2
    74    82    87   am
    75     3     2    1
    76     6     8   am
    77     6     5    1
    78    87    88    1
    79   107   101    1
    80   107   106    1
    81    79    78    1
    82   104   105    2
    83   104   103    1
    84    78    75    1
    85   101   100    1
    86   100    97    1
    87     2     5    1
    88     2     1    1
    89    76    75    1
    90    76    77    2
    91   103   106    1
    92   103   102    1
    93    99    98    2
    94    88    89    1
    95    88    91    1
    96    73    71    1
    97    75    74    1
    98    89    90    2
    99    71    72    1
   100    71    68    1
   101    97    98    1
   102    97    96    1
   103    91    92    1
   104    67    68    1
   105    70    69    2
   106    68    69    1
   107    92    93    1
   108    93    94   ar
   109    93    95   ar
