@<TRIPOS>MOLECULE
tmp/4pe8A00.pdb
 198 190 0 0 0
SMALL
GASTEIGER

@<TRIPOS>ATOM
      1  N         -9.0970    2.4450   18.3790 N.3     7  ASN7       -0.1240
      2  CA        -9.5310    3.8180   18.6040 C.3     7  ASN7        0.1653
      3  C         -8.6340    4.4860   19.6410 C.2     7  ASN7        0.2266
      4  O         -9.0610    4.7530   20.7630 O.2     7  ASN7       -0.2867
      5  CB       -10.9920    3.8600   19.0630 C.3     7  ASN7        0.1155
      6  CG       -11.9540    3.3170   18.0180 C.2     7  ASN7        0.2627
      7  OD1      -12.6480    4.0780   17.3430 O.2     7  ASN7       -0.2716
      8  ND2      -12.0010    1.9950   17.8850 N.am    7  ASN7       -0.0877
      9  N         -7.4190    7.4120   19.9290 N.3     9  THR9       -0.1203
     10  CA        -7.7180    8.7920   20.2920 C.3     9  THR9        0.1994
     11  C         -8.5630    8.8720   21.5580 C.2     9  THR9        0.2619
     12  O         -8.6320    9.9190   22.2010 O.2     9  THR9       -0.2717
     13  CB        -8.4480    9.5280   19.1570 C.3     9  THR9        0.1784
     14  OG1       -9.6660    8.8420   18.8450 O.3     9  THR9       -0.2211
     15  CG2       -7.5750    9.5850   17.9180 C.3     9  THR9        0.0376
     16  N         -9.1980    7.7550   21.9070 N.am   10  SER10      -0.1937
     17  CA       -10.0980    7.6740   23.0570 C.3    10  SER10       0.2055
     18  C         -9.4710    8.2190   24.3360 C.2    10  SER10       0.2644
     19  O         -8.2670    8.0840   24.5550 O.2    10  SER10      -0.2714
     20  CB       -10.5380    6.2260   23.2800 C.3    10  SER10       0.2130
     21  OG       -11.5510    6.1490   24.2630 O.3    10  SER10      -0.2179
     22  N        -10.2950    8.8300   25.1810 N.am   11  SER11      -0.1935
     23  CA        -9.8110    9.4210   26.4230 C.3    11  SER11       0.2055
     24  C         -9.5150    8.3500   27.4680 C.2    11  SER11       0.2642
     25  O         -8.9890    8.6460   28.5400 O.2    11  SER11      -0.2714
     26  CB       -10.8280   10.4220   26.9770 C.3    11  SER11       0.2130
     27  OG       -11.6730    9.8100   27.9390 O.3    11  SER11      -0.2179
     28  N         -9.8600    7.1060   27.1530 N.am   12  GLN12      -0.1976
     29  CA        -9.5910    5.9930   28.0550 C.3    12  GLN12       0.1601
     30  C         -8.1010    5.6710   28.0680 C.2    12  GLN12       0.2287
     31  O         -7.5850    5.1020   29.0310 O.2    12  GLN12      -0.2864
     32  CB       -10.3970    4.7560   27.6470 C.3    12  GLN12       0.0394
     33  CG       -11.8970    4.9940   27.5300 C.3    12  GLN12       0.0908
     34  CD       -12.7140    3.8670   28.1360 C.2    12  GLN12       0.2608
     35  OE1      -12.3280    3.2820   29.1480 O.2    12  GLN12      -0.2717
     36  NE2      -13.8480    3.5580   27.5180 N.am   12  GLN12      -0.0878
     37  N        -12.9720    8.5340   13.6210 N.3    37  THR37      -0.1203
     38  CA       -14.4260    8.3880   13.5910 C.3    37  THR37       0.1994
     39  C        -15.1500    9.6650   13.1550 C.2    37  THR37       0.2617
     40  O        -16.3070    9.6200   12.7400 O.2    37  THR37      -0.2717
     41  CB       -14.9700    7.8990   14.9460 C.3    37  THR37       0.1784
     42  OG1      -14.3770    8.6630   16.0030 O.3    37  THR37      -0.2211
     43  CG2      -14.6340    6.4290   15.1480 C.3    37  THR37       0.0376
     44  N        -14.4660   10.7990   13.2620 N.am   38  ASN38      -0.1974
     45  CA       -14.9460   12.0490   12.6780 C.3    38  ASN38       0.1688
     46  C        -13.7690   12.9290   12.2750 C.2    38  ASN38       0.2292
     47  O        -12.6200   12.5600   12.5100 O.2    38  ASN38      -0.2864
     48  CB       -15.9150   12.7860   13.6170 C.3    38  ASN38       0.1181
     49  CG       -15.2740   13.1980   14.9360 C.2    38  ASN38       0.2629
     50  OD1      -14.1560   13.7100   14.9720 O.2    38  ASN38      -0.2716
     51  ND2      -15.9960   12.9830   16.0300 N.am   38  ASN38      -0.0877
     52  N        -11.4780   13.6130   15.2540 N.3    41  GLU41      -0.1245
     53  CA       -10.8090   12.4000   15.7130 C.3    41  GLU41       0.1567
     54  C         -9.8890   11.8280   14.6350 C.2    41  GLU41       0.2260
     55  O         -8.9350   11.1120   14.9400 O.2    41  GLU41      -0.2867
     56  CB       -11.8260   11.3430   16.1570 C.3    41  GLU41       0.0388
     57  CG       -12.8850   11.8450   17.1330 C.3    41  GLU41       0.1160
     58  CD       -12.3010   12.4490   18.3990 C.2    41  GLU41       0.3649
     59  OE1      -11.2400   11.9770   18.8610 O.co2  41  GLU41      -0.2457
     60  OE2      -12.9100   13.4010   18.9350 O.co2  41  GLU41      -0.2457
     61  N        -17.8530    8.6320   11.0230 N.3    62  HIS62      -0.1241
     62  CA       -18.6990    7.5310   11.4820 C.3    62  HIS62       0.1621
     63  C        -20.1660    7.8440   11.2090 C.2    62  HIS62       0.2264
     64  O        -20.5780    9.0000   11.3030 O.2    62  HIS62      -0.2867
     65  CB       -18.4880    7.3180   12.9860 C.3    62  HIS62       0.0745
     66  CG       -18.8580    5.9490   13.4720 C.ar   62  HIS62       0.0817
     67  ND1      -20.1620    5.5610   13.6840 N.ar   62  HIS62      -0.2268
     68  CD2      -18.0880    4.8880   13.8110 C.ar   62  HIS62       0.1154
     69  CE1      -20.1820    4.3110   14.1180 C.ar   62  HIS62       0.1986
     70  NE2      -18.9380    3.8820   14.2050 N.ar   62  HIS62      -0.2212
     71  N        -22.4480    7.4650   13.0710 N.3    64  HIS64      -0.1226
     72  CA       -22.9610    8.1110   14.2650 C.3    64  HIS64       0.1752
     73  C        -22.7120    9.6190   14.2250 C.2    64  HIS64       0.2596
     74  O        -23.5230   10.3910   14.7380 O.2    64  HIS64      -0.2718
     75  CB       -22.3770    7.4700   15.5260 C.3    64  HIS64       0.0759
     76  CG       -22.9290    6.1080   15.8160 C.ar   64  HIS64       0.0818
     77  ND1      -22.2700    5.1840   16.5950 N.ar   64  HIS64      -0.2268
     78  CD2      -24.0860    5.5160   15.4290 C.ar   64  HIS64       0.1154
     79  CE1      -22.9930    4.0810   16.6770 C.ar   64  HIS64       0.1986
     80  NE2      -24.0980    4.2570   15.9780 N.ar   64  HIS64      -0.2212
     81  N        -21.6160   10.0340   13.5950 N.am   65  ASP65      -0.1974
     82  CA       -21.2870   11.4520   13.4690 C.3    65  ASP65       0.1709
     83  C        -21.6430   12.0040   12.0900 C.2    65  ASP65       0.2293
     84  O        -21.2110   13.0970   11.7270 O.2    65  ASP65      -0.2864
     85  CB       -19.7940   11.6870   13.7320 C.3    65  ASP65       0.1436
     86  CG       -19.3960   11.3970   15.1650 C.2    65  ASP65       0.3671
     87  OD1      -19.9590   10.4600   15.7620 O.co2  65  ASP65      -0.2456
     88  OD2      -18.5130   12.1060   15.6920 O.co2  65  ASP65      -0.2456
     89  N        -29.1110    0.0930   13.7720 N.3    97  ASN97      -0.1225
     90  CA       -29.4030   -0.4470   15.0960 C.3    97  ASN97       0.1785
     91  C        -29.6280    0.6870   16.0880 C.2    97  ASN97       0.2597
     92  O        -30.3420    0.5320   17.0790 O.2    97  ASN97      -0.2718
     93  CB       -28.2650   -1.3520   15.5730 C.3    97  ASN97       0.1169
     94  CG       -28.5800   -2.0470   16.8850 C.2    97  ASN97       0.2627
     95  OD1      -28.4040   -1.4780   17.9620 O.2    97  ASN97      -0.2716
     96  ND2      -29.0410   -3.2900   16.8010 N.am   97  ASN97      -0.0877
     97  N        -29.0120    1.8300   15.8050 N.am   98  ARG98      -0.1979
     98  CA       -29.2070    3.0290   16.6040 C.3    98  ARG98       0.1597
     99  C        -29.9420    4.1070   15.8150 C.2    98  ARG98       0.2287
    100  O        -30.4900    3.8450   14.7440 O.2    98  ARG98      -0.2864
    101  CB       -27.8670    3.5470   17.1280 C.3    98  ARG98       0.0334
    102  CG       -27.3370    2.7460   18.3030 C.3    98  ARG98       0.0492
    103  CD       -25.8300    2.5920   18.2550 C.3    98  ARG98       0.2205
    104  NE       -25.3270    1.8920   19.4330 N.pl3  98  ARG98      -0.0865
    105  CZ       -25.1770    0.5750   19.5080 C.cat  98  ARG98       0.5346
    106  NH1      -24.7150    0.0200   20.6200 N.pl3  98  ARG98       0.1354
    107  NH2      -25.4880   -0.1890   18.4700 N.pl3  98  ARG98       0.1354
    108  N        -28.6990    7.6350   16.2760 N.3   100  PHE100     -0.1241
    109  CA       -27.8880    8.8010   16.6060 C.3   100  PHE100      0.1605
    110  C        -27.8460    9.8350   15.4830 C.2   100  PHE100      0.2264
    111  O        -27.8670   11.0390   15.7320 O.2   100  PHE100     -0.2867
    112  CB       -26.4780    8.3610   17.0060 C.3   100  PHE100      0.0534
    113  CG       -26.4440    7.4920   18.2330 C.ar  100  PHE100     -0.0203
    114  CD1      -27.3910    7.6440   19.2270 C.ar  100  PHE100     -0.0042
    115  CD2      -25.4780    6.5160   18.3860 C.ar  100  PHE100     -0.0042
    116  CE1      -27.3680    6.8480   20.3550 C.ar  100  PHE100     -0.0003
    117  CE2      -25.4480    5.7240   19.5160 C.ar  100  PHE100     -0.0003
    118  CZ       -26.3960    5.8870   20.4970 C.ar  100  PHE100     -0.0000
    119  N        -18.3550    0.2540    8.2090 N.3   127  HIS127     -0.1241
    120  CA       -19.1220   -0.0930    9.4000 C.3   127  HIS127      0.1621
    121  C        -20.5490   -0.4270    8.9790 C.2   127  HIS127      0.2264
    122  O        -21.1840    0.3420    8.2590 O.2   127  HIS127     -0.2867
    123  CB       -19.1200    1.0860   10.3810 C.3   127  HIS127      0.0745
    124  CG       -19.9140    0.8510   11.6320 C.ar  127  HIS127      0.0817
    125  ND1      -19.3690    0.9820   12.8910 N.ar  127  HIS127     -0.2268
    126  CD2      -21.2160    0.5240   11.8190 C.ar  127  HIS127      0.1154
    127  CE1      -20.2960    0.7290   13.7990 C.ar  127  HIS127      0.1986
    128  NE2      -21.4240    0.4480   13.1750 N.ar  127  HIS127     -0.2212
    129  N        -24.1640   -2.1780   10.7610 N.3   129  ARG129     -0.1245
    130  CA       -24.9370   -2.8450   11.8020 C.3   129  ARG129      0.1563
    131  C        -26.4330   -2.7700   11.5070 C.2   129  ARG129      0.2260
    132  O        -27.0080   -1.6810   11.4540 O.2   129  ARG129     -0.2867
    133  CB       -24.6350   -2.2430   13.1760 C.3   129  ARG129      0.0307
    134  CG       -25.2990   -2.9840   14.3260 C.3   129  ARG129      0.0489
    135  CD       -24.7320   -2.5610   15.6720 C.3   129  ARG129      0.2205
    136  NE       -25.2410   -3.3930   16.7600 N.pl3 129  ARG129     -0.0865
    137  CZ       -24.7200   -3.4300   17.9830 C.cat 129  ARG129      0.5346
    138  NH1      -23.6650   -2.6830   18.2800 N.pl3 129  ARG129      0.1354
    139  NH2      -25.2500   -4.2180   18.9080 N.pl3 129  ARG129      0.1354
    140  N        -15.3220   -5.0340   12.2970 N.3   153  CYS153     -0.1235
    141  CA       -16.2650   -5.3410   13.3700 C.3   153  CYS153      0.1677
    142  C        -17.5350   -6.0080   12.8340 C.2   153  CYS153      0.2270
    143  O        -18.6490   -5.6540   13.2220 O.2   153  CYS153     -0.2867
    144  CB       -16.6040   -4.0790   14.1710 C.3   153  CYS153      0.0956
    145  SG       -17.3140   -4.3900   15.8050 S.3   153  CYS153     -0.0801
    146  N        -15.6070   -9.9800   19.7650 N.3   176  TRP176     -0.1241
    147  CA       -17.0400  -10.2350   19.8160 C.3   176  TRP176      0.1605
    148  C        -17.2740  -11.7380   19.7360 C.2   176  TRP176      0.2264
    149  O        -18.2380  -12.2650   20.2920 O.2   176  TRP176     -0.2867
    150  CB       -17.7290   -9.5220   18.6490 C.3   176  TRP176      0.0550
    151  CG       -19.2170   -9.7100   18.5750 C.ar  176  TRP176      0.0003
    152  CD1      -19.8940  -10.5800   17.7690 C.ar  176  TRP176      0.0946
    153  CD2      -20.2130   -8.9980   19.3210 C.ar  176  TRP176      0.0152
    154  NE1      -21.2480  -10.4580   17.9720 N.ar  176  TRP176     -0.2442
    155  CE2      -21.4700   -9.4940   18.9200 C.ar  176  TRP176      0.0810
    156  CE3      -20.1640   -7.9920   20.2920 C.ar  176  TRP176      0.0012
    157  CZ2      -22.6660   -9.0200   19.4560 C.ar  176  TRP176      0.0191
    158  CZ3      -21.3530   -7.5220   20.8230 C.ar  176  TRP176      0.0001
    159  CH2      -22.5870   -8.0370   20.4040 C.ar  176  TRP176      0.0015
    160  N        -10.9350   -3.4140   18.3580 N.3   203  ASP203     -0.1239
    161  CA       -11.9160   -2.3370   18.5020 C.3   203  ASP203      0.1674
    162  C        -11.7990   -1.6690   19.8710 C.2   203  ASP203      0.2266
    163  O        -12.7970   -1.2500   20.4600 O.2   203  ASP203     -0.2867
    164  CB       -13.3410   -2.8450   18.2560 C.3   203  ASP203      0.1410
    165  CG       -14.3190   -1.7210   17.9560 C.2   203  ASP203      0.3668
    166  OD1      -13.8920   -0.6920   17.3900 O.co2 203  ASP203     -0.2456
    167  OD2      -15.5150   -1.8690   18.2840 O.co2 203  ASP203     -0.2456
    168  N        -13.1990   -0.9480   23.2210 N.3   206  TYR206     -0.1227
    169  CA       -14.4440   -1.7010   23.3390 C.3   206  TYR206      0.1736
    170  C        -14.2700   -3.1890   23.0710 C.2   206  TYR206      0.2595
    171  O        -13.2190   -3.6340   22.6080 O.2   206  TYR206     -0.2718
    172  CB       -15.4980   -1.1590   22.3780 C.3   206  TYR206      0.0548
    173  CG       -15.5610    0.3420   22.3030 C.ar  206  TYR206     -0.0200
    174  CD1      -16.0980    1.0860   23.3430 C.ar  206  TYR206     -0.0009
    175  CD2      -15.0960    1.0150   21.1830 C.ar  206  TYR206     -0.0009
    176  CE1      -16.1610    2.4590   23.2730 C.ar  206  TYR206      0.0417
    177  CE2      -15.1550    2.3860   21.1030 C.ar  206  TYR206      0.0417
    178  CZ       -15.6890    3.1030   22.1510 C.ar  206  TYR206      0.1957
    179  OH       -15.7520    4.4720   22.0750 O.3   206  TYR206     -0.2866
    180  N        -15.3270   -3.9420   23.3580 N.am  207  LEU207     -0.1980
    181  CA       -15.3850   -5.3720   23.0770 C.3   207  LEU207      0.1596
    182  C        -14.2410   -6.1470   23.7220 C.2   207  LEU207      0.2287
    183  O        -13.5960   -6.9720   23.0730 O.2   207  LEU207     -0.2864
    184  CB       -15.4200   -5.6270   21.5670 C.3   207  LEU207      0.0297
    185  CG       -16.5100   -4.8890   20.7870 C.3   207  LEU207      0.0022
    186  CD1      -16.5730   -5.3840   19.3500 C.3   207  LEU207      0.0001
    187  CD2      -17.8620   -5.0350   21.4680 C.3   207  LEU207      0.0001
    188  N        -14.5900  -11.6720   26.6670 N.3   210  ARG210     -0.1245
    189  CA       -15.2050  -12.1650   27.8970 C.3   210  ARG210      0.1563
    190  C        -14.4970  -13.3970   28.4510 C.2   210  ARG210      0.2260
    191  O        -14.5350  -13.6540   29.6560 O.2   210  ARG210     -0.2867
    192  CB       -16.6900  -12.4740   27.6790 C.3   210  ARG210      0.0307
    193  CG       -17.6360  -11.4630   28.3090 C.3   210  ARG210      0.0489
    194  CD       -17.9950  -10.3450   27.3430 C.3   210  ARG210      0.2205
    195  NE       -18.4880   -9.1570   28.0370 N.pl3 210  ARG210     -0.0865
    196  CZ       -19.7180   -9.0240   28.5230 C.cat 210  ARG210      0.5346
    197  NH1      -20.5960  -10.0110   28.4020 N.pl3 210  ARG210      0.1354
    198  NH2      -20.0700   -7.9020   29.1380 N.pl3 210  ARG210      0.1354
@<TRIPOS>BOND
     1   119   120    1
     2   122   121    2
     3   121   120    1
     4   120   123    1
     5   123   124    1
     6   129   130    1
     7    61    62    1
     8    63    64    2
     9    63    62    1
    10   132   131    2
    11    62    65    1
    12   131   130    1
    13   124   126   ar
    14   124   125   ar
    15    84    83    2
    16   130   133    1
    17   126   128   ar
    18    83    82    1
    19    46    47    2
    20    46    45    1
    21   140   141    1
    22    45    44    1
    23    45    48    1
    24    40    39    2
    25   142   143    2
    26   142   141    1
    27   125   127   ar
    28    65    66    1
    29    71    72    1
    30    39    44   am
    31    39    38    1
    32   128   127   ar
    33   133   134    1
    34   141   144    1
    35    82    81    1
    36    82    85    1
    37    66    67   ar
    38    66    68   ar
    39    38    37    1
    40    38    41    1
    41    81    73   am
    42    48    49    1
    43    67    69   ar
    44    85    86    1
    45    89    90    1
    46    68    70   ar
    47    69    70   ar
    48   144   145    1
    49    73    72    1
    50    73    74    2
    51    72    75    1
    52   134   135    1
    53    54    55    2
    54    54    53    1
    55   100    99    2
    56    49    50    2
    57    49    51   am
    58    41    43    1
    59    41    42    1
    60    90    93    1
    61    90    91    1
    62    86    88   ar
    63    86    87   ar
    64    52    53    1
    65    78    76   ar
    66    78    80   ar
    67   110   111    2
    68   110   109    1
    69    75    76    1
    70    93    94    1
    71   135   136    1
    72    53    56    1
    73    97    91   am
    74    97    98    1
    75    99    98    1
    76    76    77   ar
    77    80    79   ar
    78    91    92    2
    79    56    57    1
    80   108   109    1
    81    77    79   ar
    82    98   101    1
    83   109   112    1
    84   136   137    2
    85    96    94   am
    86    94    95    2
    87   112   113    1
    88   101   102    1
    89    57    58    1
    90     7     6    2
    91   166   165   ar
    92   152   154   ar
    93   152   151   ar
    94     8     6   am
    95    15    13    1
    96   165   164    1
    97   165   167   ar
    98   154   155   ar
    99   137   138    1
   100   137   139    1
   101     6     5    1
   102   113   115   ar
   103   113   114   ar
   104   103   102    1
   105   103   104    1
   106   164   161    1
   107   160   161    1
   108     1     2    1
   109   115   117   ar
   110    58    59   ar
   111    58    60   ar
   112   107   105    1
   113   161   162    1
   114   151   150    1
   115   151   153   ar
   116     2     5    1
   117     2     3    1
   118   150   147    1
   119    14    13    1
   120   155   153   ar
   121   155   157   ar
   122    13    10    1
   123   114   116   ar
   124   153   156   ar
   125   186   185    1
   126   104   105    2
   127   157   159   ar
   128   105   106    1
   129   117   118   ar
   130     3     4    2
   131   148   147    1
   132   148   149    2
   133   146   147    1
   134   162   163    2
   135     9    10    1
   136    10    11    1
   137   156   158   ar
   138   116   118   ar
   139   159   158   ar
   140   185   187    1
   141   185   184    1
   142   177   175   ar
   143   177   178   ar
   144   175   173   ar
   145    11    16   am
   146    11    12    2
   147   184   181    1
   148    16    17    1
   149   179   178    1
   150   178   176   ar
   151   173   172    1
   152   173   174   ar
   153   172   169    1
   154   171   170    2
   155    17    20    1
   156    17    18    1
   157   170   169    1
   158   170   180   am
   159   183   182    2
   160   181   180    1
   161   181   182    1
   162   168   169    1
   163   176   174   ar
   164    20    21    1
   165    18    19    2
   166    18    22   am
   167    22    23    1
   168    23    26    1
   169    23    24    1
   170   188   189    1
   171    26    27    1
   172    28    24   am
   173    28    29    1
   174   194   195    1
   175   194   193    1
   176    24    25    2
   177    36    34   am
   178    33    32    1
   179    33    34    1
   180    32    29    1
   181   192   189    1
   182   192   193    1
   183   189   190    1
   184   195   196    2
   185    29    30    1
   186    30    31    2
   187    34    35    2
   188   197   196    1
   189   190   191    2
   190   196   198    1
