@<TRIPOS>MOLECULE
tmp/4peeD00.pdb
 163 164 0 0 0
SMALL
GASTEIGER

@<TRIPOS>ATOM
      1  N         18.8590  -41.6000  -38.3320 N.3    30  PHE30      -0.1241
      2  CA        18.9660  -42.8340  -37.5480 C.3    30  PHE30       0.1605
      3  C         20.2660  -42.6830  -36.7880 C.2    30  PHE30       0.2264
      4  O         21.2420  -42.2040  -37.3340 O.2    30  PHE30      -0.2867
      5  CB        19.0390  -44.0550  -38.4820 C.3    30  PHE30       0.0534
      6  CG        18.1190  -45.1940  -38.0860 C.ar   30  PHE30      -0.0203
      7  CD1       18.1620  -45.7010  -36.8050 C.ar   30  PHE30      -0.0042
      8  CD2       17.2560  -45.7600  -38.9970 C.ar   30  PHE30      -0.0042
      9  CE1       17.3780  -46.7590  -36.4510 C.ar   30  PHE30      -0.0003
     10  CE2       16.4180  -46.8000  -38.6530 C.ar   30  PHE30      -0.0003
     11  CZ        16.4920  -47.3220  -37.3770 C.ar   30  PHE30      -0.0000
     12  N         22.7300  -45.2800  -34.8080 N.3    32  HIS32      -0.1241
     13  CA        23.1650  -46.6210  -34.3410 C.3    32  HIS32       0.1621
     14  C         24.3430  -46.4330  -33.4250 C.2    32  HIS32       0.2264
     15  O         25.4690  -46.1170  -33.8950 O.2    32  HIS32      -0.2867
     16  CB        23.5990  -47.5050  -35.5190 C.3    32  HIS32       0.0745
     17  CG        22.4630  -48.2220  -36.1400 C.ar   32  HIS32       0.0817
     18  ND1       21.5270  -47.5830  -36.9190 N.ar   32  HIS32      -0.2268
     19  CD2       22.0360  -49.4940  -36.0090 C.ar   32  HIS32       0.1154
     20  CE1       20.5850  -48.4440  -37.2840 C.ar   32  HIS32       0.1986
     21  NE2       20.8800  -49.6210  -36.7520 N.ar   32  HIS32      -0.2212
     22  N         28.1260  -53.2680  -36.7380 N.3    53  GLU53      -0.1231
     23  CA        27.2510  -53.5770  -35.6190 C.3    53  GLU53       0.1699
     24  C         27.0020  -55.0450  -35.5120 C.2    53  GLU53       0.2592
     25  O         26.4360  -55.5170  -34.5190 O.2    53  GLU53      -0.2718
     26  CB        25.9320  -52.7360  -35.6440 C.3    53  GLU53       0.0402
     27  CG        24.8870  -53.0960  -36.6990 C.3    53  GLU53       0.1161
     28  CD        25.2440  -52.7570  -38.1490 C.2    53  GLU53       0.3649
     29  OE1       26.2380  -52.0260  -38.4550 O.co2  53  GLU53      -0.2457
     30  OE2       24.4890  -53.2370  -38.9990 O.co2  53  GLU53      -0.2457
     31  N         27.4290  -55.7870  -36.5380 N.am   54  TRP54      -0.1976
     32  CA        27.3600  -57.2760  -36.5400 C.3    54  TRP54       0.1640
     33  C         28.7370  -57.9140  -36.2920 C.2    54  TRP54       0.2290
     34  O         28.8850  -59.1040  -36.5070 O.2    54  TRP54      -0.2864
     35  CB        26.8100  -57.8130  -37.8890 C.3    54  TRP54       0.0576
     36  CG        25.3640  -57.7800  -37.9880 C.ar   54  TRP54       0.0006
     37  CD1       24.5610  -56.6510  -38.0660 C.ar   54  TRP54       0.0946
     38  CD2       24.4840  -58.8880  -37.9620 C.ar   54  TRP54       0.0152
     39  NE1       23.2550  -57.0200  -38.1050 N.ar   54  TRP54      -0.2442
     40  CE2       23.1700  -58.3810  -38.0360 C.ar   54  TRP54       0.0810
     41  CE3       24.6630  -60.2720  -37.8740 C.ar   54  TRP54       0.0012
     42  CZ2       22.0370  -59.2120  -38.0390 C.ar   54  TRP54       0.0191
     43  CZ3       23.5350  -61.0990  -37.9000 C.ar   54  TRP54       0.0001
     44  CH2       22.2400  -60.5690  -38.0060 C.ar   54  TRP54       0.0015
     45  N         20.4890  -52.7060  -29.6000 N.3   101  HIS101     -0.1226
     46  CA        20.6800  -53.4290  -30.8620 C.3   101  HIS101      0.1752
     47  C         20.7640  -54.9300  -30.5600 C.2   101  HIS101      0.2596
     48  O         20.4810  -55.3540  -29.4130 O.2   101  HIS101     -0.2718
     49  CB        21.9060  -52.8560  -31.6340 C.3   101  HIS101      0.0759
     50  CG        21.8330  -53.0880  -33.1200 C.ar  101  HIS101      0.0818
     51  ND1       22.4650  -54.1530  -33.7430 N.ar  101  HIS101     -0.2268
     52  CD2       21.1230  -52.4560  -34.0910 C.ar  101  HIS101      0.1154
     53  CE1       22.1630  -54.1620  -35.0280 C.ar  101  HIS101      0.1986
     54  NE2       21.3550  -53.1370  -35.2690 N.ar  101  HIS101     -0.2212
     55  N         21.1190  -55.7560  -31.5620 N.am  102  HIS102     -0.1975
     56  CA        21.1620  -57.2070  -31.3540 C.3   102  HIS102      0.1656
     57  C         22.0740  -57.6040  -30.2050 C.2   102  HIS102      0.2291
     58  O         21.7740  -58.5610  -29.5250 O.2   102  HIS102     -0.2864
     59  CB        21.6000  -57.9860  -32.6430 C.3   102  HIS102      0.0771
     60  CG        20.9260  -57.5260  -33.9230 C.ar  102  HIS102      0.0820
     61  ND1       19.6050  -57.1610  -33.9880 N.ar  102  HIS102     -0.2267
     62  CD2       21.3960  -57.4530  -35.1900 C.ar  102  HIS102      0.1154
     63  CE1       19.2930  -56.8380  -35.2250 C.ar  102  HIS102      0.1986
     64  NE2       20.3640  -57.0300  -35.9810 N.ar  102  HIS102     -0.2212
     65  N         14.2370  -47.2960  -31.8230 N.3   144  TYR144     -0.1241
     66  CA        14.6030  -48.5870  -32.4380 C.3   144  TYR144      0.1605
     67  C         14.7820  -49.5950  -31.2970 C.2   144  TYR144      0.2264
     68  O         15.3940  -49.2970  -30.2750 O.2   144  TYR144     -0.2867
     69  CB        15.9070  -48.4390  -33.2140 C.3   144  TYR144      0.0534
     70  CG        16.5420  -49.7440  -33.6830 C.ar  144  TYR144     -0.0201
     71  CD1       17.0870  -50.6330  -32.7470 C.ar  144  TYR144     -0.0009
     72  CD2       16.6220  -50.0660  -35.0290 C.ar  144  TYR144     -0.0009
     73  CE1       17.6950  -51.8110  -33.1530 C.ar  144  TYR144      0.0417
     74  CE2       17.2600  -51.2620  -35.4720 C.ar  144  TYR144      0.0417
     75  CZ        17.8220  -52.0900  -34.5190 C.ar  144  TYR144      0.1957
     76  OH        18.3430  -53.2720  -34.8920 O.3   144  TYR144     -0.2866
     77  N         10.2680  -48.7800  -33.4680 N.3   193  TRP193     -0.1241
     78  CA        10.6940  -49.3860  -34.7490 C.3   193  TRP193      0.1605
     79  C         11.4300  -50.6580  -34.4100 C.2   193  TRP193      0.2264
     80  O         12.5590  -50.6190  -33.9340 O.2   193  TRP193     -0.2867
     81  CB        11.6050  -48.4420  -35.4760 C.3   193  TRP193      0.0550
     82  CG        11.7670  -48.8060  -36.9200 C.ar  193  TRP193      0.0003
     83  CD1       11.0290  -48.3410  -37.9850 C.ar  193  TRP193      0.0946
     84  CD2       12.7660  -49.6490  -37.4800 C.ar  193  TRP193      0.0152
     85  NE1       11.5340  -48.8200  -39.1570 N.ar  193  TRP193     -0.2442
     86  CE2       12.6040  -49.6160  -38.8890 C.ar  193  TRP193      0.0810
     87  CE3       13.8330  -50.3730  -36.9430 C.ar  193  TRP193      0.0012
     88  CZ2       13.4210  -50.3590  -39.7640 C.ar  193  TRP193      0.0191
     89  CZ3       14.6430  -51.1150  -37.8110 C.ar  193  TRP193      0.0001
     90  CH2       14.4510  -51.0600  -39.2110 C.ar  193  TRP193      0.0015
     91  N         13.1910  -54.2870  -34.8830 N.3   195  ASP195     -0.1239
     92  CA        14.1150  -54.9910  -35.7700 C.3   195  ASP195      0.1674
     93  C         14.3620  -56.3690  -35.1070 C.2   195  ASP195      0.2266
     94  O         13.8790  -56.6380  -33.9980 O.2   195  ASP195     -0.2867
     95  CB        15.4190  -54.2200  -35.8800 C.3   195  ASP195      0.1410
     96  CG        16.1780  -54.4750  -37.1980 C.2   195  ASP195      0.3668
     97  OD1       15.6990  -55.2500  -38.0170 O.co2 195  ASP195     -0.2456
     98  OD2       17.3020  -53.9520  -37.3390 O.co2 195  ASP195     -0.2456
     99  N         12.7960  -61.4980  -37.4680 N.3   198  TRP198     -0.1241
    100  CA        12.6110  -62.3420  -38.6430 C.3   198  TRP198      0.1605
    101  C         12.8280  -63.8350  -38.2910 C.2   198  TRP198      0.2264
    102  O         12.5400  -64.6810  -39.1120 O.2   198  TRP198     -0.2867
    103  CB        13.6060  -61.9100  -39.7280 C.3   198  TRP198      0.0550
    104  CG        14.9750  -61.7370  -39.1260 C.ar  198  TRP198      0.0003
    105  CD1       15.7400  -62.7270  -38.6390 C.ar  198  TRP198      0.0946
    106  CD2       15.7080  -60.5140  -38.8850 C.ar  198  TRP198      0.0152
    107  NE1       16.9150  -62.2350  -38.1190 N.ar  198  TRP198     -0.2442
    108  CE2       16.9230  -60.8780  -38.2470 C.ar  198  TRP198      0.0810
    109  CE3       15.4660  -59.1760  -39.1570 C.ar  198  TRP198      0.0012
    110  CZ2       17.9100  -59.9710  -37.9120 C.ar  198  TRP198      0.0191
    111  CZ3       16.4510  -58.2510  -38.8100 C.ar  198  TRP198      0.0001
    112  CH2       17.6600  -58.6680  -38.1740 C.ar  198  TRP198      0.0015
    113  N          7.4710  -54.0410  -39.3840 N.3   228  ARG228     -0.1245
    114  CA         8.5140  -55.0910  -39.2270 C.3   228  ARG228      0.1563
    115  C          8.3320  -55.8910  -37.9130 C.2   228  ARG228      0.2260
    116  O          8.8050  -56.9740  -37.7930 O.2   228  ARG228     -0.2867
    117  CB         9.9110  -54.4500  -39.2600 C.3   228  ARG228      0.0307
    118  CG        11.0270  -55.4610  -39.2050 C.3   228  ARG228      0.0489
    119  CD        12.4050  -54.9390  -39.5570 C.3   228  ARG228      0.2205
    120  NE        12.4580  -54.0840  -40.7480 N.pl3 228  ARG228     -0.0865
    121  CZ        13.5880  -53.7090  -41.3610 C.cat 228  ARG228      0.5346
    122  NH1       14.7660  -54.1300  -40.9060 N.pl3 228  ARG228      0.1354
    123  NH2       13.5400  -52.9220  -42.4370 N.pl3 228  ARG228      0.1354
    124  N         14.9730  -50.8350  -46.9710 N.3   254  GLU254     -0.1231
    125  CA        16.1920  -50.6140  -46.1910 C.3   254  GLU254      0.1699
    126  C         17.3460  -50.6870  -47.1670 C.2   254  GLU254      0.2592
    127  O         17.5770  -51.7440  -47.7720 O.2   254  GLU254     -0.2718
    128  CB        16.2690  -51.6920  -45.0760 C.3   254  GLU254      0.0402
    129  CG        17.6100  -51.8350  -44.3550 C.3   254  GLU254      0.1161
    130  CD        17.5330  -52.7740  -43.1440 C.2   254  GLU254      0.3649
    131  OE1       16.4200  -52.9190  -42.5630 O.co2 254  GLU254     -0.2457
    132  OE2       18.5580  -53.4020  -42.7940 O.co2 254  GLU254     -0.2457
    133  N         17.9870  -49.5590  -47.4230 N.am  255  ARG255     -0.1980
    134  CA        19.0290  -49.4790  -48.4060 C.3   255  ARG255      0.1597
    135  C         18.4990  -49.7890  -49.8400 C.2   255  ARG255      0.2287
    136  O         19.2580  -50.0980  -50.7200 O.2   255  ARG255     -0.2864
    137  CB        20.2440  -50.3890  -48.0100 C.3   255  ARG255      0.0334
    138  CG        20.8380  -50.0310  -46.6170 C.3   255  ARG255      0.0492
    139  CD        22.0920  -50.7970  -46.2580 C.3   255  ARG255      0.2205
    140  NE        21.8410  -52.2220  -46.4640 N.pl3 255  ARG255     -0.0865
    141  CZ        22.3500  -52.9660  -47.4420 C.cat 255  ARG255      0.5346
    142  NH1       23.2450  -52.4970  -48.2920 N.pl3 255  ARG255      0.1354
    143  NH2       21.9700  -54.2200  -47.5390 N.pl3 255  ARG255      0.1354
    144  N         14.8360  -46.4490  -44.7430 N.3   274  CYS274     -0.1235
    145  CA        16.0800  -46.0850  -44.0570 C.3   274  CYS274      0.1677
    146  C         17.2710  -46.3950  -44.9600 C.2   274  CYS274      0.2270
    147  O         17.1840  -47.2420  -45.8500 O.2   274  CYS274     -0.2867
    148  CB        16.2310  -46.7770  -42.7140 C.3   274  CYS274      0.0956
    149  SG        16.0840  -48.5610  -42.7290 S.3   274  CYS274     -0.0801
    150  N         25.9880  -49.5710  -40.4700 N.3   282  TRP282     -0.1241
    151  CA        25.0740  -48.7940  -39.6380 C.3   282  TRP282      0.1605
    152  C         25.7660  -48.2690  -38.3920 C.2   282  TRP282      0.2264
    153  O         25.8290  -47.0410  -38.1400 O.2   282  TRP282     -0.2867
    154  CB        23.8740  -49.6230  -39.2660 C.3   282  TRP282      0.0550
    155  CG        23.1040  -50.0920  -40.4410 C.ar  282  TRP282      0.0003
    156  CD1       23.3120  -51.2270  -41.1520 C.ar  282  TRP282      0.0946
    157  CD2       21.9430  -49.4960  -40.9940 C.ar  282  TRP282      0.0152
    158  NE1       22.3870  -51.3580  -42.1390 N.ar  282  TRP282     -0.2442
    159  CE2       21.4950  -50.3360  -42.0310 C.ar  282  TRP282      0.0810
    160  CE3       21.2080  -48.3630  -40.6910 C.ar  282  TRP282      0.0012
    161  CZ2       20.3730  -50.0370  -42.8290 C.ar  282  TRP282      0.0191
    162  CZ3       20.0640  -48.0630  -41.4870 C.ar  282  TRP282      0.0001
    163  CH2       19.6760  -48.8990  -42.5380 C.ar  282  TRP282      0.0015
@<TRIPOS>BOND
     1   136   135    2
     2   135   134    1
     3   134   137    1
     4   134   133    1
     5   142   141    1
     6   137   138    1
     7   127   126    2
     8   143   141    1
     9   141   140    2
    10   133   126   am
    11   126   125    1
    12   124   125    1
    13   138   139    1
    14   140   139    1
    15   125   128    1
    16   147   146    2
    17   128   129    1
    18   146   145    1
    19   144   145    1
    20   129   130    1
    21   145   148    1
    22   130   132   ar
    23   130   131   ar
    24   161   163   ar
    25   161   159   ar
    26   149   148    1
    27   163   162   ar
    28   123   121    1
    29   158   159   ar
    30   158   156   ar
    31   159   157   ar
    32   162   160   ar
    33   121   122    1
    34   121   120    2
    35   156   155   ar
    36   157   160   ar
    37   157   155   ar
    38   120   119    1
    39   150   151    1
    40   155   154    1
    41    88    90   ar
    42    88    86   ar
    43   103   104    1
    44   103   100    1
    45   151   154    1
    46   151   152    1
    47   119   118    1
    48   113   114    1
    49   117   114    1
    50   117   118    1
    51   114   115    1
    52    90    89   ar
    53    85    86   ar
    54    85    83   ar
    55   109   106   ar
    56   109   111   ar
    57   104   106   ar
    58   104   105   ar
    59   102   101    2
    60    30    28   ar
    61     8    10   ar
    62     8     6   ar
    63    86    84   ar
    64   106   108   ar
    65   111   112   ar
    66    10    11   ar
    67   100   101    1
    68   100    99    1
    69   105   107   ar
    70     5     6    1
    71     5     2    1
    72    29    28   ar
    73   152   153    2
    74     1     2    1
    75   108   107   ar
    76   108   110   ar
    77   112   110   ar
    78    28    27    1
    79    39    37   ar
    80    39    40   ar
    81     6     7   ar
    82    37    36   ar
    83    42    40   ar
    84    42    44   ar
    85    40    38   ar
    86    97    96   ar
    87    44    43   ar
    88    36    38   ar
    89    36    35    1
    90    83    82   ar
    91    38    41   ar
    92   115   116    2
    93    43    41   ar
    94    35    32    1
    95    89    87   ar
    96     2     3    1
    97    84    87   ar
    98    84    82   ar
    99    11     9   ar
   100    98    96   ar
   101     4     3    2
   102    20    18   ar
   103    20    21   ar
   104    96    95    1
   105    82    81    1
   106    18    17   ar
   107     7     9   ar
   108    21    19   ar
   109    22    23    1
   110    27    26    1
   111    32    31    1
   112    32    33    1
   113    31    24   am
   114    34    33    2
   115    17    19   ar
   116    17    16    1
   117    64    63   ar
   118    64    62   ar
   119    95    92    1
   120    92    93    1
   121    92    91    1
   122    26    23    1
   123    23    24    1
   124    16    13    1
   125    24    25    2
   126    81    78    1
   127    74    72   ar
   128    74    75   ar
   129    54    53   ar
   130    54    52   ar
   131    63    61   ar
   132    62    60   ar
   133    93    94    2
   134    72    70   ar
   135    53    51   ar
   136    76    75    1
   137    12    13    1
   138    78    79    1
   139    78    77    1
   140    75    73   ar
   141    79    80    2
   142    13    14    1
   143    52    50   ar
   144    61    60   ar
   145    60    59    1
   146    15    14    2
   147    51    50   ar
   148    70    69    1
   149    70    71   ar
   150    69    66    1
   151    73    71   ar
   152    50    49    1
   153    59    56    1
   154    66    65    1
   155    66    67    1
   156    49    46    1
   157    55    56    1
   158    55    47   am
   159    56    57    1
   160    67    68    2
   161    46    47    1
   162    46    45    1
   163    47    48    2
   164    57    58    2
