@<TRIPOS>MOLECULE
tmp/4pegC00.pdb
 113 109 0 0 0
SMALL
GASTEIGER

@<TRIPOS>ATOM
      1  N         57.0890 -100.2410    8.7110 N.3    10  CYS10      -0.1235
      2  CA        56.3490 -100.5460    9.9350 C.3    10  CYS10       0.1677
      3  C         57.2750 -100.8740   11.1210 C.2    10  CYS10       0.2270
      4  O         58.1020 -101.8020   11.0500 O.2    10  CYS10      -0.2867
      5  CB        55.3640 -101.6930    9.6630 C.3    10  CYS10       0.0956
      6  SG        54.7300 -102.4980   11.1300 S.3    10  CYS10      -0.0801
      7  N         52.6020  -97.3200   12.3280 N.3    41  ASP41      -0.1239
      8  CA        52.4820  -98.3900   13.3220 C.3    41  ASP41       0.1674
      9  C         53.5500  -98.2650   14.4020 C.2    41  ASP41       0.2266
     10  O         54.3030  -99.2030   14.6680 O.2    41  ASP41      -0.2867
     11  CB        52.5020  -99.7750   12.6660 C.3    41  ASP41       0.1410
     12  CG        51.2720 -100.0330   11.8240 C.2    41  ASP41       0.3668
     13  OD1       50.2890  -99.2810   11.9760 O.co2  41  ASP41      -0.2456
     14  OD2       51.2860 -100.9860   11.0170 O.co2  41  ASP41      -0.2456
     15  N         47.9130  -97.8720   11.5740 N.3    86  ASN86      -0.1225
     16  CA        46.6990  -98.4970   12.0870 C.3    86  ASN86       0.1785
     17  C         46.8860  -99.1980   13.4420 C.2    86  ASN86       0.2597
     18  O         45.9100  -99.5680   14.1020 O.2    86  ASN86      -0.2718
     19  CB        46.1110  -99.4570   11.0450 C.3    86  ASN86       0.1169
     20  CG        47.0970 -100.5250   10.6150 C.2    86  ASN86       0.2627
     21  OD1       48.1130 -100.2340    9.9820 O.2    86  ASN86      -0.2716
     22  ND2       46.7950 -101.7730   10.9440 N.am   86  ASN86      -0.0877
     23  N         48.1400  -99.3830   13.8450 N.am   87  HIS87      -0.1975
     24  CA        48.4530  -99.9140   15.1680 C.3    87  HIS87       0.1656
     25  C         49.1260  -98.8110   15.9810 C.2    87  HIS87       0.2291
     26  O         50.3480  -98.6420   15.9280 O.2    87  HIS87      -0.2864
     27  CB        49.3750 -101.1320   15.0590 C.3    87  HIS87       0.0771
     28  CG        48.7840 -102.2740   14.2900 C.ar   87  HIS87       0.0820
     29  ND1       47.4670 -102.6600   14.4180 N.ar   87  HIS87      -0.2267
     30  CD2       49.3330 -103.1120   13.3780 C.ar   87  HIS87       0.1154
     31  CE1       47.2310 -103.6880   13.6230 C.ar   87  HIS87       0.1986
     32  NE2       48.3470 -103.9830   12.9800 N.ar   87  HIS87      -0.2212
     33  N         49.1020 -112.2250   -2.1590 N.3   197  GLY197     -0.1210
     34  CA        47.9670 -111.6770   -1.4410 C.3   197  GLY197      0.1956
     35  C         47.5320 -110.3180   -1.9630 C.2   197  GLY197      0.2611
     36  O         46.3810 -109.9180   -1.7770 O.2   197  GLY197     -0.2717
     37  N         48.4410 -109.6170   -2.6380 N.am  198  PHE198     -0.1976
     38  CA        48.1890 -108.2390   -3.0590 C.3   198  PHE198      0.1639
     39  C         47.4240 -108.1550   -4.3800 C.2   198  PHE198      0.2290
     40  O         46.7720 -107.1480   -4.6590 O.2   198  PHE198     -0.2864
     41  CB        49.4960 -107.4390   -3.1780 C.3   198  PHE198      0.0560
     42  CG        50.2620 -107.3020   -1.8880 C.ar  198  PHE198     -0.0200
     43  CD1       49.7850 -107.8560   -0.7060 C.ar  198  PHE198     -0.0042
     44  CD2       51.4600 -106.6040   -1.8600 C.ar  198  PHE198     -0.0042
     45  CE1       50.4940 -107.7340    0.4720 C.ar  198  PHE198     -0.0003
     46  CE2       52.1730 -106.4730   -0.6840 C.ar  198  PHE198     -0.0003
     47  CZ        51.6890 -107.0410    0.4830 C.ar  198  PHE198     -0.0000
     48  N         44.8990 -109.6420   -5.1180 N.3   200  LYS200     -0.1231
     49  CA        43.5120 -109.6560   -4.6700 C.3   200  LYS200      0.1693
     50  C         42.7420 -108.3790   -5.0090 C.2   200  LYS200      0.2592
     51  O         41.6350 -108.4330   -5.5510 O.2   200  LYS200     -0.2718
     52  CB        43.5210 -109.8490   -3.1520 C.3   200  LYS200      0.0285
     53  CG        42.2210 -110.3020   -2.5250 C.3   200  LYS200      0.0035
     54  CD        42.4800 -110.7410   -1.0910 C.3   200  LYS200      0.0206
     55  CE        43.6280 -111.7460   -1.0400 C.3   200  LYS200      0.1093
     56  NZ        44.0670 -112.0730    0.3460 N.3   200  LYS200     -0.1314
     57  N         43.3270 -107.2300   -4.6890 N.am  201  ASP201     -0.1974
     58  CA        42.6540 -105.9470   -4.8650 C.3   201  ASP201      0.1709
     59  C         43.0740 -105.2010   -6.1230 C.2   201  ASP201      0.2293
     60  O         42.5350 -104.1400   -6.4300 O.2   201  ASP201     -0.2864
     61  CB        42.8980 -105.0610   -3.6510 C.3   201  ASP201      0.1436
     62  CG        42.8200 -105.8280   -2.3600 C.2   201  ASP201      0.3671
     63  OD1       41.7000 -105.9750   -1.8320 O.co2 201  ASP201     -0.2456
     64  OD2       43.8750 -106.2880   -1.8820 O.co2 201  ASP201     -0.2456
     65  N         44.1280 -101.3190   -4.7560 N.3   205  LEU205     -0.1231
     66  CA        44.9910 -101.3890   -3.5730 C.3   205  LEU205      0.1693
     67  C         45.4140  -99.9960   -3.1360 C.2   205  LEU205      0.2592
     68  O         45.9720  -99.2370   -3.9280 O.2   205  LEU205     -0.2718
     69  CB        46.2390 -102.2350   -3.8590 C.3   205  LEU205      0.0284
     70  CG        47.0680 -102.8200   -2.7020 C.3   205  LEU205      0.0019
     71  CD1       48.0350 -103.8600   -3.2330 C.3   205  LEU205      0.0001
     72  CD2       47.8490 -101.7760   -1.9250 C.3   205  LEU205      0.0001
     73  N         45.1570  -99.6650   -1.8740 N.am  206  GLY206     -0.1957
     74  CA        45.6230  -98.4100   -1.3140 C.3   206  GLY206      0.1869
     75  C         44.5240  -97.4380   -0.9370 C.2   206  GLY206      0.2309
     76  O         43.3390  -97.7730   -0.9620 O.2   206  GLY206     -0.2863
     77  N         52.9600 -100.0610    5.8370 N.3   226  HIS226     -0.1226
     78  CA        51.7550 -100.8990    5.8460 C.3   226  HIS226      0.1752
     79  C         51.8270 -102.2740    5.1670 C.2   226  HIS226      0.2596
     80  O         51.3990 -103.2620    5.7580 O.2   226  HIS226     -0.2718
     81  CB        50.5090 -100.1300    5.3740 C.3   226  HIS226      0.0759
     82  CG        49.2160 -100.7930    5.7430 C.ar  226  HIS226      0.0818
     83  ND1       48.9580 -101.2660    7.0120 N.ar  226  HIS226     -0.2268
     84  CD2       48.1090 -101.0630    5.0100 C.ar  226  HIS226      0.1154
     85  CE1       47.7490 -101.7970    7.0470 C.ar  226  HIS226      0.1986
     86  NE2       47.2120 -101.6870    5.8450 N.ar  226  HIS226     -0.2212
     87  N         52.3540 -102.3500    3.9460 N.am  227  MET227     -0.1965
     88  CA        52.2080 -103.5750    3.1450 C.3   227  MET227      0.1736
     89  C         53.2400 -104.6950    3.3660 C.2   227  MET227      0.2616
     90  O         53.1130 -105.7710    2.7800 O.2   227  MET227     -0.2715
     91  CB        52.0990 -103.2470    1.6510 C.3   227  MET227      0.0427
     92  CG        50.8590 -102.4400    1.2770 C.3   227  MET227      0.0599
     93  SD        49.3130 -103.0820    1.9590 S.3   227  MET227     -0.1393
     94  CE        49.0960 -104.5730    0.9960 C.3   227  MET227      0.0692
     95  N         54.2450 -104.4510    4.2030 N.am  228  HIS228     -0.1973
     96  CA        55.2490 -105.4710    4.5420 C.3   228  HIS228      0.1656
     97  C         56.0450 -105.9780    3.3390 C.2   228  HIS228      0.2291
     98  O         56.2500 -107.1830    3.1890 O.2   228  HIS228     -0.2864
     99  CB        54.6060 -106.6680    5.2570 C.3   228  HIS228      0.0771
    100  CG        53.8780 -106.3090    6.5130 C.ar  228  HIS228      0.0820
    101  ND1       52.9710 -107.1560    7.1120 N.ar  228  HIS228     -0.2267
    102  CD2       53.9220 -105.1980    7.2850 C.ar  228  HIS228      0.1154
    103  CE1       52.4850 -106.5810    8.1980 C.ar  228  HIS228      0.1986
    104  NE2       53.0460 -105.3920    8.3260 N.ar  228  HIS228     -0.2212
    105  N         58.6100 -104.3650    7.2040 N.3   245  LYS245     -0.1245
    106  CA        58.3010 -104.4030    8.6270 C.3   245  LYS245      0.1561
    107  C         59.5650 -104.6730    9.4380 C.2   245  LYS245      0.2260
    108  O         60.3390 -105.5690    9.0950 O.2   245  LYS245     -0.2867
    109  CB        57.2720 -105.5100    8.8540 C.3   245  LYS245      0.0271
    110  CG        56.7990 -105.7070   10.2740 C.3   245  LYS245      0.0035
    111  CD        55.7480 -106.8100   10.3090 C.3   245  LYS245      0.0206
    112  CE        55.3360 -107.1590   11.7260 C.3   245  LYS245      0.1093
    113  NZ        54.3240 -108.2540   11.7440 N.3   245  LYS245     -0.1314
@<TRIPOS>BOND
     1    60    59    2
     2    59    58    1
     3    51    50    2
     4    48    49    1
     5    50    57   am
     6    50    49    1
     7    58    57    1
     8    58    61    1
     9    65    66    1
    10    49    52    1
    11    40    39    2
    12    39    38    1
    13    68    67    2
    14    69    66    1
    15    69    70    1
    16    61    62    1
    17    66    67    1
    18    71    70    1
    19    41    38    1
    20    41    42    1
    21    52    53    1
    22    67    73   am
    23    38    37    1
    24    70    72    1
    25    37    35   am
    26    53    54    1
    27    62    64   ar
    28    62    63   ar
    29    33    34    1
    30    35    36    2
    31    35    34    1
    32    42    44   ar
    33    42    43   ar
    34    73    74    1
    35    44    46   ar
    36    74    75    1
    37    54    55    1
    38    55    56    1
    39    76    75    2
    40    43    45   ar
    41    46    47   ar
    42    45    47   ar
    43    94    93    1
    44    92    91    1
    45    92    93    1
    46    91    88    1
    47    90    89    2
    48    88    89    1
    49    88    87    1
    50    98    97    2
    51    97    96    1
    52    89    95   am
    53    87    79   am
    54    95    96    1
    55    96    99    1
    56    84    82   ar
    57    84    86   ar
    58    79    80    2
    59    79    78    1
    60    99   100    1
    61    81    82    1
    62    81    78    1
    63    82    83   ar
    64    77    78    1
    65    86    85   ar
    66   100   101   ar
    67   100   102   ar
    68    83    85   ar
    69   101   103   ar
    70   105   106    1
    71   102   104   ar
    72   103   104   ar
    73   106   109    1
    74   106   107    1
    75     1     2    1
    76   109   110    1
    77   108   107    2
    78     5     2    1
    79     5     6    1
    80     2     3    1
    81    21    20    2
    82   110   111    1
    83   111   112    1
    84    20    22   am
    85    20    19    1
    86    14    12   ar
    87    19    16    1
    88     4     3    2
    89    15    16    1
    90   112   113    1
    91    12    13   ar
    92    12    11    1
    93    16    17    1
    94     7     8    1
    95    11     8    1
    96    32    30   ar
    97    32    31   ar
    98     8     9    1
    99    30    28   ar
   100    17    23   am
   101    17    18    2
   102    31    29   ar
   103    23    24    1
   104    28    29   ar
   105    28    27    1
   106     9    10    2
   107    27    24    1
   108    24    25    1
   109    26    25    2
