@<TRIPOS>MOLECULE
tmp/4pehC00.pdb
 197 189 0 0 0
SMALL
GASTEIGER

@<TRIPOS>ATOM
      1  N         37.0020  -56.4990  -22.9330 N.3    10  SER10      -0.1217
      2  CA        35.5720  -56.2630  -22.7800 C.3    10  SER10       0.1889
      3  C         34.9140  -55.8730  -24.0990 C.2    10  SER10       0.2288
      4  O         35.2930  -54.8750  -24.7070 O.2    10  SER10      -0.2866
      5  CB        35.3360  -55.1780  -21.7340 C.3    10  SER10       0.2089
      6  OG        35.8950  -55.5580  -20.4890 O.3    10  SER10      -0.2183
      7  N         31.5030  -55.2790  -24.5030 N.3    12  HIS12      -0.1241
      8  CA        30.4420  -54.3130  -24.2260 C.3    12  HIS12       0.1621
      9  C         29.3700  -54.2680  -25.3130 C.2    12  HIS12       0.2264
     10  O         28.8620  -53.1950  -25.6300 O.2    12  HIS12      -0.2867
     11  CB        31.0190  -52.9070  -24.0230 C.3    12  HIS12       0.0745
     12  CG        31.7400  -52.7260  -22.7230 C.ar   12  HIS12       0.0817
     13  ND1       31.1470  -52.9720  -21.5030 N.ar   12  HIS12      -0.2268
     14  CD2       32.9980  -52.3040  -22.4530 C.ar   12  HIS12       0.1154
     15  CE1       32.0140  -52.7200  -20.5360 C.ar   12  HIS12       0.1986
     16  NE2       33.1470  -52.3150  -21.0870 N.ar   12  HIS12      -0.2212
     17  N         29.6990  -54.6830  -28.4440 N.3    14  LYS14      -0.1245
     18  CA        30.2160  -54.0990  -29.6790 C.3    14  LYS14       0.1561
     19  C         30.7080  -55.1920  -30.6250 C.2    14  LYS14       0.2260
     20  O         31.8860  -55.2140  -30.9990 O.2    14  LYS14      -0.2867
     21  CB        31.3670  -53.1380  -29.3680 C.3    14  LYS14       0.0271
     22  CG        30.9820  -51.9250  -28.5300 C.3    14  LYS14       0.0035
     23  CD        29.9580  -51.0660  -29.2520 C.3    14  LYS14       0.0206
     24  CE        29.6920  -49.7630  -28.5120 C.3    14  LYS14       0.1093
     25  NZ        28.6370  -48.9520  -29.1900 N.3    14  LYS14      -0.1314
     26  N         32.1740  -59.1430  -20.2340 N.3    41  ASP41      -0.1239
     27  CA        31.2680  -58.0280  -20.5390 C.3    41  ASP41       0.1674
     28  C         30.6630  -58.1870  -21.9340 C.2    41  ASP41       0.2266
     29  O         30.7460  -57.2920  -22.7830 O.2    41  ASP41      -0.2867
     30  CB        31.9420  -56.6600  -20.3420 C.3    41  ASP41       0.1410
     31  CG        32.2910  -56.3820  -18.8830 C.2    41  ASP41       0.3668
     32  OD1       31.7660  -57.0870  -17.9910 O.co2  41  ASP41      -0.2456
     33  OD2       33.0850  -55.4530  -18.6280 O.co2  41  ASP41      -0.2456
     34  N         27.3860  -58.9160  -22.7720 N.3    43  GLN43      -0.1245
     35  CA        26.0580  -58.3310  -22.9330 C.3    43  GLN43       0.1566
     36  C         25.2300  -59.0610  -23.9980 C.2    43  GLN43       0.2260
     37  O         24.7600  -58.4460  -24.9570 O.2    43  GLN43      -0.2867
     38  CB        26.1710  -56.8270  -23.2360 C.3    43  GLN43       0.0367
     39  CG        26.9130  -56.0340  -22.1490 C.3    43  GLN43       0.0905
     40  CD        26.9690  -54.5260  -22.4170 C.2    43  GLN43       0.2608
     41  OE1       26.0840  -53.9730  -23.0690 O.2    43  GLN43      -0.2717
     42  NE2       28.0180  -53.8660  -21.9340 N.am   43  GLN43      -0.0878
     43  N         23.2080  -55.2700  -15.5940 N.3    55  LYS55      -0.1231
     44  CA        23.6460  -54.2970  -14.5960 C.3    55  LYS55       0.1693
     45  C         24.6140  -53.3080  -15.2370 C.2    55  LYS55       0.2592
     46  O         25.7720  -53.6390  -15.4880 O.2    55  LYS55      -0.2718
     47  CB        24.3210  -54.9940  -13.4100 C.3    55  LYS55       0.0285
     48  CG        25.1190  -54.0500  -12.4950 C.3    55  LYS55       0.0035
     49  CD        24.3380  -53.6310  -11.2680 C.3    55  LYS55       0.0206
     50  CE        25.0060  -52.4520  -10.5510 C.3    55  LYS55       0.1093
     51  NZ        26.4230  -52.6960  -10.1510 N.3    55  LYS55      -0.1314
     52  N         24.1220  -52.1060  -15.5260 N.am   56  VAL56      -0.1966
     53  CA        24.9430  -51.0300  -16.0860 C.3    56  VAL56       0.1712
     54  C         24.4090  -49.6900  -15.6040 C.2    56  VAL56       0.2458
     55  O         23.2370  -49.5830  -15.2310 O.2    56  VAL56      -0.2730
     56  CB        24.9140  -51.0080  -17.6360 C.3    56  VAL56       0.0289
     57  CG1       25.7220  -52.1450  -18.2270 C.3    56  VAL56       0.0023
     58  CG2       23.4850  -51.0400  -18.1420 C.3    56  VAL56       0.0023
     59  N         25.2630  -48.6580  -15.5950 N.am   57  PRO57      -0.2727
     60  CA        24.7000  -47.3230  -15.3840 C.3    57  PRO57       0.1402
     61  C         23.7430  -46.9870  -16.5260 C.2    57  PRO57       0.2269
     62  O         23.9870  -47.4170  -17.6560 O.2    57  PRO57      -0.2865
     63  CB        25.9340  -46.4070  -15.4090 C.3    57  PRO57       0.0296
     64  CG        27.0340  -47.2160  -16.0200 C.3    57  PRO57       0.0237
     65  CD        26.7340  -48.6400  -15.6690 C.3    57  PRO57       0.0939
     66  N         24.2940  -46.6700  -20.1810 N.3    60  TYR60      -0.1241
     67  CA        24.7230  -47.8760  -20.8830 C.3    60  TYR60       0.1605
     68  C         23.6300  -48.9450  -20.9610 C.2    60  TYR60       0.2264
     69  O         23.9180  -50.1110  -21.2570 O.2    60  TYR60      -0.2867
     70  CB        25.9780  -48.4630  -20.2340 C.3    60  TYR60       0.0534
     71  CG        27.2270  -47.6350  -20.4380 C.ar   60  TYR60      -0.0201
     72  CD1       27.7070  -47.3700  -21.7150 C.ar   60  TYR60      -0.0009
     73  CD2       27.9350  -47.1310  -19.3530 C.ar   60  TYR60      -0.0009
     74  CE1       28.8500  -46.6170  -21.9060 C.ar   60  TYR60       0.0417
     75  CE2       29.0790  -46.3760  -19.5340 C.ar   60  TYR60       0.0417
     76  CZ        29.5320  -46.1220  -20.8110 C.ar   60  TYR60       0.1957
     77  OH        30.6730  -45.3740  -21.0010 O.3    60  TYR60      -0.2866
     78  N         30.9820  -58.6600  -15.7210 N.3    86  ASN86      -0.1225
     79  CA        30.0730  -58.0300  -14.7710 C.3    86  ASN86       0.1785
     80  C         28.9270  -57.2650  -15.4560 C.2    86  ASN86       0.2597
     81  O         28.0220  -56.7640  -14.7950 O.2    86  ASN86      -0.2718
     82  CB        30.8580  -57.1040  -13.8350 C.3    86  ASN86       0.1169
     83  CG        31.6680  -56.0640  -14.5920 C.2    86  ASN86       0.2627
     84  OD1       32.6710  -56.3830  -15.2290 O.2    86  ASN86      -0.2716
     85  ND2       31.2330  -54.8170  -14.5260 N.am   86  ASN86      -0.0877
     86  N         28.9880  -57.1630  -16.7810 N.am   87  HIS87      -0.1975
     87  CA        27.9130  -56.5690  -17.5620 C.3    87  HIS87       0.1656
     88  C         27.3990  -57.6190  -18.5350 C.2    87  HIS87       0.2291
     89  O         27.9200  -57.7650  -19.6340 O.2    87  HIS87      -0.2864
     90  CB        28.4190  -55.3450  -18.3340 C.3    87  HIS87       0.0771
     91  CG        28.8720  -54.2200  -17.4550 C.ar   87  HIS87       0.0820
     92  ND1       28.1560  -53.7980  -16.3550 N.ar   87  HIS87      -0.2267
     93  CD2       29.9740  -53.4370  -17.5090 C.ar   87  HIS87       0.1154
     94  CE1       28.7960  -52.8010  -15.7710 C.ar   87  HIS87       0.1986
     95  NE2       29.9020  -52.5600  -16.4540 N.ar   87  HIS87      -0.2212
     96  N         33.1240  -61.2860  -11.6890 N.3   128  ILE128     -0.1245
     97  CA        34.1260  -60.5530  -10.9270 C.3   128  ILE128      0.1561
     98  C         33.9350  -60.8140   -9.4350 C.2   128  ILE128      0.2260
     99  O         32.8440  -61.1860   -8.9860 O.2   128  ILE128     -0.2867
    100  CB        34.0380  -59.0380  -11.1650 C.3   128  ILE128      0.0252
    101  CG1       32.6950  -58.4870  -10.6740 C.3   128  ILE128      0.0019
    102  CG2       34.2540  -58.7280  -12.6280 C.3   128  ILE128      0.0019
    103  CD1       32.6170  -56.9580  -10.6740 C.3   128  ILE128      0.0001
    104  N         33.3640  -60.3470   -5.5300 N.3   130  LYS130     -0.1245
    105  CA        32.8250  -59.5640   -4.4220 C.3   130  LYS130      0.1561
    106  C         32.6980  -60.5010   -3.2230 C.2   130  LYS130      0.2260
    107  O         31.9540  -61.4890   -3.2740 O.2   130  LYS130     -0.2867
    108  CB        31.4670  -58.9510   -4.7670 C.3   130  LYS130      0.0271
    109  CG        31.5110  -57.8480   -5.8180 C.3   130  LYS130      0.0035
    110  CD        32.3360  -56.6490   -5.3580 C.3   130  LYS130      0.0206
    111  CE        32.4490  -55.6040   -6.4670 C.3   130  LYS130      0.1093
    112  NZ        33.2770  -54.4250   -6.0820 N.3   130  LYS130     -0.1314
    113  N         31.2290  -60.3750   -0.4220 N.3   132  PHE132     -0.1241
    114  CA        29.8910  -60.5240    0.1490 C.3   132  PHE132      0.1605
    115  C         28.9640  -61.4690   -0.6300 C.2   132  PHE132      0.2264
    116  O         27.8730  -61.7960   -0.1610 O.2   132  PHE132     -0.2867
    117  CB        29.2240  -59.1570    0.3690 C.3   132  PHE132      0.0534
    118  CG        29.1220  -58.3050   -0.8720 C.ar  132  PHE132     -0.0203
    119  CD1       30.2180  -57.5840   -1.3350 C.ar  132  PHE132     -0.0042
    120  CD2       27.9160  -58.1940   -1.5500 C.ar  132  PHE132     -0.0042
    121  CE1       30.1170  -56.7880   -2.4670 C.ar  132  PHE132     -0.0003
    122  CE2       27.8060  -57.4000   -2.6820 C.ar  132  PHE132     -0.0003
    123  CZ        28.9090  -56.6980   -3.1420 C.ar  132  PHE132     -0.0000
    124  N         22.0950  -57.9730   -9.4640 N.3   148  VAL148     -0.1245
    125  CA        23.3320  -57.4680   -8.8920 C.3   148  VAL148      0.1561
    126  C         24.2960  -58.5430   -8.4100 C.2   148  VAL148      0.2260
    127  O         25.4880  -58.2970   -8.3070 O.2   148  VAL148     -0.2867
    128  CB        23.0450  -56.5130   -7.7230 C.3   148  VAL148      0.0252
    129  CG1       22.7890  -55.1080   -8.2400 C.3   148  VAL148      0.0019
    130  CG2       21.8580  -57.0160   -6.9190 C.3   148  VAL148      0.0019
    131  N         26.4240  -62.1330  -11.4480 N.3   151  PHE151     -0.1227
    132  CA        27.7450  -62.1000  -12.0740 C.3   151  PHE151      0.1736
    133  C         28.9020  -62.0860  -11.0770 C.2   151  PHE151      0.2595
    134  O         30.0580  -61.8900  -11.4660 O.2   151  PHE151     -0.2718
    135  CB        27.8650  -60.9000  -13.0230 C.3   151  PHE151      0.0547
    136  CG        27.6530  -59.5720  -12.3540 C.ar  151  PHE151     -0.0202
    137  CD1       28.6960  -58.9400  -11.6920 C.ar  151  PHE151     -0.0042
    138  CD2       26.4140  -58.9490  -12.3980 C.ar  151  PHE151     -0.0042
    139  CE1       28.5090  -57.7150  -11.0790 C.ar  151  PHE151     -0.0003
    140  CE2       26.2140  -57.7270  -11.7830 C.ar  151  PHE151     -0.0003
    141  CZ        27.2650  -57.1060  -11.1230 C.ar  151  PHE151     -0.0000
    142  N         28.6020  -62.2870   -9.8010 N.am  152  HIS152     -0.1975
    143  CA        29.6540  -62.3600   -8.7990 C.3   152  HIS152      0.1656
    144  C         30.2230  -63.7710   -8.6770 C.2   152  HIS152      0.2291
    145  O         29.4960  -64.7200   -8.3690 O.2   152  HIS152     -0.2864
    146  CB        29.1350  -61.8450   -7.4570 C.3   152  HIS152      0.0771
    147  CG        28.8620  -60.3710   -7.4520 C.ar  152  HIS152      0.0820
    148  ND1       28.0430  -59.7690   -6.5220 N.ar  152  HIS152     -0.2267
    149  CD2       29.3040  -59.3830   -8.2640 C.ar  152  HIS152      0.1154
    150  CE1       27.9920  -58.4670   -6.7640 C.ar  152  HIS152      0.1986
    151  NE2       28.7450  -58.2110   -7.8190 N.ar  152  HIS152     -0.2212
    152  N         45.8630  -47.3570   -5.7550 N.3   200  LYS200     -0.1231
    153  CA        45.0640  -47.4170   -4.5280 C.3   200  LYS200      0.1693
    154  C         44.9010  -48.8310   -3.9740 C.2   200  LYS200      0.2592
    155  O         45.3130  -49.1060   -2.8450 O.2   200  LYS200     -0.2718
    156  CB        43.6890  -46.7680   -4.7350 C.3   200  LYS200      0.0285
    157  CG        42.6100  -47.2950   -3.8010 C.3   200  LYS200      0.0035
    158  CD        41.2130  -46.9570   -4.2830 C.3   200  LYS200      0.0206
    159  CE        40.1620  -47.7210   -3.4840 C.3   200  LYS200      0.1093
    160  NZ        40.4690  -47.7730   -2.0260 N.3   200  LYS200     -0.1314
    161  N         44.3090  -49.7260   -4.7610 N.am  201  ASP201     -0.1974
    162  CA        44.1090  -51.0960   -4.3030 C.3   201  ASP201      0.1709
    163  C         45.4570  -51.7960   -4.1490 C.2   201  ASP201      0.2293
    164  O         45.5750  -52.7800   -3.4190 O.2   201  ASP201     -0.2864
    165  CB        43.1850  -51.8700   -5.2510 C.3   201  ASP201      0.1436
    166  CG        41.7180  -51.4810   -5.0960 C.2   201  ASP201      0.3671
    167  OD1       41.4380  -50.4060   -4.5240 O.co2 201  ASP201     -0.2456
    168  OD2       40.8480  -52.2510   -5.5580 O.co2 201  ASP201     -0.2456
    169  N         38.4270  -56.5800  -18.2070 N.3   226  HIS226     -0.1241
    170  CA        37.8620  -55.7440  -17.1380 C.3   226  HIS226      0.1621
    171  C         38.6300  -54.4610  -16.7930 C.2   226  HIS226      0.2264
    172  O         38.0110  -53.4660  -16.4130 O.2   226  HIS226     -0.2867
    173  CB        37.6040  -56.5570  -15.8560 C.3   226  HIS226      0.0745
    174  CG        36.7560  -55.8410  -14.8450 C.ar  226  HIS226      0.0817
    175  ND1       35.5580  -55.2400  -15.1700 N.ar  226  HIS226     -0.2268
    176  CD2       36.9360  -55.6250  -13.5200 C.ar  226  HIS226      0.1154
    177  CE1       35.0350  -54.6860  -14.0910 C.ar  226  HIS226      0.1986
    178  NE2       35.8540  -54.9050  -13.0730 N.ar  226  HIS226     -0.2212
    179  N         40.6330  -52.3760  -18.6300 N.3   228  HIS228     -0.1241
    180  CA        40.7550  -51.3130  -19.6350 C.3   228  HIS228      0.1621
    181  C         42.1770  -50.8050  -19.8440 C.2   228  HIS228      0.2264
    182  O         42.4010  -49.5990  -19.8940 O.2   228  HIS228     -0.2867
    183  CB        39.8590  -50.1270  -19.2730 C.3   228  HIS228      0.0745
    184  CG        38.4120  -50.4800  -19.1440 C.ar  228  HIS228      0.0817
    185  ND1       37.5060  -49.6650  -18.5020 N.ar  228  HIS228     -0.2268
    186  CD2       37.7130  -51.5560  -19.5770 C.ar  228  HIS228      0.1154
    187  CE1       36.3100  -50.2240  -18.5420 C.ar  228  HIS228      0.1986
    188  NE2       36.4080  -51.3720  -19.1910 N.ar  228  HIS228     -0.2212
    189  N         39.3810  -52.5230  -23.6810 N.3   245  LYS245     -0.1245
    190  CA        37.9810  -52.6310  -24.0820 C.3   245  LYS245      0.1561
    191  C         37.8140  -52.3020  -25.5650 C.2   245  LYS245      0.2260
    192  O         38.5180  -51.4320  -26.0850 O.2   245  LYS245     -0.2867
    193  CB        37.1290  -51.6920  -23.2230 C.3   245  LYS245      0.0271
    194  CG        36.1120  -50.8670  -23.9960 C.3   245  LYS245      0.0035
    195  CD        35.5690  -49.7290  -23.1450 C.3   245  LYS245      0.0206
    196  CE        34.4160  -49.0190  -23.8420 C.3   245  LYS245      0.1093
    197  NZ        33.9120  -47.8710  -23.0380 N.3   245  LYS245     -0.1314
@<TRIPOS>BOND
     1    20    19    2
     2    19    18    1
     3    18    21    1
     4    18    17    1
     5    21    22    1
     6    23    22    1
     7    23    24    1
     8    25    24    1
     9   192   191    2
    10    10     9    2
    11   191   190    1
    12     9     8    1
    13    37    36    2
    14     4     3    2
    15     7     8    1
    16     8    11    1
    17     3     2    1
    18   190   189    1
    19   190   193    1
    20    11    12    1
    21    36    35    1
    22   194   193    1
    23   194   195    1
    24   196   195    1
    25   196   197    1
    26    38    35    1
    27    38    39    1
    28    41    40    2
    29    35    34    1
    30     1     2    1
    31    29    28    2
    32     2     5    1
    33    12    14   ar
    34    12    13   ar
    35    14    16   ar
    36    40    39    1
    37    40    42   am
    38    28    27    1
    39    74    72   ar
    40    74    76   ar
    41     5     6    1
    42    72    71   ar
    43    13    15   ar
    44    69    68    2
    45    16    15   ar
    46    77    76    1
    47    68    67    1
    48    67    70    1
    49    67    66    1
    50    76    75   ar
    51    27    30    1
    52    27    26    1
    53    71    70    1
    54    71    73   ar
    55    30    31    1
    56   182   181    2
    57   181   180    1
    58   180   183    1
    59   180   179    1
    60    89    88    2
    61   186   188   ar
    62   186   184   ar
    63    75    73   ar
    64   183   184    1
    65   188   187   ar
    66   184   185   ar
    67    31    33   ar
    68    31    32   ar
    69   187   185   ar
    70    88    87    1
    71    90    87    1
    72    90    91    1
    73    57    56    1
    74   169   170    1
    75    58    56    1
    76    62    61    2
    77    56    53    1
    78    87    86    1
    79    93    91   ar
    80    93    95   ar
    81    91    92   ar
    82   170   171    1
    83   170   173    1
    84   171   172    2
    85    86    80   am
    86    61    60    1
    87    95    94   ar
    88    92    94   ar
    89    53    54    1
    90    53    52    1
    91    64    65    1
    92    64    63    1
    93   173   174    1
    94    78    79    1
    95    65    59    1
    96    54    59   am
    97    54    55    2
    98    59    60    1
    99    43    44    1
   100    52    45   am
   101    46    45    2
   102    80    81    2
   103    80    79    1
   104    63    60    1
   105    45    44    1
   106    84    83    2
   107   175   174   ar
   108   175   177   ar
   109   174   176   ar
   110    79    82    1
   111    44    47    1
   112    83    85   am
   113    83    82    1
   114   177   178   ar
   115   176   178   ar
   116    47    48    1
   117   135   136    1
   118   135   132    1
   119   102   100    1
   120    48    49    1
   121   138   136   ar
   122   138   140   ar
   123   136   137   ar
   124   132   131    1
   125   132   133    1
   126   140   141   ar
   127   137   139   ar
   128    96    97    1
   129   134   133    2
   130    49    50    1
   131   100    97    1
   132   100   101    1
   133   141   139   ar
   134   133   142   am
   135    97    98    1
   136   103   101    1
   137    50    51    1
   138   142   143    1
   139   124   125    1
   140    98    99    2
   141   125   126    1
   142   125   128    1
   143   143   144    1
   144   143   146    1
   145   144   145    2
   146   126   127    2
   147   149   151   ar
   148   149   147   ar
   149   129   128    1
   150   151   150   ar
   151   128   130    1
   152   146   147    1
   153   147   148   ar
   154   150   148   ar
   155   111   112    1
   156   111   110    1
   157   109   110    1
   158   109   108    1
   159   152   153    1
   160   168   166   ar
   161   104   105    1
   162   165   166    1
   163   165   162    1
   164   166   167   ar
   165   108   105    1
   166   161   162    1
   167   161   154   am
   168   156   153    1
   169   156   157    1
   170   153   154    1
   171   105   106    1
   172   162   163    1
   173   158   157    1
   174   158   159    1
   175   163   164    2
   176   154   155    2
   177   159   160    1
   178   107   106    2
   179   123   122   ar
   180   123   121   ar
   181   122   120   ar
   182   121   119   ar
   183   120   118   ar
   184   119   118   ar
   185   118   117    1
   186   115   116    2
   187   115   114    1
   188   113   114    1
   189   114   117    1
