@<TRIPOS>MOLECULE
tmp/4pehG00.pdb
 231 223 0 0 0
SMALL
GASTEIGER

@<TRIPOS>ATOM
      1  N         47.8330  -68.8310  -66.5700 N.3    12  HIS12      -0.1241
      2  CA        47.9670  -67.8830  -67.6750 C.3    12  HIS12       0.1621
      3  C         49.3500  -67.9150  -68.3360 C.2    12  HIS12       0.2264
      4  O         49.8540  -66.8830  -68.7810 O.2    12  HIS12      -0.2867
      5  CB        47.6460  -66.4620  -67.2080 C.3    12  HIS12       0.0745
      6  CG        46.2120  -66.2540  -66.8290 C.ar   12  HIS12       0.0817
      7  ND1       45.1710  -66.4720  -67.7050 N.ar   12  HIS12      -0.2268
      8  CD2       45.6510  -65.8180  -65.6760 C.ar   12  HIS12       0.1154
      9  CE1       44.0270  -66.1980  -67.1020 C.ar   12  HIS12       0.1986
     10  NE2       44.2910  -65.7960  -65.8710 N.ar   12  HIS12      -0.2212
     11  N         52.2560  -68.3940  -67.0180 N.3    14  LYS14      -0.1245
     12  CA        53.3490  -67.8850  -66.2020 C.3    14  LYS14       0.1561
     13  C         53.9970  -69.0300  -65.4440 C.2    14  LYS14       0.2260
     14  O         54.0480  -69.0130  -64.2070 O.2    14  LYS14      -0.2867
     15  CB        52.8410  -66.8400  -65.2100 C.3    14  LYS14       0.0271
     16  CG        52.1480  -65.6520  -65.8510 C.3    14  LYS14       0.0035
     17  CD        51.6550  -64.6610  -64.8050 C.3    14  LYS14       0.0206
     18  CE        51.0630  -63.4310  -65.4700 C.3    14  LYS14       0.1093
     19  NZ        52.0230  -62.8280  -66.4380 N.3    14  LYS14      -0.1314
     20  N         43.3860  -72.7340  -67.0800 N.3    41  ASP41      -0.1239
     21  CA        43.9300  -71.5810  -67.8020 C.3    41  ASP41       0.1674
     22  C         45.4350  -71.7510  -67.9620 C.2    41  ASP41       0.2266
     23  O         46.2180  -70.8430  -67.6710 O.2    41  ASP41      -0.2867
     24  CB        43.5800  -70.2640  -67.1070 C.3    41  ASP41       0.1410
     25  CG        42.1430  -69.8670  -67.3200 C.2    41  ASP41       0.3668
     26  OD1       41.5190  -70.4020  -68.2640 O.co2  41  ASP41      -0.2456
     27  OD2       41.6420  -69.0150  -66.5510 O.co2  41  ASP41      -0.2456
     28  N         47.1920  -72.5980  -70.8250 N.3    43  GLN43      -0.1245
     29  CA        47.7390  -72.0600  -72.0680 C.3    43  GLN43       0.1566
     30  C         48.9550  -72.8580  -72.5280 C.2    43  GLN43       0.2260
     31  O         50.0430  -72.3010  -72.6910 O.2    43  GLN43      -0.2867
     32  CB        48.0940  -70.5730  -71.9040 C.3    43  GLN43       0.0367
     33  CG        46.9460  -69.7310  -71.3450 C.3    43  GLN43       0.0905
     34  CD        47.2500  -68.2350  -71.3180 C.2    43  GLN43       0.2608
     35  OE1       46.5300  -67.4600  -70.6920 O.2    43  GLN43      -0.2717
     36  NE2       48.3070  -67.8260  -72.0080 N.am   43  GLN43      -0.0878
     37  N         41.6060  -68.7510  -76.9420 N.3    55  LYS55      -0.1231
     38  CA        40.5350  -67.7450  -76.8490 C.3    55  LYS55       0.1693
     39  C         40.8230  -66.7390  -75.7350 C.2    55  LYS55       0.2592
     40  O         40.6000  -67.0220  -74.5560 O.2    55  LYS55      -0.2718
     41  CB        39.1700  -68.4230  -76.6450 C.3    55  LYS55       0.0285
     42  CG        38.0640  -67.5360  -76.0670 C.3    55  LYS55       0.0035
     43  CD        37.5340  -66.5150  -77.0550 C.3    55  LYS55       0.0206
     44  CE        36.5690  -65.5380  -76.3740 C.3    55  LYS55       0.1093
     45  NZ        35.5160  -66.2140  -75.5710 N.3    55  LYS55      -0.1314
     46  N         41.3540  -65.5780  -76.1160 N.am   56  VAL56      -0.1966
     47  CA        41.7020  -64.5190  -75.1710 C.3    56  VAL56       0.1712
     48  C         41.4860  -63.1580  -75.8210 C.2    56  VAL56       0.2458
     49  O         41.3590  -63.0650  -77.0420 O.2    56  VAL56      -0.2730
     50  CB        43.1880  -64.5750  -74.7650 C.3    56  VAL56       0.0289
     51  CG1       43.4830  -65.7840  -73.9010 C.3    56  VAL56       0.0023
     52  CG2       44.0780  -64.5330  -76.0120 C.3    56  VAL56       0.0023
     53  N         41.4360  -62.0930  -75.0070 N.am   57  PRO57      -0.2727
     54  CA        41.5050  -60.7550  -75.6060 C.3    57  PRO57       0.1402
     55  C         42.9140  -60.4710  -76.1370 C.2    57  PRO57       0.2269
     56  O         43.8920  -60.9070  -75.5210 O.2    57  PRO57      -0.2865
     57  CB        41.1510  -59.8210  -74.4380 C.3    57  PRO57       0.0296
     58  CG        41.3760  -60.6280  -73.1980 C.3    57  PRO57       0.0237
     59  CD        41.0940  -62.0490  -73.5730 C.3    57  PRO57       0.0939
     60  N         46.3690  -60.3790  -74.6840 N.3    60  TYR60      -0.1241
     61  CA        46.8350  -61.6160  -74.0690 C.3    60  TYR60       0.1605
     62  C         47.1890  -62.6800  -75.1070 C.2    60  TYR60       0.2264
     63  O         47.4470  -63.8320  -74.7450 O.2    60  TYR60      -0.2867
     64  CB        45.7800  -62.1610  -73.0960 C.3    60  TYR60       0.0534
     65  CG        45.6000  -61.3220  -71.8490 C.ar   60  TYR60      -0.0201
     66  CD1       46.6330  -61.1810  -70.9320 C.ar   60  TYR60      -0.0009
     67  CD2       44.3970  -60.6800  -71.5840 C.ar   60  TYR60      -0.0009
     68  CE1       46.4750  -60.4180  -69.7940 C.ar   60  TYR60       0.0417
     69  CE2       44.2310  -59.9160  -70.4480 C.ar   60  TYR60       0.0417
     70  CZ        45.2740  -59.7890  -69.5580 C.ar   60  TYR60       0.1957
     71  OH        45.1220  -59.0310  -68.4230 O.3    60  TYR60      -0.2866
     72  N         39.3310  -71.9620  -69.2880 N.3    86  ASN86      -0.1225
     73  CA        38.6990  -71.3300  -70.4430 C.3    86  ASN86       0.1785
     74  C         39.6990  -70.6280  -71.3700 C.2    86  ASN86       0.2597
     75  O         39.3560  -70.2360  -72.4910 O.2    86  ASN86      -0.2718
     76  CB        37.6160  -70.3490  -69.9890 C.3    86  ASN86       0.1169
     77  CG        38.1440  -69.3180  -69.0170 C.2    86  ASN86       0.2627
     78  OD1       38.2040  -69.5530  -67.8120 O.2    86  ASN86      -0.2716
     79  ND2       38.5410  -68.1660  -69.5390 N.am   86  ASN86      -0.0877
     80  N         40.9310  -70.4640  -70.8970 N.am   87  HIS87      -0.1975
     81  CA        41.9840  -69.8920  -71.7220 C.3    87  HIS87       0.1656
     82  C         43.0570  -70.9450  -71.9580 C.2    87  HIS87       0.2291
     83  O         43.9990  -71.0740  -71.1770 O.2    87  HIS87      -0.2864
     84  CB        42.5750  -68.6450  -71.0620 C.3    87  HIS87       0.0771
     85  CG        41.6060  -67.5060  -70.9470 C.ar   87  HIS87       0.0820
     86  ND1       40.8000  -67.1030  -71.9920 N.ar   87  HIS87      -0.2267
     87  CD2       41.3260  -66.6760  -69.9150 C.ar   87  HIS87       0.1154
     88  CE1       40.0590  -66.0800  -71.6040 C.ar   87  HIS87       0.1986
     89  NE2       40.3610  -65.7990  -70.3480 N.ar   87  HIS87      -0.2212
     90  N         34.6460  -74.4690  -68.6050 N.3   128  ILE128     -0.1245
     91  CA        33.6440  -73.6700  -67.8980 C.3   128  ILE128      0.1561
     92  C         32.2670  -73.8770  -68.5170 C.2   128  ILE128      0.2260
     93  O         32.1510  -74.2630  -69.6830 O.2   128  ILE128     -0.2867
     94  CB        33.9800  -72.1660  -67.8890 C.3   128  ILE128      0.0252
     95  CG1       33.8010  -71.5550  -69.2820 C.3   128  ILE128      0.0019
     96  CG2       35.3850  -71.9360  -67.3550 C.3   128  ILE128      0.0019
     97  CD1       33.8480  -70.0330  -69.2890 C.3   128  ILE128      0.0001
     98  N         28.6840  -73.1140  -70.1590 N.3   130  LYS130     -0.1245
     99  CA        27.7670  -72.2690  -70.9130 C.3   130  LYS130      0.1561
    100  C         26.6450  -73.1840  -71.3960 C.2   130  LYS130      0.2260
    101  O         26.9070  -74.1830  -72.0690 O.2   130  LYS130     -0.2867
    102  CB        28.4570  -71.6020  -72.1110 C.3   130  LYS130      0.0271
    103  CG        29.5630  -70.6040  -71.7640 C.3   130  LYS130      0.0035
    104  CD        29.0400  -69.3480  -71.0690 C.3   130  LYS130      0.0206
    105  CE        30.1750  -68.3580  -70.7980 C.3   130  LYS130      0.1093
    106  NZ        29.7400  -67.1750  -70.0020 N.3   130  LYS130     -0.1314
    107  N         24.4360  -73.1420  -73.7050 N.3   132  PHE132     -0.1241
    108  CA        24.2620  -73.3550  -75.1440 C.3   132  PHE132      0.1605
    109  C         25.2170  -74.3870  -75.7660 C.2   132  PHE132      0.2264
    110  O         24.9800  -74.8680  -76.8770 O.2   132  PHE132     -0.2867
    111  CB        24.3250  -72.0210  -75.9110 C.3   132  PHE132      0.0534
    112  CG        25.5260  -71.1760  -75.5810 C.ar  132  PHE132     -0.0203
    113  CD1       26.7280  -71.3650  -76.2480 C.ar  132  PHE132     -0.0042
    114  CD2       25.4440  -70.1760  -74.6230 C.ar  132  PHE132     -0.0042
    115  CE1       27.8350  -70.5850  -75.9510 C.ar  132  PHE132     -0.0003
    116  CE2       26.5450  -69.3890  -74.3190 C.ar  132  PHE132     -0.0003
    117  CZ        27.7430  -69.5940  -74.9840 C.ar  132  PHE132     -0.0000
    118  N         36.0160  -71.1050  -79.6200 N.3   148  VAL148     -0.1245
    119  CA        35.1420  -70.5470  -78.5960 C.3   148  VAL148      0.1561
    120  C         34.3070  -71.5990  -77.8630 C.2   148  VAL148      0.2260
    121  O         33.7900  -71.3410  -76.7850 O.2   148  VAL148     -0.2867
    122  CB        34.1920  -69.4950  -79.1960 C.3   148  VAL148      0.0252
    123  CG1       34.9730  -68.2930  -79.6940 C.3   148  VAL148      0.0019
    124  CG2       33.3820  -70.1050  -80.3270 C.3   148  VAL148      0.0019
    125  N         36.2760  -75.3750  -75.0180 N.3   151  PHE151     -0.1227
    126  CA        36.5370  -75.3930  -73.5770 C.3   151  PHE151      0.1736
    127  C         35.2710  -75.2790  -72.7360 C.2   151  PHE151      0.2595
    128  O         35.3460  -75.0490  -71.5300 O.2   151  PHE151     -0.2718
    129  CB        37.5190  -74.2880  -73.1840 C.3   151  PHE151      0.0547
    130  CG        37.0400  -72.9080  -73.5230 C.ar  151  PHE151     -0.0202
    131  CD1       36.2260  -72.2060  -72.6440 C.ar  151  PHE151     -0.0042
    132  CD2       37.4010  -72.3120  -74.7220 C.ar  151  PHE151     -0.0042
    133  CE1       35.7820  -70.9330  -72.9530 C.ar  151  PHE151     -0.0003
    134  CE2       36.9600  -71.0390  -75.0370 C.ar  151  PHE151     -0.0003
    135  CZ        36.1490  -70.3490  -74.1510 C.ar  151  PHE151     -0.0000
    136  N         34.1160  -75.4300  -73.3750 N.am  152  HIS152     -0.1975
    137  CA        32.8490  -75.4070  -72.6600 C.3   152  HIS152      0.1656
    138  C         32.4920  -76.8050  -72.1590 C.2   152  HIS152      0.2291
    139  O         32.3820  -77.7450  -72.9410 O.2   152  HIS152     -0.2864
    140  CB        31.7420  -74.8330  -73.5500 C.3   152  HIS152      0.0771
    141  CG        31.8460  -73.3520  -73.7590 C.ar  152  HIS152      0.0820
    142  ND1       31.3690  -72.7240  -74.8910 N.ar  152  HIS152     -0.2267
    143  CD2       32.3750  -72.3780  -72.9840 C.ar  152  HIS152      0.1154
    144  CE1       31.6020  -71.4240  -74.8020 C.ar  152  HIS152      0.1986
    145  NE2       32.2140  -71.1900  -73.6530 N.ar  152  HIS152     -0.2212
    146  N         35.3560  -58.2500  -54.5670 N.3   195  GLN195     -0.1245
    147  CA        34.9040  -58.3470  -55.9510 C.3   195  GLN195      0.1566
    148  C         33.3810  -58.2550  -56.0040 C.2   195  GLN195      0.2260
    149  O         32.6930  -59.2750  -56.0380 O.2   195  GLN195     -0.2867
    150  CB        35.3720  -59.6530  -56.6000 C.3   195  GLN195      0.0367
    151  CG        36.6650  -60.2320  -56.0310 C.3   195  GLN195      0.0905
    152  CD        37.8930  -59.4080  -56.3710 C.2   195  GLN195      0.2608
    153  OE1       37.8660  -58.5670  -57.2690 O.2   195  GLN195     -0.2717
    154  NE2       38.9810  -59.6510  -55.6490 N.am  195  GLN195     -0.0878
    155  N         31.4730  -57.6550  -58.2820 N.3   197  GLY197     -0.1210
    156  CA        30.8920  -58.0990  -59.5370 C.3   197  GLY197      0.1956
    157  C         30.2190  -59.4550  -59.4110 C.2   197  GLY197      0.2611
    158  O         29.7250  -60.0060  -60.3960 O.2   197  GLY197     -0.2717
    159  N         30.1940  -59.9850  -58.1920 N.am  198  PHE198     -0.1976
    160  CA        29.6450  -61.3100  -57.9260 C.3   198  PHE198      0.1639
    161  C         28.2510  -61.2230  -57.3020 C.2   198  PHE198      0.2290
    162  O         27.4860  -62.1900  -57.3270 O.2   198  PHE198     -0.2864
    163  CB        30.5740  -62.0950  -56.9950 C.3   198  PHE198      0.0560
    164  CG        31.9650  -62.2900  -57.5340 C.ar  198  PHE198     -0.0200
    165  CD1       32.2250  -62.2040  -58.8940 C.ar  198  PHE198     -0.0042
    166  CD2       33.0140  -62.5660  -56.6710 C.ar  198  PHE198     -0.0042
    167  CE1       33.5080  -62.3810  -59.3830 C.ar  198  PHE198     -0.0003
    168  CE2       34.2960  -62.7530  -57.1530 C.ar  198  PHE198     -0.0003
    169  CZ        34.5460  -62.6560  -58.5100 C.ar  198  PHE198     -0.0000
    170  N         25.9800  -59.4570  -58.4640 N.3   200  LYS200     -0.1231
    171  CA        25.1790  -59.5470  -59.6790 C.3   200  LYS200      0.1693
    172  C         24.8180  -60.9990  -59.9990 C.2   200  LYS200      0.2592
    173  O         23.8360  -61.2730  -60.6940 O.2   200  LYS200     -0.2718
    174  CB        25.9680  -58.9320  -60.8380 C.3   200  LYS200      0.0285
    175  CG        25.2340  -58.8670  -62.1650 C.3   200  LYS200      0.0035
    176  CD        26.0690  -58.1390  -63.2080 C.3   200  LYS200      0.0206
    177  CE        25.2610  -57.8550  -64.4590 C.3   200  LYS200      0.1093
    178  NZ        24.7590  -59.1120  -65.0770 N.3   200  LYS200     -0.1314
    179  N         25.6230  -61.9220  -59.4820 N.am  201  ASP201     -0.1974
    180  CA        25.4060  -63.3470  -59.6930 C.3   201  ASP201      0.1709
    181  C         24.6980  -64.0000  -58.5040 C.2   201  ASP201      0.2293
    182  O         23.6530  -64.6300  -58.6660 O.2   201  ASP201     -0.2864
    183  CB        26.7360  -64.0540  -59.9780 C.3   201  ASP201      0.1436
    184  CG        27.4600  -63.4820  -61.1910 C.2   201  ASP201      0.3671
    185  OD1       27.0840  -63.8330  -62.3300 O.co2 201  ASP201     -0.2456
    186  OD2       28.4100  -62.6890  -61.0030 O.co2 201  ASP201     -0.2456
    187  N         25.8490  -68.1240  -59.4220 N.3   205  LEU205     -0.1245
    188  CA        27.2560  -68.1360  -59.8240 C.3   205  LEU205      0.1561
    189  C         27.8040  -69.5490  -59.9770 C.2   205  LEU205      0.2260
    190  O         27.6610  -70.3760  -59.0760 O.2   205  LEU205     -0.2867
    191  CB        28.1050  -67.3610  -58.8070 C.3   205  LEU205      0.0270
    192  CG        29.5090  -66.8740  -59.1910 C.3   205  LEU205      0.0019
    193  CD1       29.9730  -65.7830  -58.2390 C.3   205  LEU205      0.0001
    194  CD2       30.5300  -68.0000  -59.2000 C.3   205  LEU205      0.0001
    195  N         39.5660  -69.8560  -61.7900 N.3   226  HIS226     -0.1226
    196  CA        38.7210  -68.9990  -62.6200 C.3   226  HIS226      0.1752
    197  C         38.3380  -67.6210  -62.0640 C.2   226  HIS226      0.2596
    198  O         38.2500  -66.6550  -62.8270 O.2   226  HIS226     -0.2718
    199  CB        37.4600  -69.7410  -63.0620 C.3   226  HIS226      0.0759
    200  CG        36.6770  -69.0140  -64.1140 C.ar  226  HIS226      0.0818
    201  ND1       37.2740  -68.4300  -65.2070 N.ar  226  HIS226     -0.2268
    202  CD2       35.3490  -68.7840  -64.2350 C.ar  226  HIS226      0.1154
    203  CE1       36.3440  -67.8650  -65.9630 C.ar  226  HIS226      0.1986
    204  NE2       35.1690  -68.0700  -65.3970 N.ar  226  HIS226     -0.2212
    205  N         38.1000  -67.5300  -60.7570 N.am  227  MET227     -0.1965
    206  CA        37.4840  -66.3310  -60.1840 C.3   227  MET227      0.1736
    207  C         38.4570  -65.2550  -59.6890 C.2   227  MET227      0.2616
    208  O         38.0250  -64.1700  -59.2910 O.2   227  MET227     -0.2715
    209  CB        36.4970  -66.7050  -59.0720 C.3   227  MET227      0.0427
    210  CG        35.1690  -67.2190  -59.5900 C.3   227  MET227      0.0599
    211  SD        34.8010  -66.5140  -61.2050 S.3   227  MET227     -0.1393
    212  CE        33.0170  -66.4680  -61.1540 C.3   227  MET227      0.0692
    213  N         39.7550  -65.5540  -59.7170 N.am  228  HIS228     -0.1973
    214  CA        40.7940  -64.6020  -59.3170 C.3   228  HIS228      0.1656
    215  C         40.6290  -64.1280  -57.8720 C.2   228  HIS228      0.2291
    216  O         41.0180  -63.0080  -57.5320 O.2   228  HIS228     -0.2864
    217  CB        40.8350  -63.3900  -60.2600 C.3   228  HIS228      0.0771
    218  CG        40.8190  -63.7480  -61.7150 C.ar  228  HIS228      0.0820
    219  ND1       40.3780  -62.8760  -62.6880 N.ar  228  HIS228     -0.2267
    220  CD2       41.1870  -64.8790  -62.3620 C.ar  228  HIS228      0.1154
    221  CE1       40.4750  -63.4550  -63.8720 C.ar  228  HIS228      0.1986
    222  NE2       40.9620  -64.6730  -63.7010 N.ar  228  HIS228     -0.2212
    223  N         44.7490  -65.8930  -59.5420 N.3   245  LYS245     -0.1245
    224  CA        45.6450  -66.0560  -60.6870 C.3   245  LYS245      0.1561
    225  C         47.1090  -65.7530  -60.3700 C.2   245  LYS245      0.2260
    226  O         47.4080  -64.8680  -59.5700 O.2   245  LYS245     -0.2867
    227  CB        45.1620  -65.2360  -61.8890 C.3   245  LYS245      0.0271
    228  CG        45.0640  -63.7300  -61.6730 C.3   245  LYS245      0.0035
    229  CD        44.4310  -63.0800  -62.9000 C.3   245  LYS245      0.0206
    230  CE        44.4830  -61.5580  -62.8600 C.3   245  LYS245      0.1093
    231  NZ        43.9500  -60.9740  -64.1290 N.3   245  LYS245     -0.1314
@<TRIPOS>BOND
     1   124   122    1
     2   123   122    1
     3   118   119    1
     4   122   119    1
     5   119   120    1
     6   120   121    2
     7    43    44    1
     8    43    42    1
     9    49    48    2
    10    37    38    1
    11   110   109    2
    12    38    41    1
    13    38    39    1
    14    41    42    1
    15    44    45    1
    16   113   115   ar
    17   113   112   ar
    18    55    54    1
    19    55    56    2
    20    46    39   am
    21    46    47    1
    22    52    50    1
    23   115   117   ar
    24   111   112    1
    25   111   108    1
    26    48    47    1
    27    48    53   am
    28   109   108    1
    29    39    40    2
    30    54    53    1
    31    54    57    1
    32   112   114   ar
    33    47    50    1
    34   108   107    1
    35    62    63    2
    36    62    61    1
    37   134   132   ar
    38   134   135   ar
    39   125   126    1
    40    53    59    1
    41   117   116   ar
    42   142   144   ar
    43   142   141   ar
    44   144   145   ar
    45    50    51    1
    46   132   130   ar
    47    60    61    1
    48   114   116   ar
    49    57    58    1
    50   135   133   ar
    51    61    64    1
    52   141   140    1
    53   141   143   ar
    54   145   143   ar
    55   126   129    1
    56   126   127    1
    57    59    58    1
    58   140   137    1
    59   130   129    1
    60   130   131   ar
    61   136   127   am
    62   136   137    1
    63    64    65    1
    64   133   131   ar
    65   139   138    2
    66   127   128    2
    67    31    30    2
    68   137   138    1
    69    30    29    1
    70    75    74    2
    71   102   103    1
    72   102    99    1
    73   101   100    2
    74    29    32    1
    75    29    28    1
    76    36    34   am
    77    86    88   ar
    78    86    85   ar
    79    82    81    1
    80    82    83    2
    81    32    33    1
    82    65    67   ar
    83    65    66   ar
    84   103   104    1
    85    81    84    1
    86    81    80    1
    87    88    89   ar
    88    67    69   ar
    89   100    99    1
    90    74    80   am
    91    74    73    1
    92    33    34    1
    93    34    35    2
    94   104   105    1
    95    84    85    1
    96    85    87   ar
    97    66    68   ar
    98    99    98    1
    99   105   106    1
   100    69    70   ar
   101    73    76    1
   102    73    72    1
   103    89    87   ar
   104    76    77    1
   105    68    70   ar
   106    93    92    2
   107    70    71    1
   108    79    77   am
   109    97    95    1
   110    95    94    1
   111    77    78    2
   112     4     3    2
   113    90    91    1
   114    92    91    1
   115     3     2    1
   116    26    25   ar
   117    22    21    1
   118    22    23    2
   119    91    94    1
   120    94    96    1
   121    21    24    1
   122    21    20    1
   123     7     9   ar
   124     7     6   ar
   125     2     5    1
   126     2     1    1
   127    25    24    1
   128    25    27   ar
   129     5     6    1
   130     9    10   ar
   131    11    12    1
   132     6     8   ar
   133    19    18    1
   134    12    13    1
   135    12    15    1
   136   203   204   ar
   137   203   201   ar
   138    10     8   ar
   139    16    15    1
   140    16    17    1
   141    18    17    1
   142    13    14    2
   143   204   202   ar
   144   201   200   ar
   145   178   177    1
   146   177   176    1
   147   202   200   ar
   148   231   230    1
   149   200   199    1
   150   221   222   ar
   151   221   219   ar
   152   222   220   ar
   153   176   175    1
   154   199   196    1
   155   229   230    1
   156   229   228    1
   157   198   197    2
   158   219   218   ar
   159   196   197    1
   160   196   195    1
   161   220   218   ar
   162   185   184   ar
   163   175   174    1
   164   197   205   am
   165   227   228    1
   166   227   224    1
   167   218   217    1
   168   211   212    1
   169   211   210    1
   170   184   186   ar
   171   184   183    1
   172   174   171    1
   173   205   206    1
   174   173   172    2
   175   224   225    1
   176   224   223    1
   177   158   157    2
   178   225   226    2
   179   217   214    1
   180   206   207    1
   181   206   209    1
   182   172   171    1
   183   172   179   am
   184   183   180    1
   185   189   188    1
   186   189   190    2
   187   188   187    1
   188   188   191    1
   189   213   207   am
   190   213   214    1
   191   180   179    1
   192   180   181    1
   193   207   208    2
   194   171   170    1
   195   210   209    1
   196   156   157    1
   197   156   155    1
   198   157   159   am
   199   167   165   ar
   200   167   169   ar
   201   214   215    1
   202   194   192    1
   203   192   191    1
   204   192   193    1
   205   165   164   ar
   206   182   181    2
   207   169   168   ar
   208   159   160    1
   209   160   161    1
   210   160   163    1
   211   215   216    2
   212   164   163    1
   213   164   166   ar
   214   162   161    2
   215   153   152    2
   216   168   166   ar
   217   150   151    1
   218   150   147    1
   219   152   151    1
   220   152   154   am
   221   149   148    2
   222   148   147    1
   223   147   146    1
