@<TRIPOS>MOLECULE
tmp/4pehA00.pdb
 228 219 0 0 0
SMALL
GASTEIGER

@<TRIPOS>ATOM
      1  N          1.5520  -26.7850  -19.5960 N.3    10  SER10      -0.1217
      2  CA         2.6040  -26.6160  -20.5960 C.3    10  SER10       0.1889
      3  C          3.9690  -26.3320  -19.9570 C.2    10  SER10       0.2288
      4  O          4.1070  -25.3790  -19.1950 O.2    10  SER10      -0.2866
      5  CB         2.2310  -25.4580  -21.5240 C.3    10  SER10       0.2089
      6  OG         0.9320  -25.6320  -22.0790 O.3    10  SER10      -0.2183
      7  N          6.9530  -25.8520  -21.8100 N.3    12  HIS12      -0.1241
      8  CA         7.6980  -24.9600  -22.6960 C.3    12  HIS12       0.1621
      9  C          9.2030  -25.0310  -22.4430 C.2    12  HIS12       0.2264
     10  O          9.8950  -24.0080  -22.4750 O.2    12  HIS12      -0.2867
     11  CB         7.2080  -23.5080  -22.5700 C.3    12  HIS12       0.0745
     12  CG         5.8270  -23.2810  -23.1040 C.ar   12  HIS12       0.0817
     13  ND1        5.4550  -23.6300  -24.3850 N.ar   12  HIS12      -0.2268
     14  CD2        4.7360  -22.7160  -22.5370 C.ar   12  HIS12       0.1154
     15  CE1        4.1880  -23.3090  -24.5780 C.ar   12  HIS12       0.1986
     16  NE2        3.7280  -22.7500  -23.4690 N.ar   12  HIS12      -0.2212
     17  N         10.9030  -25.6330  -19.7120 N.3    14  LYS14      -0.1245
     18  CA        11.3890  -25.0700  -18.4480 C.3    14  LYS14       0.1561
     19  C         11.4480  -26.1220  -17.3470 C.2    14  LYS14       0.2260
     20  O         10.7720  -25.9970  -16.3220 O.2    14  LYS14      -0.2867
     21  CB        10.4880  -23.9260  -17.9820 C.3    14  LYS14       0.0271
     22  CG        10.2430  -22.8400  -19.0190 C.3    14  LYS14       0.0035
     23  CD        10.8010  -21.5040  -18.5590 C.3    14  LYS14       0.0206
     24  CE        10.4020  -20.3810  -19.5140 C.3    14  LYS14       0.1093
     25  NZ        11.3950  -19.2660  -19.5170 N.3    14  LYS14      -0.1314
     26  N          3.6060  -29.7070  -24.6490 N.3    41  ASP41      -0.1239
     27  CA         4.5410  -28.6180  -24.9490 C.3    41  ASP41       0.1674
     28  C          5.8510  -28.8180  -24.1880 C.2    41  ASP41       0.2266
     29  O          6.3640  -27.9050  -23.5370 O.2    41  ASP41      -0.2867
     30  CB         3.9160  -27.2360  -24.6900 C.3    41  ASP41       0.1410
     31  CG         2.9080  -26.8460  -25.7550 C.2    41  ASP41       0.3668
     32  OD1        2.8750  -27.5120  -26.8110 O.co2  41  ASP41      -0.2456
     33  OD2        2.1600  -25.8640  -25.5440 O.co2  41  ASP41      -0.2456
     34  N          8.8450  -29.7660  -25.4820 N.3    43  GLN43      -0.1245
     35  CA         9.9930  -29.2320  -26.2120 C.3    43  GLN43       0.1566
     36  C         11.2700  -30.0040  -25.8890 C.2    43  GLN43       0.2260
     37  O         12.2700  -29.4280  -25.4570 O.2    43  GLN43      -0.2867
     38  CB        10.1460  -27.7280  -25.9410 C.3    43  GLN43       0.0367
     39  CG         8.9330  -26.9330  -26.4240 C.3    43  GLN43       0.0905
     40  CD         8.9950  -25.4410  -26.1010 C.2    43  GLN43       0.2608
     41  OE1        7.9610  -24.7780  -26.0280 O.2    43  GLN43      -0.2717
     42  NE2       10.1990  -24.9100  -25.9210 N.am   43  GLN43      -0.0878
     43  N          8.0410  -26.1700  -33.9490 N.3    55  LYS55      -0.1231
     44  CA         7.1970  -25.1040  -34.4810 C.3    55  LYS55       0.1693
     45  C          6.8080  -24.1500  -33.3560 C.2    55  LYS55       0.2592
     46  O          6.0780  -24.5290  -32.4360 O.2    55  LYS55      -0.2718
     47  CB         5.9520  -25.6790  -35.1590 C.3    55  LYS55       0.0285
     48  CG         4.7960  -24.6880  -35.3160 C.3    55  LYS55       0.0035
     49  CD         4.7360  -24.0730  -36.6990 C.3    55  LYS55       0.0206
     50  CE         3.6060  -23.0450  -36.7950 C.3    55  LYS55       0.1093
     51  NZ         2.3130  -23.5390  -36.2360 N.3    55  LYS55      -0.1314
     52  N          7.3300  -22.9260  -33.4250 N.am   56  VAL56      -0.1966
     53  CA         7.0600  -21.8840  -32.4340 C.3    56  VAL56       0.1712
     54  C          7.1610  -20.5290  -33.1150 C.2    56  VAL56       0.2458
     55  O          7.7760  -20.4120  -34.1770 O.2    56  VAL56      -0.2730
     56  CB         8.0840  -21.8980  -31.2660 C.3    56  VAL56       0.0289
     57  CG1        7.8480  -23.0710  -30.3260 C.3    56  VAL56       0.0023
     58  CG2        9.5040  -21.9000  -31.7990 C.3    56  VAL56       0.0023
     59  N          6.5570  -19.4940  -32.5150 N.am   57  PRO57      -0.2727
     60  CA         6.8540  -18.1560  -33.0370 C.3    57  PRO57       0.1402
     61  C          8.3180  -17.8410  -32.7680 C.2    57  PRO57       0.2269
     62  O          8.8650  -18.3570  -31.7880 O.2    57  PRO57      -0.2865
     63  CB         5.9400  -17.2420  -32.2160 C.3    57  PRO57       0.0296
     64  CG         5.5920  -18.0230  -30.9960 C.3    57  PRO57       0.0237
     65  CD         5.6000  -19.4650  -31.3960 C.3    57  PRO57       0.0939
     66  N         10.3200  -17.6810  -29.5530 N.3    60  TYR60      -0.1241
     67  CA        10.3220  -18.8810  -28.7300 C.3    60  TYR60       0.1605
     68  C         11.1860  -20.0080  -29.3110 C.2    60  TYR60       0.2264
     69  O         11.2160  -21.1180  -28.7700 O.2    60  TYR60      -0.2867
     70  CB         8.8850  -19.3490  -28.4660 C.3    60  TYR60       0.0534
     71  CG         8.1200  -18.4280  -27.5340 C.ar   60  TYR60      -0.0201
     72  CD1        8.5850  -18.1730  -26.2510 C.ar   60  TYR60      -0.0009
     73  CD2        6.9420  -17.8160  -27.9350 C.ar   60  TYR60      -0.0009
     74  CE1        7.9020  -17.3320  -25.3990 C.ar   60  TYR60       0.0417
     75  CE2        6.2490  -16.9770  -27.0870 C.ar   60  TYR60       0.0417
     76  CZ         6.7350  -16.7400  -25.8200 C.ar   60  TYR60       0.1957
     77  OH         6.0590  -15.9040  -24.9630 O.3    60  TYR60      -0.2866
     78  N          1.6280  -28.9370  -28.8850 N.3    86  ASN86      -0.1225
     79  CA         1.8090  -28.3290  -30.2030 C.3    86  ASN86       0.1785
     80  C          3.1930  -27.6980  -30.3690 C.2    86  ASN86       0.2597
     81  O          3.5650  -27.2820  -31.4710 O.2    86  ASN86      -0.2718
     82  CB         0.7060  -27.3010  -30.4890 C.3    86  ASN86       0.1169
     83  CG         0.5920  -26.2480  -29.4010 C.2    86  ASN86       0.2627
     84  OD1        0.1330  -26.5310  -28.2900 O.2    86  ASN86      -0.2716
     85  ND2        1.0130  -25.0240  -29.7120 N.am   86  ASN86      -0.0877
     86  N          3.9500  -27.6300  -29.2750 N.am   87  HIS87      -0.1975
     87  CA         5.3300  -27.1570  -29.3230 C.3    87  HIS87       0.1656
     88  C          6.2670  -28.2710  -28.8550 C.2    87  HIS87       0.2291
     89  O          6.4880  -28.4450  -27.6560 O.2    87  HIS87      -0.2864
     90  CB         5.5030  -25.9050  -28.4570 C.3    87  HIS87       0.0771
     91  CG         4.6680  -24.7420  -28.8980 C.ar   87  HIS87       0.0820
     92  ND1        4.6260  -24.3080  -30.2080 N.ar   87  HIS87      -0.2267
     93  CD2        3.8490  -23.9170  -28.2050 C.ar   87  HIS87       0.1154
     94  CE1        3.8100  -23.2740  -30.3020 C.ar   87  HIS87       0.1986
     95  NE2        3.3290  -23.0110  -29.0980 N.ar   87  HIS87      -0.2212
     96  N         -2.5990  -31.4390  -30.8980 N.3   128  ILE128     -0.1245
     97  CA        -3.8010  -30.6090  -30.9230 C.3   128  ILE128      0.1561
     98  C         -4.5790  -30.8350  -32.2160 C.2   128  ILE128      0.2260
     99  O         -4.0520  -31.3830  -33.1910 O.2   128  ILE128     -0.2867
    100  CB        -3.4980  -29.1080  -30.7750 C.3   128  ILE128      0.0252
    101  CG1       -2.6780  -28.6000  -31.9670 C.3   128  ILE128      0.0019
    102  CG2       -2.8100  -28.8250  -29.4510 C.3   128  ILE128      0.0019
    103  CD1       -2.5400  -27.0910  -32.0010 C.3   128  ILE128      0.0001
    104  N         -6.4460  -30.0810  -35.6560 N.3   130  LYS130     -0.1245
    105  CA        -6.7040  -29.3000  -36.8610 C.3   130  LYS130      0.1561
    106  C         -7.4050  -30.2250  -37.8490 C.2   130  LYS130      0.2260
    107  O         -6.8740  -31.2830  -38.1910 O.2   130  LYS130     -0.2867
    108  CB        -5.4030  -28.7660  -37.4650 C.3   130  LYS130      0.0271
    109  CG        -4.7430  -27.6580  -36.6580 C.3   130  LYS130      0.0035
    110  CD        -5.5910  -26.3970  -36.6410 C.3   130  LYS130      0.0206
    111  CE        -5.0800  -25.3920  -35.6190 C.3   130  LYS130      0.1093
    112  NZ        -6.0160  -24.2490  -35.4570 N.3   130  LYS130     -0.1314
    113  N         -7.8600  -30.3190  -41.0130 N.3   132  PHE132     -0.1241
    114  CA        -7.1960  -30.6290  -42.2810 C.3   132  PHE132      0.1605
    115  C         -6.0850  -31.6930  -42.2020 C.2   132  PHE132      0.2264
    116  O         -5.6430  -32.1990  -43.2360 O.2   132  PHE132     -0.2867
    117  CB        -6.6830  -29.3530  -42.9730 C.3   132  PHE132      0.0534
    118  CG        -5.6810  -28.5690  -42.1670 C.ar  132  PHE132     -0.0203
    119  CD1       -4.3360  -28.9140  -42.1820 C.ar  132  PHE132     -0.0042
    120  CD2       -6.0810  -27.4650  -41.4250 C.ar  132  PHE132     -0.0042
    121  CE1       -3.4100  -28.1910  -41.4510 C.ar  132  PHE132     -0.0003
    122  CE2       -5.1610  -26.7330  -40.6910 C.ar  132  PHE132     -0.0003
    123  CZ        -3.8230  -27.0980  -40.7030 C.ar  132  PHE132     -0.0000
    124  N          5.1500  -28.5940  -39.3280 N.3   148  VAL148     -0.1245
    125  CA         3.8810  -27.9280  -39.0810 C.3   148  VAL148      0.1561
    126  C          2.6950  -28.8750  -38.9180 C.2   148  VAL148      0.2260
    127  O          1.6320  -28.4560  -38.4870 O.2   148  VAL148     -0.2867
    128  CB         3.5490  -26.9350  -40.2080 C.3   148  VAL148      0.0252
    129  CG1        4.3810  -25.6740  -40.0680 C.3   148  VAL148      0.0019
    130  CG2        3.7750  -27.5830  -41.5630 C.3   148  VAL148      0.0019
    131  N          2.4110  -32.5620  -35.1350 N.3   151  PHE151     -0.1227
    132  CA         1.8160  -32.4930  -33.8050 C.3   151  PHE151      0.1736
    133  C          0.2880  -32.4050  -33.8380 C.2   151  PHE151      0.2595
    134  O         -0.3620  -32.2320  -32.8020 O.2   151  PHE151     -0.2718
    135  CB         2.4030  -31.3170  -33.0210 C.3   151  PHE151      0.0547
    136  CG         2.1870  -29.9820  -33.6780 C.ar  151  PHE151     -0.0202
    137  CD1        1.0070  -29.2760  -33.4740 C.ar  151  PHE151     -0.0042
    138  CD2        3.1630  -29.4330  -34.4980 C.ar  151  PHE151     -0.0042
    139  CE1        0.8050  -28.0400  -34.0760 C.ar  151  PHE151     -0.0003
    140  CE2        2.9680  -28.2020  -35.1070 C.ar  151  PHE151     -0.0003
    141  CZ         1.7900  -27.5060  -34.8970 C.ar  151  PHE151     -0.0000
    142  N         -0.2890  -32.5290  -35.0260 N.am  152  HIS152     -0.1975
    143  CA        -1.7350  -32.5150  -35.1400 C.3   152  HIS152      0.1656
    144  C         -2.3080  -33.8950  -34.8110 C.2   152  HIS152      0.2291
    145  O         -1.8180  -34.9040  -35.3170 O.2   152  HIS152     -0.2864
    146  CB        -2.1370  -32.0610  -36.5410 C.3   152  HIS152      0.0771
    147  CG        -1.8650  -30.6090  -36.8040 C.ar  152  HIS152      0.0820
    148  ND1       -1.5500  -30.1240  -38.0520 N.ar  152  HIS152     -0.2267
    149  CD2       -1.8720  -29.5400  -35.9700 C.ar  152  HIS152      0.1154
    150  CE1       -1.3720  -28.8120  -37.9800 C.ar  152  HIS152      0.1986
    151  NE2       -1.5610  -28.4370  -36.7310 N.ar  152  HIS152     -0.2212
    152  N        -10.3850  -14.6850  -19.5030 N.3   195  GLN195     -0.1245
    153  CA        -9.8720  -15.0180  -20.8310 C.3   195  GLN195      0.1566
    154  C        -10.8810  -14.6460  -21.9160 C.2   195  GLN195      0.2260
    155  O        -11.5340  -15.5240  -22.4830 O.2   195  GLN195     -0.2867
    156  CB        -9.5540  -16.5140  -20.9260 C.3   195  GLN195      0.0367
    157  CG        -8.7190  -17.0730  -19.7760 C.3   195  GLN195      0.0905
    158  CD        -7.3090  -16.5210  -19.7460 C.2   195  GLN195      0.2608
    159  OE1       -6.7850  -16.0640  -20.7650 O.2   195  GLN195     -0.2717
    160  NE2       -6.6820  -16.5600  -18.5720 N.am  195  GLN195     -0.0878
    161  N        -10.6990  -13.9640  -24.9170 N.3   197  GLY197     -0.1210
    162  CA       -10.4730  -14.5580  -26.2230 C.3   197  GLY197      0.1956
    163  C        -11.1250  -15.9110  -26.4490 C.2   197  GLY197      0.2611
    164  O        -11.1200  -16.4150  -27.5720 O.2   197  GLY197     -0.2717
    165  N        -11.6920  -16.5000  -25.3980 N.am  198  PHE198     -0.1976
    166  CA       -12.2570  -17.8480  -25.4910 C.3   198  PHE198      0.1639
    167  C        -13.7380  -17.7840  -25.8420 C.2   198  PHE198      0.2290
    168  O        -14.3130  -18.7500  -26.3480 O.2   198  PHE198     -0.2864
    169  CB       -12.0950  -18.6210  -24.1720 C.3   198  PHE198      0.0560
    170  CG       -10.6640  -18.8400  -23.7430 C.ar  198  PHE198     -0.0200
    171  CD1       -9.5980  -18.3790  -24.5040 C.ar  198  PHE198     -0.0042
    172  CD2      -10.3910  -19.5270  -22.5670 C.ar  198  PHE198     -0.0042
    173  CE1       -8.2870  -18.5810  -24.0940 C.ar  198  PHE198     -0.0003
    174  CE2       -9.0850  -19.7400  -22.1540 C.ar  198  PHE198     -0.0003
    175  CZ        -8.0310  -19.2620  -22.9160 C.ar  198  PHE198     -0.0000
    176  N        -15.0900  -18.6960  -29.6600 N.3   201  ASP201     -0.1239
    177  CA       -15.2060  -20.0830  -30.0990 C.3   201  ASP201      0.1674
    178  C        -16.4430  -20.7500  -29.4990 C.2   201  ASP201      0.2266
    179  O        -16.9900  -21.6980  -30.0730 O.2   201  ASP201     -0.2867
    180  CB       -13.9470  -20.8800  -29.7450 C.3   201  ASP201      0.1410
    181  CG       -12.7310  -20.4450  -30.5490 C.2   201  ASP201      0.3668
    182  OD1      -12.5570  -20.9440  -31.6830 O.co2 201  ASP201     -0.2456
    183  OD2      -11.9440  -19.6160  -30.0420 O.co2 201  ASP201     -0.2456
    184  N        -14.9030  -24.5410  -28.7390 N.3   205  LEU205     -0.1245
    185  CA       -13.5310  -24.4640  -28.2420 C.3   205  LEU205      0.1561
    186  C        -13.0160  -25.8400  -27.8480 C.2   205  LEU205      0.2260
    187  O        -13.6710  -26.5540  -27.0840 O.2   205  LEU205     -0.2867
    188  CB       -13.4330  -23.5180  -27.0420 C.3   205  LEU205      0.0270
    189  CG       -12.0360  -23.4530  -26.4140 C.3   205  LEU205      0.0019
    190  CD1      -11.3740  -22.1230  -26.6860 C.3   205  LEU205      0.0001
    191  CD2      -12.0750  -23.7190  -24.9280 C.3   205  LEU205      0.0001
    192  N         -2.5190  -26.2290  -22.2400 N.3   226  HIS226     -0.1226
    193  CA        -2.5470  -25.5820  -23.5640 C.3   226  HIS226      0.1752
    194  C         -3.1450  -24.1760  -23.5190 C.2   226  HIS226      0.2596
    195  O         -2.6300  -23.2590  -24.1660 O.2   226  HIS226     -0.2718
    196  CB        -3.2850  -26.4240  -24.6240 C.3   226  HIS226      0.0759
    197  CG        -3.3210  -25.7960  -25.9840 C.ar  226  HIS226      0.0818
    198  ND1       -2.1810  -25.3980  -26.6480 N.ar  226  HIS226     -0.2268
    199  CD2       -4.3560  -25.5000  -26.8020 C.ar  226  HIS226      0.1154
    200  CE1       -2.5130  -24.8770  -27.8170 C.ar  226  HIS226      0.1986
    201  NE2       -3.8300  -24.9270  -27.9340 N.ar  226  HIS226     -0.2212
    202  N         -4.2240  -24.0120  -22.7530 N.am  227  MET227     -0.1965
    203  CA        -5.0170  -22.7770  -22.7780 C.3   227  MET227      0.1736
    204  C         -4.5450  -21.6580  -21.8450 C.2   227  MET227      0.2616
    205  O         -5.2230  -20.6320  -21.7170 O.2   227  MET227     -0.2715
    206  CB        -6.4890  -23.0860  -22.4970 C.3   227  MET227      0.0427
    207  CG        -7.1300  -23.9990  -23.5280 C.3   227  MET227      0.0599
    208  SD        -7.0560  -23.3530  -25.2100 S.3   227  MET227     -0.1393
    209  CE        -8.1920  -21.9840  -25.0810 C.3   227  MET227      0.0692
    210  N         -3.3970  -21.8540  -21.2000 N.am  228  HIS228     -0.1973
    211  CA        -2.7970  -20.8330  -20.3330 C.3   228  HIS228      0.1656
    212  C         -3.7360  -20.3380  -19.2340 C.2   228  HIS228      0.2291
    213  O         -3.7660  -19.1460  -18.9260 O.2   228  HIS228     -0.2864
    214  CB        -2.3000  -19.6380  -21.1590 C.3   228  HIS228      0.0771
    215  CG        -1.3330  -20.0120  -22.2390 C.ar  228  HIS228      0.0820
    216  ND1       -1.3020  -19.3750  -23.4590 N.ar  228  HIS228     -0.2267
    217  CD2       -0.3680  -20.9610  -22.2820 C.ar  228  HIS228      0.1154
    218  CE1       -0.3580  -19.9140  -24.2100 C.ar  228  HIS228      0.1986
    219  NE2        0.2240  -20.8790  -23.5190 N.ar  228  HIS228     -0.2212
    220  N          0.5820  -22.5170  -17.9320 N.3   245  LYS245     -0.1245
    221  CA         1.9490  -22.7840  -18.3730 C.3   245  LYS245      0.1561
    222  C          3.0030  -22.4780  -17.3120 C.2   245  LYS245      0.2260
    223  O          2.9020  -21.4820  -16.5900 O.2   245  LYS245     -0.2867
    224  CB         2.2620  -22.0450  -19.6810 C.3   245  LYS245      0.0271
    225  CG         2.3420  -20.5270  -19.5950 C.3   245  LYS245      0.0035
    226  CD         2.7740  -19.9660  -20.9540 C.3   245  LYS245      0.0206
    227  CE         2.9210  -18.4560  -20.9460 C.3   245  LYS245      0.1093
    228  NZ         3.7980  -17.9870  -22.0600 N.3   245  LYS245     -0.1314
@<TRIPOS>BOND
     1   116   115    2
     2   117   114    1
     3   117   118    1
     4   114   115    1
     5   114   113    1
     6   119   118   ar
     7   119   121   ar
     8   118   120   ar
     9   130   128    1
    10   121   123   ar
    11   120   122   ar
    12   123   122   ar
    13   128   129    1
    14   128   125    1
    15   124   125    1
    16   125   126    1
    17   126   127    2
    18   107   106    2
    19   148   150   ar
    20   148   147   ar
    21   150   151   ar
    22   106   105    1
    23   108   105    1
    24   108   109    1
    25   105   104    1
    26   147   146    1
    27   147   149   ar
    28    50    49    1
    29    50    51    1
    30   151   149   ar
    31    49    48    1
    32   109   110    1
    33   110   111    1
    34   146   143    1
    35   111   112    1
    36   145   144    2
    37    48    47    1
    38    47    44    1
    39   143   142    1
    40   143   144    1
    41   131   132    1
    42   140   141   ar
    43   140   138   ar
    44   142   133   am
    45   141   139   ar
    46   138   136   ar
    47    44    43    1
    48    44    45    1
    49    55    54    2
    50   139   137   ar
    51   133   132    1
    52   133   134    2
    53   132   135    1
    54   136   137   ar
    55   136   135    1
    56    52    45   am
    57    52    53    1
    58    45    46    2
    59    99    98    2
    60    54    59   am
    61    54    53    1
    62    60    61    1
    63    60    59    1
    64    60    63    1
    65    61    62    2
    66    59    65    1
    67    53    56    1
    68    98    97    1
    69    63    64    1
    70   103   101    1
    71   101   100    1
    72    58    56    1
    73   182   181   ar
    74    81    80    2
    75    65    64    1
    76    56    57    1
    77    97    96    1
    78    97   100    1
    79   100   102    1
    80   181   183   ar
    81   181   180    1
    82    82    79    1
    83    82    83    1
    84    80    79    1
    85    80    86   am
    86    94    92   ar
    87    94    95   ar
    88    92    91   ar
    89    79    78    1
    90   177   180    1
    91   177   176    1
    92   177   178    1
    93   179   178    2
    94    85    83   am
    95    66    67    1
    96    83    84    2
    97    87    86    1
    98    87    88    1
    99    87    90    1
   100    68    69    2
   101    68    67    1
   102    95    93   ar
   103    91    90    1
   104    91    93   ar
   105    88    89    2
   106   184   185    1
   107    67    70    1
   108    70    71    1
   109   185   186    1
   110   185   188    1
   111    73    71   ar
   112    73    75   ar
   113   201   200   ar
   114   201   199   ar
   115   186   187    2
   116   200   198   ar
   117   164   163    2
   118    71    72   ar
   119    75    76   ar
   120   188   189    1
   121    32    31   ar
   122   199   197   ar
   123   190   189    1
   124   198   197   ar
   125   163   162    1
   126   163   165   am
   127    39    40    1
   128    39    38    1
   129   189   191    1
   130   168   167    2
   131    72    74   ar
   132   162   161    1
   133    35    38    1
   134    35    36    1
   135    35    34    1
   136    40    41    2
   137    40    42   am
   138   197   196    1
   139    36    37    2
   140   167   166    1
   141    76    74   ar
   142    76    77    1
   143    31    33   ar
   144    31    30    1
   145   166   165    1
   146   166   169    1
   147   208   209    1
   148   208   207    1
   149    27    30    1
   150    27    26    1
   151    27    28    1
   152   196   193    1
   153    15    13   ar
   154    15    16   ar
   155   171   173   ar
   156   171   170   ar
   157    13    12   ar
   158   218   219   ar
   159   218   216   ar
   160    28    29    2
   161   169   170    1
   162   195   194    2
   163   173   175   ar
   164   170   172   ar
   165   193   194    1
   166   193   192    1
   167   207   206    1
   168   194   202   am
   169   219   217   ar
   170    16    14   ar
   171   216   215   ar
   172    12    11    1
   173    12    14   ar
   174   175   174   ar
   175   203   202    1
   176   203   206    1
   177   203   204    1
   178     8    11    1
   179     8     9    1
   180     8     7    1
   181   172   174   ar
   182   155   154    2
   183    10     9    2
   184   217   215   ar
   185   215   214    1
   186     6     5    1
   187   228   227    1
   188   154   153    1
   189   204   205    2
   190   204   210   am
   191     5     2    1
   192   210   211    1
   193   214   211    1
   194   226   227    1
   195   226   225    1
   196   156   153    1
   197   156   157    1
   198   153   152    1
   199   159   158    2
   200     2     3    1
   201     2     1    1
   202   211   212    1
   203     3     4    2
   204   157   158    1
   205   158   160   am
   206    17    18    1
   207   224   225    1
   208   224   221    1
   209    25    24    1
   210    24    23    1
   211   212   213    2
   212    22    23    1
   213    22    21    1
   214    18    21    1
   215    18    19    1
   216   221   220    1
   217   221   222    1
   218    19    20    2
   219   222   223    2
