@<TRIPOS>MOLECULE
tmp/4peiD02.pdb
 101 97 0 0 0
SMALL
GASTEIGER

@<TRIPOS>ATOM
      1  N         23.1510  -67.3530  -16.6040 N.3    94  LEU94      -0.1245
      2  CA        22.7290  -68.3250  -15.5930 C.3    94  LEU94       0.1561
      3  C         22.0670  -69.5570  -16.1900 C.2    94  LEU94       0.2260
      4  O         22.2730  -70.6680  -15.6890 O.2    94  LEU94      -0.2867
      5  CB        21.8260  -67.7040  -14.5370 C.3    94  LEU94       0.0270
      6  CG        21.4210  -68.6520  -13.3990 C.3    94  LEU94       0.0019
      7  CD1       22.6070  -69.2360  -12.6620 C.3    94  LEU94       0.0001
      8  CD2       20.4840  -67.9140  -12.4370 C.3    94  LEU94       0.0001
      9  N         30.0320  -66.4460   -1.1630 N.3   135  LYS135     -0.1231
     10  CA        29.5650  -67.7190   -0.6050 C.3   135  LYS135      0.1693
     11  C         28.0850  -67.9500   -0.8720 C.2   135  LYS135      0.2592
     12  O         27.5230  -68.9640   -0.4800 O.2   135  LYS135     -0.2718
     13  CB        29.8770  -67.8300    0.8850 C.3   135  LYS135      0.0285
     14  CG        31.2720  -68.3450    1.1610 C.3   135  LYS135      0.0035
     15  CD        31.3060  -69.3190    2.3540 C.3   135  LYS135      0.0206
     16  CE        31.5420  -68.5830    3.6690 C.3   135  LYS135      0.1093
     17  NZ        32.3830  -67.3600    3.4330 N.3   135  LYS135     -0.1314
     18  N         27.4680  -67.0090   -1.5760 N.am  136  LYS136     -0.1966
     19  CA        26.0400  -67.0340   -1.8580 C.3   136  LYS136      0.1713
     20  C         25.7070  -68.0060   -3.0040 C.2   136  LYS136      0.2458
     21  O         26.4550  -68.0940   -3.9760 O.2   136  LYS136     -0.2730
     22  CB        25.6170  -65.5940   -2.1380 C.3   136  LYS136      0.0311
     23  CG        24.3560  -65.3690   -2.9040 C.3   136  LYS136      0.0038
     24  CD        23.9250  -63.9240   -2.6690 C.3   136  LYS136      0.0206
     25  CE        22.9720  -63.4060   -3.7520 C.3   136  LYS136      0.1093
     26  NZ        21.6820  -62.8480   -3.1770 N.3   136  LYS136     -0.1314
     27  N         24.6200  -68.7970   -2.8770 N.am  137  PRO137     -0.2716
     28  CA        24.4030  -69.7320   -3.9910 C.3   137  PRO137      0.1536
     29  C         23.7370  -69.0020   -5.1390 C.2   137  PRO137      0.2599
     30  O         23.4400  -67.7940   -5.0480 O.2   137  PRO137     -0.2715
     31  CB        23.3910  -70.7400   -3.4200 C.3   137  PRO137      0.0310
     32  CG        22.5390  -69.8840   -2.5110 C.3   137  PRO137      0.0237
     33  CD        23.5780  -68.9330   -1.8400 C.3   137  PRO137      0.0939
     34  N         23.4800  -69.7330   -6.2190 N.am  138  TYR138     -0.1960
     35  CA        22.6670  -69.1760   -7.2750 C.3   138  TYR138      0.1771
     36  C         21.2220  -69.6120   -7.0490 C.2   138  TYR138      0.2620
     37  O         20.9570  -70.7360   -6.6370 O.2   138  TYR138     -0.2715
     38  CB        23.1400  -69.6210   -8.6640 C.3   138  TYR138      0.0574
     39  CG        24.5260  -69.1100   -9.0900 C.ar  138  TYR138     -0.0198
     40  CD1       24.7190  -67.7870   -9.4950 C.ar  138  TYR138     -0.0009
     41  CD2       25.6060  -69.9740   -9.1350 C.ar  138  TYR138     -0.0009
     42  CE1       25.9920  -67.3350   -9.9060 C.ar  138  TYR138      0.0417
     43  CE2       26.8880  -69.5470   -9.5500 C.ar  138  TYR138      0.0417
     44  CZ        27.0640  -68.2260   -9.9330 C.ar  138  TYR138      0.1957
     45  OH        28.3060  -67.8260  -10.3390 O.3   138  TYR138     -0.2866
     46  N         20.2800  -68.7300   -7.3270 N.am  139  THR139     -0.1951
     47  CA        18.8850  -69.1150   -7.2310 C.3   139  THR139      0.1897
     48  C         18.2520  -69.0860   -8.6190 C.2   139  THR139      0.2313
     49  O         18.5680  -68.2130   -9.4460 O.2   139  THR139     -0.2863
     50  CB        18.1460  -68.2980   -6.1250 C.3   139  THR139      0.1794
     51  OG1       18.1260  -66.9070   -6.4560 O.3   139  THR139     -0.2208
     52  CG2       18.8770  -68.4530   -4.8370 C.3   139  THR139      0.0378
     53  N         16.2120  -67.1370  -12.8720 N.3   142  PRO142     -0.2116
     54  CA        16.7450  -65.8070  -12.5460 C.3   142  PRO142      0.1372
     55  C         15.6610  -64.8150  -12.1630 C.2   142  PRO142      0.2244
     56  O         14.5150  -64.9190  -12.6190 O.2   142  PRO142     -0.2868
     57  CB        17.4480  -65.3600  -13.8370 C.3   142  PRO142      0.0268
     58  CG        17.1000  -66.3410  -14.8780 C.3   142  PRO142      0.0207
     59  CD        16.5710  -67.5880  -14.2290 C.3   142  PRO142      0.0892
     60  N         18.3290  -60.2290   -8.8320 N.3   146  ASP146     -0.1239
     61  CA        19.6920  -60.7410   -8.7190 C.3   146  ASP146      0.1674
     62  C         20.6450  -59.9780   -9.6270 C.2   146  ASP146      0.2266
     63  O         21.8180  -60.3480   -9.7550 O.2   146  ASP146     -0.2867
     64  CB        19.7300  -62.2140   -9.0800 C.3   146  ASP146      0.1410
     65  CG        18.5810  -62.9910   -8.4640 C.2   146  ASP146      0.3668
     66  OD1       18.3290  -62.7850   -7.2670 O.co2 146  ASP146     -0.2456
     67  OD2       17.9380  -63.7790   -9.1900 O.co2 146  ASP146     -0.2456
     68  N         23.9490  -59.2770   -8.1330 N.3   149  SER149     -0.1202
     69  CA        24.7840  -60.3020   -7.5110 C.3   149  SER149      0.2020
     70  C         25.1860  -61.4700   -8.4450 C.2   149  SER149      0.2618
     71  O         26.2030  -62.1520   -8.2180 O.2   149  SER149     -0.2717
     72  CB        24.0920  -60.8150   -6.2630 C.3   149  SER149      0.2103
     73  OG        23.0050  -61.6580   -6.6050 O.3   149  SER149     -0.2182
     74  N         24.4020  -61.6940   -9.5040 N.am  150  LEU150     -0.1979
     75  CA        24.6130  -62.8330  -10.4060 C.3   150  LEU150      0.1596
     76  C         26.0390  -62.9630  -10.9550 C.2   150  LEU150      0.2287
     77  O         26.5670  -64.0730  -11.0880 O.2   150  LEU150     -0.2864
     78  CB        23.6130  -62.7560  -11.5720 C.3   150  LEU150      0.0297
     79  CG        22.2710  -63.4560  -11.3320 C.3   150  LEU150      0.0022
     80  CD1       21.2400  -63.0800  -12.4150 C.3   150  LEU150      0.0001
     81  CD2       22.4610  -64.9790  -11.2620 C.3   150  LEU150      0.0001
     82  N         31.8050  -66.8650   -7.3980 N.3   154  ARG154     -0.1245
     83  CA        31.6280  -67.6950   -6.1970 C.3   154  ARG154      0.1563
     84  C         32.9340  -68.4420   -5.8400 C.2   154  ARG154      0.2260
     85  O         33.6530  -68.9820   -6.6990 O.2   154  ARG154     -0.2867
     86  CB        30.5160  -68.7240   -6.4280 C.3   154  ARG154      0.0307
     87  CG        29.0620  -68.2780   -6.1070 C.3   154  ARG154      0.0489
     88  CD        28.6510  -66.8250   -6.3680 C.3   154  ARG154      0.2205
     89  NE        27.1980  -66.6860   -6.1980 N.pl3 154  ARG154     -0.0865
     90  CZ        26.4760  -65.6810   -6.6810 C.cat 154  ARG154      0.5346
     91  NH1       27.0780  -64.7060   -7.3720 N.pl3 154  ARG154      0.1354
     92  NH2       25.1490  -65.6560   -6.4960 N.pl3 154  ARG154      0.1354
     93  N         18.2300  -73.9260   -6.2820 N.3   287  GLN287     -0.1245
     94  CA        19.2930  -73.2960   -5.5060 C.3   287  GLN287      0.1566
     95  C         20.5600  -74.1510   -5.5310 C.2   287  GLN287      0.2260
     96  O         20.5770  -75.2980   -5.0830 O.2   287  GLN287     -0.2867
     97  CB        18.8570  -73.0110   -4.0570 C.3   287  GLN287      0.0367
     98  CG        19.9030  -72.1910   -3.2810 C.3   287  GLN287      0.0905
     99  CD        19.4390  -71.7440   -1.9060 C.2   287  GLN287      0.2608
    100  OE1       18.4880  -70.9730   -1.7750 O.2   287  GLN287     -0.2717
    101  NE2       20.1040  -72.2370   -0.8750 N.am  287  GLN287     -0.0878
@<TRIPOS>BOND
     1     1     2    1
     2     3     4    2
     3     3     2    1
     4     2     5    1
     5    58    59    1
     6    58    57    1
     7     5     6    1
     8    59    53    1
     9    57    54    1
    10     6     7    1
    11     6     8    1
    12    53    54    1
    13    56    55    2
    14    54    55    1
    15    80    79    1
    16    78    79    1
    17    78    75    1
    18    79    81    1
    19    77    76    2
    20    76    75    1
    21    75    74    1
    22    45    44    1
    23    44    42   ar
    24    44    43   ar
    25    42    40   ar
    26    63    62    2
    27    62    61    1
    28    43    41   ar
    29    74    70   am
    30    40    39   ar
    31    49    48    2
    32    67    65   ar
    33    41    39   ar
    34    39    38    1
    35    64    61    1
    36    64    65    1
    37    60    61    1
    38    38    35    1
    39    48    47    1
    40    65    66   ar
    41    70    71    2
    42    70    69    1
    43    68    69    1
    44    69    72    1
    45    82    83    1
    46    91    90    1
    47    46    47    1
    48    46    36   am
    49    35    36    1
    50    35    34    1
    51    47    50    1
    52    36    37    2
    53    85    84    2
    54    90    92    1
    55    90    89    2
    56    73    72    1
    57    51    50    1
    58    86    83    1
    59    86    87    1
    60    88    89    1
    61    88    87    1
    62    93    94    1
    63    34    29   am
    64    83    84    1
    65    50    52    1
    66    95    94    1
    67    95    96    2
    68    94    97    1
    69    29    30    2
    70    29    28    1
    71    97    98    1
    72    28    31    1
    73    28    27    1
    74    21    20    2
    75    25    26    1
    76    25    24    1
    77    31    32    1
    78    98    99    1
    79    20    27   am
    80    20    19    1
    81    23    24    1
    82    23    22    1
    83    27    33    1
    84    32    33    1
    85    22    19    1
    86    99   100    2
    87    99   101   am
    88    19    18    1
    89    18    11   am
    90     9    10    1
    91    11    10    1
    92    11    12    2
    93    10    13    1
    94    13    14    1
    95    14    15    1
    96    15    16    1
    97    17    16    1
