@<TRIPOS>MOLECULE
tmp/4peiM00.pdb
 161 157 0 0 0
SMALL
GASTEIGER

@<TRIPOS>ATOM
      1  N          7.7130  -83.3720  -37.5390 N.3    12  HIS12      -0.1241
      2  CA         8.7190  -82.3660  -37.1560 C.3    12  HIS12       0.1621
      3  C          8.8780  -82.2140  -35.6240 C.2    12  HIS12       0.2264
      4  O          8.9350  -81.1040  -35.0960 O.2    12  HIS12      -0.2867
      5  CB         8.4350  -80.9890  -37.8100 C.3    12  HIS12       0.0745
      6  CG         8.8830  -80.8720  -39.2330 C.ar   12  HIS12       0.0817
      7  ND1        7.9950  -80.7690  -40.2950 N.ar   12  HIS12      -0.2268
      8  CD2       10.1210  -80.8290  -39.7880 C.ar   12  HIS12       0.1154
      9  CE1        8.6660  -80.6870  -41.4240 C.ar   12  HIS12       0.1986
     10  NE2        9.9590  -80.7120  -41.1470 N.ar   12  HIS12      -0.2212
     11  N          9.4770  -87.0860  -41.5580 N.3    41  ASP41      -0.1239
     12  CA        10.0610  -85.9720  -40.7780 C.3    41  ASP41       0.1674
     13  C          9.8740  -86.1720  -39.2600 C.2    41  ASP41       0.2266
     14  O          9.4960  -85.2540  -38.5410 O.2    41  ASP41      -0.2867
     15  CB         9.5740  -84.6090  -41.3020 C.3    41  ASP41       0.1410
     16  CG        10.2170  -84.2350  -42.6300 C.2    41  ASP41       0.3668
     17  OD1       11.2300  -84.8870  -43.0370 O.co2  41  ASP41      -0.2456
     18  OD2        9.7040  -83.2900  -43.2840 O.co2  41  ASP41      -0.2456
     19  N         19.7750  -83.0930  -40.3940 N.3    55  LYS55      -0.1231
     20  CA        20.2730  -82.2000  -41.4410 C.3    55  LYS55       0.1693
     21  C         19.3440  -80.9870  -41.5460 C.2    55  LYS55       0.2592
     22  O         18.2710  -81.0340  -42.1550 O.2    55  LYS55      -0.2718
     23  CB        20.3820  -82.9310  -42.7790 C.3    55  LYS55       0.0285
     24  CG        20.1520  -82.0160  -43.9880 C.3    55  LYS55       0.0035
     25  CD        21.4260  -81.4450  -44.5330 C.3    55  LYS55       0.0206
     26  CE        21.1900  -80.2720  -45.5190 C.3    55  LYS55       0.1093
     27  NZ        20.1310  -80.5270  -46.5610 N.3    55  LYS55      -0.1314
     28  N         19.7700  -79.9340  -40.8620 N.am   56  VAL56      -0.1966
     29  CA        19.0900  -78.6680  -40.7610 C.3    56  VAL56       0.1712
     30  C         20.1530  -77.5780  -40.6250 C.2    56  VAL56       0.2458
     31  O         21.3180  -77.8460  -40.2290 O.2    56  VAL56      -0.2730
     32  CB        18.2130  -78.5850  -39.5130 C.3    56  VAL56       0.0289
     33  CG1       16.9870  -79.5070  -39.6390 C.3    56  VAL56       0.0023
     34  CG2       19.0700  -78.8700  -38.2450 C.3    56  VAL56       0.0023
     35  N         19.7630  -76.3490  -40.9960 N.am   57  PRO57      -0.2727
     36  CA        20.5770  -75.1680  -40.7130 C.3    57  PRO57       0.1402
     37  C         20.5530  -74.9300  -39.2120 C.2    57  PRO57       0.2269
     38  O         19.6170  -75.3570  -38.5230 O.2    57  PRO57      -0.2865
     39  CB        19.8420  -74.0440  -41.4540 C.3    57  PRO57       0.0296
     40  CG        18.3960  -74.4740  -41.4540 C.3    57  PRO57       0.0237
     41  CD        18.4400  -76.0120  -41.5660 C.3    57  PRO57       0.0939
     42  N         17.5130  -74.4970  -36.7450 N.3    60  TYR60      -0.1241
     43  CA        16.5700  -75.6010  -36.4780 C.3    60  TYR60       0.1605
     44  C         17.1840  -76.7950  -35.7550 C.2    60  TYR60       0.2264
     45  O         16.5550  -77.8620  -35.6810 O.2    60  TYR60      -0.2867
     46  CB        15.8740  -76.0730  -37.7580 C.3    60  TYR60       0.0534
     47  CG        15.0960  -74.9500  -38.4070 C.ar   60  TYR60      -0.0201
     48  CD1       14.0630  -74.3250  -37.7220 C.ar   60  TYR60      -0.0009
     49  CD2       15.3980  -74.5170  -39.6940 C.ar   60  TYR60      -0.0009
     50  CE1       13.3490  -73.2750  -38.2950 C.ar   60  TYR60       0.0417
     51  CE2       14.6880  -73.4710  -40.2820 C.ar   60  TYR60       0.0417
     52  CZ        13.6700  -72.8470  -39.5680 C.ar   60  TYR60       0.1957
     53  OH        12.9530  -71.7990  -40.1110 O.3    60  TYR60      -0.2866
     54  N         13.1190  -86.3540  -44.5780 N.3    86  ASN86      -0.1225
     55  CA        14.4020  -85.6760  -44.7610 C.3    86  ASN86       0.1785
     56  C         14.8590  -84.9820  -43.4740 C.2    86  ASN86       0.2597
     57  O         16.0030  -84.5130  -43.3840 O.2    86  ASN86      -0.2718
     58  CB        14.3300  -84.6420  -45.8900 C.3    86  ASN86       0.1169
     59  CG        13.2630  -83.6030  -45.6590 C.2    86  ASN86       0.2627
     60  OD1       12.0470  -83.8730  -45.8430 O.2    86  ASN86      -0.2716
     61  ND2       13.6850  -82.3910  -45.2900 N.am   86  ASN86      -0.0877
     62  N         13.9920  -84.8760  -42.4940 N.am   87  HIS87      -0.1975
     63  CA        14.2960  -84.3200  -41.2220 C.3    87  HIS87       0.1656
     64  C         14.2570  -85.4470  -40.2050 C.2    87  HIS87       0.2291
     65  O         13.2230  -85.7130  -39.6210 O.2    87  HIS87      -0.2864
     66  CB        13.1950  -83.3270  -41.0200 C.3    87  HIS87       0.0771
     67  CG        13.4260  -82.2640  -40.0190 C.ar   87  HIS87       0.0820
     68  ND1       13.7750  -81.0280  -40.3670 N.ar   87  HIS87      -0.2267
     69  CD2       13.1580  -82.2170  -38.6700 C.ar   87  HIS87       0.1154
     70  CE1       13.8280  -80.2580  -39.2780 C.ar   87  HIS87       0.1986
     71  NE2       13.4470  -80.9840  -38.2460 N.ar   87  HIS87      -0.2212
     72  N         17.0450  -87.6270  -54.4110 N.3   130  LYS130     -0.1245
     73  CA        18.0780  -86.8450  -55.0930 C.3   130  LYS130      0.1561
     74  C         18.7720  -87.7980  -56.0650 C.2   130  LYS130      0.2260
     75  O         19.3640  -88.7870  -55.6360 O.2   130  LYS130     -0.2867
     76  CB        19.1400  -86.3020  -54.1200 C.3   130  LYS130      0.0271
     77  CG        18.6540  -85.2200  -53.1340 C.3   130  LYS130      0.0035
     78  CD        18.0300  -84.0140  -53.8610 C.3   130  LYS130      0.0206
     79  CE        17.3970  -83.0860  -52.8530 C.3   130  LYS130      0.1093
     80  NZ        17.1640  -81.7920  -53.5390 N.3   130  LYS130     -0.1314
     81  N          4.9690  -71.6840  -55.0760 N.3   197  GLY197     -0.1210
     82  CA         6.2770  -72.3350  -55.1280 C.3   197  GLY197      0.1956
     83  C          6.2470  -73.6920  -55.8410 C.2   197  GLY197      0.2611
     84  O          7.2490  -74.1260  -56.4530 O.2   197  GLY197     -0.2717
     85  N          5.0920  -74.3660  -55.7830 N.am  198  PHE198     -0.1976
     86  CA         4.9780  -75.7180  -56.3460 C.3   198  PHE198      0.1639
     87  C          4.9750  -75.7210  -57.8680 C.2   198  PHE198      0.2290
     88  O          5.1480  -76.7630  -58.5070 O.2   198  PHE198     -0.2864
     89  CB         3.7360  -76.4460  -55.8260 C.3   198  PHE198      0.0560
     90  CG         3.7280  -76.6440  -54.3460 C.ar  198  PHE198     -0.0200
     91  CD1        4.7080  -76.0660  -53.5460 C.ar  198  PHE198     -0.0042
     92  CD2        2.7500  -77.4200  -53.7490 C.ar  198  PHE198     -0.0042
     93  CE1        4.7070  -76.2500  -52.1640 C.ar  198  PHE198     -0.0003
     94  CE2        2.7270  -77.6070  -52.3700 C.ar  198  PHE198     -0.0003
     95  CZ         3.7080  -77.0220  -51.5700 C.ar  198  PHE198     -0.0000
     96  N          7.1310  -74.2910  -59.8990 N.3   200  LYS200     -0.1231
     97  CA         8.4720  -74.3090  -60.5060 C.3   200  LYS200      0.1693
     98  C          8.9030  -75.6430  -61.1490 C.2   200  LYS200      0.2592
     99  O          9.3750  -75.6570  -62.2980 O.2   200  LYS200     -0.2718
    100  CB         9.5400  -73.8630  -59.4930 C.3   200  LYS200      0.0285
    101  CG        10.9750  -74.2470  -59.8850 C.3   200  LYS200      0.0035
    102  CD        11.8990  -73.0290  -60.0320 C.3   200  LYS200      0.0206
    103  CE        11.6030  -72.2410  -61.3060 C.3   200  LYS200      0.1093
    104  NZ        12.2900  -70.9190  -61.3360 N.3   200  LYS200     -0.1314
    105  N          8.7710  -76.7500  -60.4120 N.am  201  ASP201     -0.1974
    106  CA         9.1880  -78.0610  -60.9340 C.3   201  ASP201      0.1709
    107  C          8.1590  -78.6700  -61.9060 C.2   201  ASP201      0.2293
    108  O          8.3820  -79.7510  -62.4820 O.2   201  ASP201     -0.2864
    109  CB         9.4500  -79.0590  -59.7900 C.3   201  ASP201      0.1436
    110  CG        10.6720  -78.7180  -58.9560 C.2   201  ASP201      0.3671
    111  OD1       11.5670  -78.0030  -59.4560 O.co2 201  ASP201     -0.2456
    112  OD2       10.7330  -79.1920  -57.7930 O.co2 201  ASP201     -0.2456
    113  N          7.8260  -82.6270  -60.7530 N.3   205  LEU205     -0.1231
    114  CA         7.7880  -82.5860  -59.2860 C.3   205  LEU205      0.1693
    115  C          7.6470  -83.9570  -58.6040 C.2   205  LEU205      0.2592
    116  O          6.7010  -84.7230  -58.8800 O.2   205  LEU205     -0.2718
    117  CB         6.6690  -81.6780  -58.7780 C.3   205  LEU205      0.0284
    118  CG         6.7960  -81.2890  -57.2980 C.3   205  LEU205      0.0019
    119  CD1        6.6010  -79.7860  -57.0980 C.3   205  LEU205      0.0001
    120  CD2        5.8400  -82.0530  -56.3920 C.3   205  LEU205      0.0001
    121  N          8.5830  -84.2270  -57.6950 N.am  206  GLY206     -0.1957
    122  CA         8.5420  -85.3890  -56.8310 C.3   206  GLY206      0.1869
    123  C          9.5620  -86.4750  -57.1620 C.2   206  GLY206      0.2309
    124  O         10.5230  -86.2780  -57.9110 O.2   206  GLY206     -0.2863
    125  N          5.8510  -84.6400  -47.5400 N.3   226  HIS226     -0.1226
    126  CA         6.8960  -83.6370  -47.6330 C.3   226  HIS226      0.1752
    127  C          6.4060  -82.2020  -47.9370 C.2   226  HIS226      0.2596
    128  O          7.0440  -81.2410  -47.5180 O.2   226  HIS226     -0.2718
    129  CB         7.8840  -84.1090  -48.6830 C.3   226  HIS226      0.0759
    130  CG         9.1350  -83.3140  -48.7410 C.ar  226  HIS226      0.0818
    131  ND1        9.8300  -82.9080  -47.6300 N.ar  226  HIS226     -0.2268
    132  CD2        9.8540  -82.8630  -49.8070 C.ar  226  HIS226      0.1154
    133  CE1       10.9080  -82.2520  -47.9870 C.ar  226  HIS226      0.1986
    134  NE2       10.9530  -82.2150  -49.3040 N.ar  226  HIS226     -0.2212
    135  N          5.3420  -82.0780  -48.7180 N.am  227  MET227     -0.1965
    136  CA         4.8320  -80.7670  -49.0830 C.3   227  MET227      0.1736
    137  C          3.8430  -80.3270  -48.0190 C.2   227  MET227      0.2616
    138  O          2.9800  -81.0920  -47.6090 O.2   227  MET227     -0.2715
    139  CB         4.1630  -80.7830  -50.4610 C.3   227  MET227      0.0427
    140  CG         4.8830  -81.6010  -51.5230 C.3   227  MET227      0.0599
    141  SD         6.4630  -80.9110  -52.0210 S.3   227  MET227     -0.1393
    142  CE         5.9360  -79.5880  -53.0980 C.3   227  MET227      0.0692
    143  N          3.9710  -79.0920  -47.5700 N.am  228  HIS228     -0.1973
    144  CA         3.1220  -78.6060  -46.5000 C.3   228  HIS228      0.1656
    145  C          1.7680  -78.1300  -47.0140 C.2   228  HIS228      0.2291
    146  O          1.5180  -76.9350  -47.1090 O.2   228  HIS228     -0.2864
    147  CB         3.8560  -77.5160  -45.7270 C.3   228  HIS228      0.0771
    148  CG         5.1170  -77.9970  -45.0780 C.ar  228  HIS228      0.0820
    149  ND1        6.1060  -77.1440  -44.6400 N.ar  228  HIS228     -0.2267
    150  CD2        5.5490  -79.2470  -44.7950 C.ar  228  HIS228      0.1154
    151  CE1        7.0910  -77.8480  -44.1140 C.ar  228  HIS228      0.1986
    152  NE2        6.7770  -79.1280  -44.1940 N.ar  228  HIS228     -0.2212
    153  N          2.0220  -80.2690  -42.3610 N.3   245  LYS245     -0.1245
    154  CA         2.9390  -80.3620  -41.2320 C.3   245  LYS245      0.1561
    155  C          2.1870  -80.1870  -39.9160 C.2   245  LYS245      0.2260
    156  O          1.2660  -79.3680  -39.8230 O.2   245  LYS245     -0.2867
    157  CB         3.9480  -79.2320  -41.3990 C.3   245  LYS245      0.0271
    158  CG         4.9510  -79.0510  -40.2970 C.3   245  LYS245      0.0035
    159  CD         5.8760  -77.8860  -40.6650 C.3   245  LYS245      0.0206
    160  CE         6.9940  -77.7420  -39.6500 C.3   245  LYS245      0.1093
    161  NZ         8.0100  -76.7350  -40.1140 N.3   245  LYS245     -0.1314
@<TRIPOS>BOND
     1   108   107    2
     2    99    98    2
     3   107   106    1
     4   104   103    1
     5   103   102    1
     6    98    97    1
     7    98   105   am
     8   106   105    1
     9   106   109    1
    10   113   114    1
    11    97    96    1
    12    97   100    1
    13   102   101    1
    14   101   100    1
    15   109   110    1
    16   111   110   ar
    17   114   117    1
    18   114   115    1
    19   110   112   ar
    20   116   115    2
    21   117   118    1
    22   115   121   am
    23    88    87    2
    24   124   123    2
    25    87    86    1
    26   121   122    1
    27   118   119    1
    28   118   120    1
    29   123   122    1
    30    84    83    2
    31    86    89    1
    32    86    85    1
    33    74    75    2
    34    74    73    1
    35    83    85   am
    36    83    82    1
    37    89    90    1
    38    82    81    1
    39    73    72    1
    40    73    76    1
    41    90    92   ar
    42    90    91   ar
    43    76    77    1
    44    78    77    1
    45    78    79    1
    46    92    94   ar
    47    91    93   ar
    48    80    79    1
    49   142   141    1
    50    94    95   ar
    51    93    95   ar
    52   141   140    1
    53   140   139    1
    54   139   136    1
    55   132   134   ar
    56   132   130   ar
    57   134   133   ar
    58   136   135    1
    59   136   137    1
    60   130   129    1
    61   130   131   ar
    62   135   127   am
    63   129   126    1
    64   137   138    2
    65   137   143   am
    66   133   131   ar
    67   127   126    1
    68   127   128    2
    69   126   125    1
    70   143   144    1
    71   146   145    2
    72   145   144    1
    73    27    26    1
    74   144   147    1
    75    58    59    1
    76    58    55    1
    77    60    59    2
    78   147   148    1
    79    59    61   am
    80    26    25    1
    81   148   150   ar
    82   148   149   ar
    83   150   152   ar
    84    55    54    1
    85    55    56    1
    86   149   151   ar
    87    25    24    1
    88   152   151   ar
    89    24    23    1
    90    56    57    2
    91    56    62   am
    92    18    16   ar
    93    17    16   ar
    94    23    20    1
    95    16    15    1
    96    62    63    1
    97   153   154    1
    98    22    21    2
    99    41    40    1
   100    41    35    1
   101    11    12    1
   102    21    20    1
   103    21    28   am
   104    39    40    1
   105    39    36    1
   106    20    19    1
   107     9    10   ar
   108     9     7   ar
   109   157   154    1
   110   157   158    1
   111    15    12    1
   112   154   155    1
   113    63    66    1
   114    63    64    1
   115    10     8   ar
   116    66    67    1
   117    35    36    1
   118    35    30   am
   119    28    29    1
   120    12    13    1
   121    29    30    1
   122    29    32    1
   123    36    37    1
   124   159   158    1
   125   159   160    1
   126    30    31    2
   127    68    67   ar
   128    68    70   ar
   129     7     6   ar
   130    51    49   ar
   131    51    52   ar
   132    64    65    2
   133   161   160    1
   134    53    52    1
   135    67    69   ar
   136   155   156    2
   137     8     6   ar
   138    49    47   ar
   139    33    32    1
   140    52    50   ar
   141    32    34    1
   142    70    71   ar
   143    13    14    2
   144     6     5    1
   145    37    38    2
   146    69    71   ar
   147    47    46    1
   148    47    48   ar
   149    50    48   ar
   150     5     2    1
   151    46    43    1
   152     1     2    1
   153     2     3    1
   154    42    43    1
   155    43    44    1
   156    44    45    2
   157     3     4    2
