@<TRIPOS>MOLECULE
tmp/4peiD01.pdb
 90 88 0 0 0
SMALL
GASTEIGER

@<TRIPOS>ATOM
      1  N         37.6000  -56.5400  -23.1750 N.3    10  SER10      -0.1217
      2  CA        36.2070  -56.2830  -22.8780 C.3    10  SER10       0.1889
      3  C         35.4450  -55.9220  -24.1540 C.2    10  SER10       0.2288
      4  O         35.7650  -54.9450  -24.8380 O.2    10  SER10      -0.2866
      5  CB        36.1680  -55.1450  -21.8600 C.3    10  SER10       0.2089
      6  OG        34.8650  -54.6500  -21.6760 O.3    10  SER10      -0.2183
      7  N         31.8960  -55.3670  -24.5320 N.3    12  HIS12      -0.1241
      8  CA        30.8430  -54.3820  -24.2860 C.3    12  HIS12       0.1621
      9  C         29.9080  -54.1490  -25.4700 C.2    12  HIS12       0.2264
     10  O         29.5590  -53.0210  -25.7920 O.2    12  HIS12      -0.2867
     11  CB        31.3910  -53.0680  -23.6660 C.3    12  HIS12       0.0745
     12  CG        32.2030  -52.2090  -24.5860 C.ar   12  HIS12       0.0817
     13  ND1       33.4040  -52.6120  -25.1450 N.ar   12  HIS12      -0.2268
     14  CD2       32.0270  -50.9240  -24.9980 C.ar   12  HIS12       0.1154
     15  CE1       33.9040  -51.6390  -25.8760 C.ar   12  HIS12       0.1986
     16  NE2       33.0870  -50.5980  -25.8060 N.ar   12  HIS12      -0.2212
     17  N         32.4810  -59.0710  -20.2810 N.3    41  ASP41      -0.1239
     18  CA        31.6100  -57.9350  -20.5420 C.3    41  ASP41       0.1674
     19  C         31.0230  -58.1050  -21.9310 C.2    41  ASP41       0.2266
     20  O         31.1710  -57.2470  -22.7990 O.2    41  ASP41      -0.2867
     21  CB        32.3680  -56.6160  -20.3790 C.3    41  ASP41       0.1410
     22  CG        32.6410  -56.2780  -18.9170 C.2    41  ASP41       0.3668
     23  OD1       32.1250  -56.9870  -18.0330 O.co2  41  ASP41      -0.2456
     24  OD2       33.3560  -55.2950  -18.6450 O.co2  41  ASP41      -0.2456
     25  N         31.2960  -58.4210  -15.7490 N.3    86  ASN86      -0.1225
     26  CA        30.4560  -57.7070  -14.7810 C.3    86  ASN86       0.1785
     27  C         29.3440  -56.9500  -15.5080 C.2    86  ASN86       0.2597
     28  O         28.4010  -56.4450  -14.8850 O.2    86  ASN86      -0.2718
     29  CB        31.3010  -56.7390  -13.9290 C.3    86  ASN86       0.1169
     30  CG        31.9690  -55.6770  -14.7630 C.2    86  ASN86       0.2627
     31  OD1       32.9310  -55.9620  -15.4680 O.2    86  ASN86      -0.2716
     32  ND2       31.4630  -54.4400  -14.6970 N.am   86  ASN86      -0.0877
     33  N         29.3450  -56.9450  -16.7780 N.am   87  HIS87      -0.1975
     34  CA        28.3030  -56.3470  -17.6270 C.3    87  HIS87       0.1656
     35  C         27.7700  -57.4190  -18.5720 C.2    87  HIS87       0.2291
     36  O         28.3350  -57.6340  -19.6360 O.2    87  HIS87      -0.2864
     37  CB        28.9090  -55.2450  -18.4950 C.3    87  HIS87       0.0771
     38  CG        29.3390  -54.0340  -17.7350 C.ar   87  HIS87       0.0820
     39  ND1       28.5890  -53.4720  -16.7190 N.ar   87  HIS87      -0.2267
     40  CD2       30.4450  -53.2560  -17.8590 C.ar   87  HIS87       0.1154
     41  CE1       29.1980  -52.3850  -16.2690 C.ar   87  HIS87       0.1986
     42  NE2       30.3300  -52.2420  -16.9350 N.ar   87  HIS87      -0.2212
     43  N         45.3110  -47.1190  -11.1060 N.3   198  PHE198     -0.1241
     44  CA        45.5790  -48.4750  -10.6430 C.3   198  PHE198      0.1605
     45  C         46.3480  -48.4290   -9.3280 C.2   198  PHE198      0.2264
     46  O         46.2490  -49.3270   -8.4820 O.2   198  PHE198     -0.2867
     47  CB        46.3410  -49.2600  -11.7200 C.3   198  PHE198      0.0534
     48  CG        45.5330  -49.5090  -12.9710 C.ar  198  PHE198     -0.0203
     49  CD1       44.3500  -48.8140  -13.2050 C.ar  198  PHE198     -0.0042
     50  CD2       45.9350  -50.4540  -13.9010 C.ar  198  PHE198     -0.0042
     51  CE1       43.5930  -49.0450  -14.3690 C.ar  198  PHE198     -0.0003
     52  CE2       45.1850  -50.6950  -15.0730 C.ar  198  PHE198     -0.0003
     53  CZ        44.0160  -49.9940  -15.3040 C.ar  198  PHE198     -0.0000
     54  N         39.0990  -57.0410  -17.5200 N.3   226  HIS226     -0.1226
     55  CA        38.2930  -56.0300  -16.8260 C.3   226  HIS226      0.1752
     56  C         39.0010  -54.6590  -16.7250 C.2   226  HIS226      0.2596
     57  O         38.3270  -53.6400  -16.7000 O.2   226  HIS226     -0.2718
     58  CB        38.0090  -56.5360  -15.4350 C.3   226  HIS226      0.0759
     59  CG        37.1530  -55.6450  -14.6070 C.ar  226  HIS226      0.0818
     60  ND1       35.9750  -55.0850  -15.0550 N.ar  226  HIS226     -0.2268
     61  CD2       37.2700  -55.2660  -13.3070 C.ar  226  HIS226      0.1154
     62  CE1       35.4200  -54.3850  -14.0860 C.ar  226  HIS226      0.1986
     63  NE2       36.1890  -54.4680  -13.0160 N.ar  226  HIS226     -0.2212
     64  N         40.3470  -54.6570  -16.6360 N.am  227  MET227     -0.1965
     65  CA        41.1550  -53.4250  -16.5520 C.3   227  MET227      0.1736
     66  C         41.4910  -52.9380  -17.9700 C.2   227  MET227      0.2616
     67  O         42.1020  -53.6880  -18.7890 O.2   227  MET227     -0.2715
     68  CB        42.4760  -53.6630  -15.7940 C.3   227  MET227      0.0427
     69  CG        42.3280  -54.2360  -14.3670 C.3   227  MET227      0.0599
     70  SD        41.0300  -53.4240  -13.3970 S.3   227  MET227     -0.1393
     71  CE        41.7830  -51.8220  -13.0580 C.3   227  MET227      0.0692
     72  N         41.1390  -51.6840  -18.2410 N.am  228  HIS228     -0.1973
     73  CA        41.2220  -51.1370  -19.5910 C.3   228  HIS228      0.1656
     74  C         42.6420  -50.7200  -19.9400 C.2   228  HIS228      0.2291
     75  O         42.9230  -49.5260  -20.0450 O.2   228  HIS228     -0.2864
     76  CB        40.3170  -49.9100  -19.7030 C.3   228  HIS228      0.0771
     77  CG        38.8690  -50.2080  -19.4980 C.ar  228  HIS228      0.0820
     78  ND1       37.9810  -49.2720  -19.0030 N.ar  228  HIS228     -0.2267
     79  CD2       38.1440  -51.3320  -19.7290 C.ar  228  HIS228      0.1154
     80  CE1       36.7740  -49.8100  -18.9290 C.ar  228  HIS228      0.1986
     81  NE2       36.8430  -51.0580  -19.3670 N.ar  228  HIS228     -0.2212
     82  N         39.8390  -52.4270  -23.8940 N.3   245  LYS245     -0.1245
     83  CA        38.4400  -52.4030  -24.2540 C.3   245  LYS245      0.1561
     84  C         38.2390  -52.2160  -25.7640 C.2   245  LYS245      0.2260
     85  O         38.9810  -51.4590  -26.4130 O.2   245  LYS245     -0.2867
     86  CB        37.8050  -51.2640  -23.4510 C.3   245  LYS245      0.0271
     87  CG        36.4020  -50.8980  -23.7960 C.3   245  LYS245      0.0035
     88  CD        35.9750  -49.7430  -22.8840 C.3   245  LYS245      0.0206
     89  CE        34.4590  -49.5650  -22.9390 C.3   245  LYS245      0.1093
     90  NZ        33.9800  -48.5650  -21.9290 N.3   245  LYS245     -0.1314
@<TRIPOS>BOND
     1    85    84    2
     2    15    16   ar
     3    15    13   ar
     4    16    14   ar
     5    10     9    2
     6    84    83    1
     7     9     8    1
     8    13    12   ar
     9    14    12   ar
    10     4     3    2
    11    12    11    1
    12     7     8    1
    13     8    11    1
    14    83    82    1
    15    83    86    1
    16     3     2    1
    17    87    86    1
    18    87    88    1
    19     1     2    1
    20    89    88    1
    21    89    90    1
    22     2     5    1
    23    20    19    2
    24    19    18    1
    25     5     6    1
    26    18    21    1
    27    18    17    1
    28    21    22    1
    29    75    74    2
    30    74    73    1
    31    79    77   ar
    32    79    81   ar
    33    76    73    1
    34    76    77    1
    35    36    35    2
    36    73    72    1
    37    77    78   ar
    38    81    80   ar
    39    78    80   ar
    40    22    24   ar
    41    22    23   ar
    42    67    66    2
    43    35    34    1
    44    37    38    1
    45    37    34    1
    46    72    66   am
    47    66    65    1
    48    40    38   ar
    49    40    42   ar
    50    38    39   ar
    51    34    33    1
    52    54    55    1
    53    42    41   ar
    54    55    56    1
    55    55    58    1
    56    33    27   am
    57    56    57    2
    58    56    64   am
    59    39    41   ar
    60    64    65    1
    61    65    68    1
    62    68    69    1
    63    25    26    1
    64    27    28    2
    65    27    26    1
    66    31    30    2
    67    58    59    1
    68    53    52   ar
    69    53    51   ar
    70    52    50   ar
    71    60    59   ar
    72    60    62   ar
    73    26    29    1
    74    30    32   am
    75    30    29    1
    76    59    61   ar
    77    51    49   ar
    78    69    70    1
    79    62    63   ar
    80    50    48   ar
    81    70    71    1
    82    61    63   ar
    83    49    48   ar
    84    48    47    1
    85    47    44    1
    86    43    44    1
    87    44    45    1
    88    45    46    2
