@<TRIPOS>MOLECULE
tmp/4peiD00.pdb
 166 161 0 0 0
SMALL
GASTEIGER

@<TRIPOS>ATOM
      1  N         31.8960  -55.3670  -24.5320 N.3    12  HIS12      -0.1241
      2  CA        30.8430  -54.3820  -24.2860 C.3    12  HIS12       0.1621
      3  C         29.9080  -54.1490  -25.4700 C.2    12  HIS12       0.2264
      4  O         29.5590  -53.0210  -25.7920 O.2    12  HIS12      -0.2867
      5  CB        31.3910  -53.0680  -23.6660 C.3    12  HIS12       0.0745
      6  CG        32.2030  -52.2090  -24.5860 C.ar   12  HIS12       0.0817
      7  ND1       33.4040  -52.6120  -25.1450 N.ar   12  HIS12      -0.2268
      8  CD2       32.0270  -50.9240  -24.9980 C.ar   12  HIS12       0.1154
      9  CE1       33.9040  -51.6390  -25.8760 C.ar   12  HIS12       0.1986
     10  NE2       33.0870  -50.5980  -25.8060 N.ar   12  HIS12      -0.2212
     11  N         30.1590  -54.4650  -28.6400 N.3    14  LYS14      -0.1245
     12  CA        30.6400  -53.9880  -29.9300 C.3    14  LYS14       0.1561
     13  C         31.1640  -55.1050  -30.8150 C.2    14  LYS14       0.2260
     14  O         32.3470  -55.1220  -31.2290 O.2    14  LYS14      -0.2867
     15  CB        31.6620  -52.8900  -29.7060 C.3    14  LYS14       0.0271
     16  CG        30.9910  -51.7330  -28.9900 C.3    14  LYS14       0.0035
     17  CD        31.9600  -50.7410  -28.4370 C.3    14  LYS14       0.0206
     18  CE        31.1670  -49.5330  -27.9020 C.3    14  LYS14       0.1093
     19  NZ        32.0240  -48.3340  -27.7420 N.3    14  LYS14      -0.1314
     20  N         27.7400  -58.7310  -22.7750 N.3    43  GLN43      -0.1245
     21  CA        26.4500  -58.0740  -23.0420 C.3    43  GLN43       0.1566
     22  C         25.5220  -58.8330  -24.0270 C.2    43  GLN43       0.2260
     23  O         24.9830  -58.2540  -24.9890 O.2    43  GLN43      -0.2867
     24  CB        26.6560  -56.6090  -23.4970 C.3    43  GLN43       0.0367
     25  CG        27.3720  -55.7590  -22.4470 C.3    43  GLN43       0.0905
     26  CD        27.2520  -54.2520  -22.6710 C.2    43  GLN43       0.2608
     27  OE1       26.3460  -53.7670  -23.3750 O.2    43  GLN43      -0.2717
     28  NE2       28.1640  -53.5010  -22.0450 N.am   43  GLN43      -0.0878
     29  N         23.7720  -54.8150  -15.6290 N.3    55  LYS55      -0.1231
     30  CA        24.1390  -53.9990  -14.4960 C.3    55  LYS55       0.1693
     31  C         25.0340  -52.8680  -14.9640 C.2    55  LYS55       0.2592
     32  O         26.2750  -52.9940  -14.9560 O.2    55  LYS55      -0.2718
     33  CB        24.8480  -54.8810  -13.4810 C.3    55  LYS55       0.0285
     34  CG        25.3350  -54.1850  -12.2920 C.3    55  LYS55       0.0035
     35  CD        24.3310  -53.2250  -11.8020 C.3    55  LYS55       0.0206
     36  CE        25.0580  -52.3000  -10.8570 C.3    55  LYS55       0.1093
     37  NZ        26.4350  -52.8510  -10.6180 N.3    55  LYS55      -0.1314
     38  N         24.3880  -51.7770  -15.3890 N.am   56  VAL56      -0.1966
     39  CA        25.0500  -50.5800  -15.8820 C.3    56  VAL56       0.1712
     40  C         24.3160  -49.3320  -15.3920 C.2    56  VAL56       0.2458
     41  O         23.1370  -49.3900  -15.0080 O.2    56  VAL56      -0.2730
     42  CB        25.0820  -50.5220  -17.4110 C.3    56  VAL56       0.0289
     43  CG1       25.9720  -51.6130  -17.9750 C.3    56  VAL56       0.0023
     44  CG2       23.6330  -50.6200  -17.9960 C.3    56  VAL56       0.0023
     45  N         25.0160  -48.1870  -15.3970 N.am   57  PRO57      -0.2727
     46  CA        24.3020  -46.9310  -15.1270 C.3    57  PRO57       0.1402
     47  C         23.3950  -46.6130  -16.3090 C.2    57  PRO57       0.2269
     48  O         23.6690  -47.0880  -17.4310 O.2    57  PRO57      -0.2865
     49  CB        25.4330  -45.8930  -15.0050 C.3    57  PRO57       0.0296
     50  CG        26.6300  -46.5120  -15.6900 C.3    57  PRO57       0.0237
     51  CD        26.4790  -48.0060  -15.4940 C.3    57  PRO57       0.0939
     52  N         24.1570  -46.2980  -19.9440 N.3    60  TYR60      -0.1241
     53  CA        24.6260  -47.4580  -20.6990 C.3    60  TYR60       0.1605
     54  C         23.5680  -48.5430  -20.9070 C.2    60  TYR60       0.2264
     55  O         23.8760  -49.6290  -21.3800 O.2    60  TYR60      -0.2867
     56  CB        25.8830  -48.0500  -20.0740 C.3    60  TYR60       0.0534
     57  CG        27.0580  -47.1070  -20.1750 C.ar   60  TYR60      -0.0201
     58  CD1       27.4920  -46.6430  -21.4120 C.ar   60  TYR60      -0.0009
     59  CD2       27.7050  -46.6520  -19.0340 C.ar   60  TYR60      -0.0009
     60  CE1       28.5470  -45.7520  -21.5060 C.ar   60  TYR60       0.0417
     61  CE2       28.7650  -45.7720  -19.1200 C.ar   60  TYR60       0.0417
     62  CZ        29.1790  -45.3270  -20.3590 C.ar   60  TYR60       0.1957
     63  OH        30.2360  -44.4480  -20.4190 O.3    60  TYR60      -0.2866
     64  N         31.2960  -58.4210  -15.7490 N.3    86  ASN86      -0.1225
     65  CA        30.4560  -57.7070  -14.7810 C.3    86  ASN86       0.1785
     66  C         29.3440  -56.9500  -15.5080 C.2    86  ASN86       0.2597
     67  O         28.4010  -56.4450  -14.8850 O.2    86  ASN86      -0.2718
     68  CB        31.3010  -56.7390  -13.9290 C.3    86  ASN86       0.1169
     69  CG        31.9690  -55.6770  -14.7630 C.2    86  ASN86       0.2627
     70  OD1       32.9310  -55.9620  -15.4680 O.2    86  ASN86      -0.2716
     71  ND2       31.4630  -54.4400  -14.6970 N.am   86  ASN86      -0.0877
     72  N         29.3450  -56.9450  -16.7780 N.am   87  HIS87      -0.1975
     73  CA        28.3030  -56.3470  -17.6270 C.3    87  HIS87       0.1656
     74  C         27.7700  -57.4190  -18.5720 C.2    87  HIS87       0.2291
     75  O         28.3350  -57.6340  -19.6360 O.2    87  HIS87      -0.2864
     76  CB        28.9090  -55.2450  -18.4950 C.3    87  HIS87       0.0771
     77  CG        29.3390  -54.0340  -17.7350 C.ar   87  HIS87       0.0820
     78  ND1       28.5890  -53.4720  -16.7190 N.ar   87  HIS87      -0.2267
     79  CD2       30.4450  -53.2560  -17.8590 C.ar   87  HIS87       0.1154
     80  CE1       29.1980  -52.3850  -16.2690 C.ar   87  HIS87       0.1986
     81  NE2       30.3300  -52.2420  -16.9350 N.ar   87  HIS87      -0.2212
     82  N         33.3110  -61.0050  -11.5390 N.3   128  ILE128     -0.1245
     83  CA        34.3280  -60.2860  -10.7800 C.3   128  ILE128      0.1561
     84  C         34.0280  -60.5240   -9.3030 C.2   128  ILE128      0.2260
     85  O         32.9140  -60.9560   -8.9240 O.2   128  ILE128     -0.2867
     86  CB        34.3140  -58.7870  -11.0710 C.3   128  ILE128      0.0252
     87  CG1       32.9510  -58.1780  -10.6960 C.3   128  ILE128      0.0019
     88  CG2       34.6620  -58.5220  -12.5430 C.3   128  ILE128      0.0019
     89  CD1       32.9810  -56.6400  -10.5890 C.3   128  ILE128      0.0001
     90  N         33.3990  -60.1330   -5.4290 N.3   130  LYS130     -0.1245
     91  CA        32.9210  -59.3570   -4.2930 C.3   130  LYS130      0.1561
     92  C         32.7650  -60.2480   -3.0720 C.2   130  LYS130      0.2260
     93  O         32.0030  -61.2150   -3.0940 O.2   130  LYS130     -0.2867
     94  CB        31.6110  -58.6730   -4.6180 C.3   130  LYS130      0.0271
     95  CG        31.8070  -57.5530   -5.5730 C.3   130  LYS130      0.0035
     96  CD        32.8270  -56.5420   -5.0240 C.3   130  LYS130      0.0206
     97  CE        33.2980  -55.5760   -6.1280 C.3   130  LYS130      0.1093
     98  NZ        32.2730  -54.5440   -6.4450 N.3   130  LYS130     -0.1314
     99  N         31.3100  -60.0950   -0.2770 N.3   132  PHE132     -0.1241
    100  CA        30.0150  -60.3410    0.3630 C.3   132  PHE132      0.1605
    101  C         29.1410  -61.3340   -0.3900 C.2   132  PHE132      0.2264
    102  O         28.2920  -61.9610    0.2210 O.2   132  PHE132     -0.2867
    103  CB        29.2370  -59.0590    0.5470 C.3   132  PHE132      0.0534
    104  CG        29.3180  -58.1640   -0.6200 C.ar  132  PHE132     -0.0203
    105  CD1       30.5150  -57.5180   -0.9150 C.ar  132  PHE132     -0.0042
    106  CD2       28.2190  -57.9780   -1.4470 C.ar  132  PHE132     -0.0042
    107  CE1       30.6100  -56.6720   -2.0180 C.ar  132  PHE132     -0.0003
    108  CE2       28.2960  -57.1420   -2.5480 C.ar  132  PHE132     -0.0003
    109  CZ        29.4940  -56.4850   -2.8370 C.ar  132  PHE132     -0.0000
    110  N         22.2570  -57.4260   -9.3920 N.3   148  VAL148     -0.1245
    111  CA        23.4850  -56.9520   -8.7370 C.3   148  VAL148      0.1561
    112  C         24.4260  -58.0480   -8.2450 C.2   148  VAL148      0.2260
    113  O         25.5950  -57.7790   -7.9540 O.2   148  VAL148     -0.2867
    114  CB        23.2150  -55.9960   -7.5450 C.3   148  VAL148      0.0252
    115  CG1       22.9210  -54.5920   -8.0290 C.3   148  VAL148      0.0019
    116  CG2       22.1170  -56.5700   -6.6150 C.3   148  VAL148      0.0019
    117  N         26.6680  -61.8320  -11.2600 N.3   151  PHE151     -0.1227
    118  CA        27.9500  -61.8380  -11.9490 C.3   151  PHE151      0.1736
    119  C         29.1210  -61.8290  -10.9580 C.2   151  PHE151      0.2595
    120  O         30.2750  -61.7300  -11.3520 O.2   151  PHE151     -0.2718
    121  CB        28.0360  -60.6590  -12.9190 C.3   151  PHE151      0.0547
    122  CG        27.8780  -59.2970  -12.2550 C.ar  151  PHE151     -0.0202
    123  CD1       28.9990  -58.6390  -11.7310 C.ar  151  PHE151     -0.0042
    124  CD2       26.6280  -58.6830  -12.1630 C.ar  151  PHE151     -0.0042
    125  CE1       28.8760  -57.3980  -11.1260 C.ar  151  PHE151     -0.0003
    126  CE2       26.4990  -57.4320  -11.5580 C.ar  151  PHE151     -0.0003
    127  CZ        27.6330  -56.7890  -11.0370 C.ar  151  PHE151     -0.0000
    128  N         28.8310  -61.9690   -9.6700 N.am  152  HIS152     -0.1975
    129  CA        29.9060  -62.0500   -8.6770 C.3   152  HIS152      0.1656
    130  C         30.4360  -63.4560   -8.5620 C.2   152  HIS152      0.2291
    131  O         29.6620  -64.4010   -8.3270 O.2   152  HIS152     -0.2864
    132  CB        29.4180  -61.5770   -7.3060 C.3   152  HIS152      0.0771
    133  CG        29.1900  -60.1090   -7.2350 C.ar  152  HIS152      0.0820
    134  ND1       28.3680  -59.5240   -6.2940 N.ar  152  HIS152     -0.2267
    135  CD2       29.6870  -59.0970   -7.9890 C.ar  152  HIS152      0.1154
    136  CE1       28.3640  -58.2190   -6.4800 C.ar  152  HIS152      0.1986
    137  NE2       29.1530  -57.9350   -7.5000 N.ar  152  HIS152     -0.2212
    138  N         39.0990  -57.0410  -17.5200 N.3   226  HIS226     -0.1241
    139  CA        38.2930  -56.0300  -16.8260 C.3   226  HIS226      0.1621
    140  C         39.0010  -54.6590  -16.7250 C.2   226  HIS226      0.2264
    141  O         38.3270  -53.6400  -16.7000 O.2   226  HIS226     -0.2867
    142  CB        38.0090  -56.5360  -15.4350 C.3   226  HIS226      0.0745
    143  CG        37.1530  -55.6450  -14.6070 C.ar  226  HIS226      0.0817
    144  ND1       35.9750  -55.0850  -15.0550 N.ar  226  HIS226     -0.2268
    145  CD2       37.2700  -55.2660  -13.3070 C.ar  226  HIS226      0.1154
    146  CE1       35.4200  -54.3850  -14.0860 C.ar  226  HIS226      0.1986
    147  NE2       36.1890  -54.4680  -13.0160 N.ar  226  HIS226     -0.2212
    148  N         41.1390  -51.6840  -18.2410 N.3   228  HIS228     -0.1241
    149  CA        41.2220  -51.1370  -19.5910 C.3   228  HIS228      0.1621
    150  C         42.6420  -50.7200  -19.9400 C.2   228  HIS228      0.2264
    151  O         42.9230  -49.5260  -20.0450 O.2   228  HIS228     -0.2867
    152  CB        40.3170  -49.9100  -19.7030 C.3   228  HIS228      0.0745
    153  CG        38.8690  -50.2080  -19.4980 C.ar  228  HIS228      0.0817
    154  ND1       37.9810  -49.2720  -19.0030 N.ar  228  HIS228     -0.2268
    155  CD2       38.1440  -51.3320  -19.7290 C.ar  228  HIS228      0.1154
    156  CE1       36.7740  -49.8100  -18.9290 C.ar  228  HIS228      0.1986
    157  NE2       36.8430  -51.0580  -19.3670 N.ar  228  HIS228     -0.2212
    158  N         39.8390  -52.4270  -23.8940 N.3   245  LYS245     -0.1245
    159  CA        38.4400  -52.4030  -24.2540 C.3   245  LYS245      0.1561
    160  C         38.2390  -52.2160  -25.7640 C.2   245  LYS245      0.2260
    161  O         38.9810  -51.4590  -26.4130 O.2   245  LYS245     -0.2867
    162  CB        37.8050  -51.2640  -23.4510 C.3   245  LYS245      0.0271
    163  CG        36.4020  -50.8980  -23.7960 C.3   245  LYS245      0.0035
    164  CD        35.9750  -49.7430  -22.8840 C.3   245  LYS245      0.0206
    165  CE        34.4590  -49.5650  -22.9390 C.3   245  LYS245      0.1093
    166  NZ        33.9800  -48.5650  -21.9290 N.3   245  LYS245     -0.1314
@<TRIPOS>BOND
     1    14    13    2
     2    13    12    1
     3    12    15    1
     4    12    11    1
     5    15    16    1
     6    16    17    1
     7    17    18    1
     8    18    19    1
     9   161   160    2
    10     9    10   ar
    11     9     7   ar
    12    10     8   ar
    13     4     3    2
    14   160   159    1
    15     3     2    1
    16     7     6   ar
    17     8     6   ar
    18    23    22    2
    19     6     5    1
    20     1     2    1
    21     2     5    1
    22   159   158    1
    23   159   162    1
    24    22    21    1
    25   163   162    1
    26   163   164    1
    27    24    21    1
    28    24    25    1
    29    27    26    2
    30    21    20    1
    31   165   164    1
    32   165   166    1
    33    26    25    1
    34    26    28   am
    35    60    58   ar
    36    60    62   ar
    37    58    57   ar
    38    55    54    2
    39    54    53    1
    40    53    56    1
    41    53    52    1
    42    63    62    1
    43    62    61   ar
    44    57    56    1
    45    57    59   ar
    46   151   150    2
    47   150   149    1
    48   155   153   ar
    49   155   157   ar
    50   152   149    1
    51   152   153    1
    52    75    74    2
    53   149   148    1
    54   153   154   ar
    55   157   156   ar
    56    61    59   ar
    57   154   156   ar
    58    74    73    1
    59    76    77    1
    60    76    73    1
    61    44    42    1
    62    43    42    1
    63    79    77   ar
    64    79    81   ar
    65    77    78   ar
    66    73    72    1
    67   138   139    1
    68    48    47    2
    69    42    39    1
    70    81    80   ar
    71   139   140    1
    72   139   142    1
    73    72    66   am
    74   140   141    2
    75    78    80   ar
    76    47    46    1
    77    39    40    1
    78    39    38    1
    79    64    65    1
    80    50    51    1
    81    50    49    1
    82    29    30    1
    83    66    67    2
    84    66    65    1
    85    51    45    1
    86    70    69    2
    87   142   143    1
    88    45    40   am
    89    45    46    1
    90    40    41    2
    91    38    31   am
    92    46    49    1
    93   144   143   ar
    94   144   146   ar
    95    31    32    2
    96    31    30    1
    97    65    68    1
    98    69    71   am
    99    69    68    1
   100   143   145   ar
   101    30    33    1
   102   146   147   ar
   103    33    34    1
   104   145   147   ar
   105   121   122    1
   106   121   118    1
   107    88    86    1
   108    34    35    1
   109   122   124   ar
   110   122   123   ar
   111   124   126   ar
   112   118   117    1
   113   118   119    1
   114    35    36    1
   115   123   125   ar
   116   126   127   ar
   117    82    83    1
   118   120   119    2
   119   125   127   ar
   120    86    83    1
   121    86    87    1
   122   119   128   am
   123    36    37    1
   124    83    84    1
   125    87    89    1
   126   128   129    1
   127   110   111    1
   128    84    85    2
   129   111   112    1
   130   111   114    1
   131   129   130    1
   132   129   132    1
   133   130   131    2
   134   112   113    2
   135   115   114    1
   136   135   137   ar
   137   135   133   ar
   138   114   116    1
   139   137   136   ar
   140   132   133    1
   141   133   134   ar
   142   136   134   ar
   143    98    97    1
   144    97    96    1
   145    95    96    1
   146    95    94    1
   147    90    91    1
   148    94    91    1
   149    91    92    1
   150    93    92    2
   151   109   108   ar
   152   109   107   ar
   153   108   106   ar
   154   107   105   ar
   155   106   104   ar
   156   105   104   ar
   157   104   103    1
   158   101   102    2
   159   101   100    1
   160    99   100    1
   161   100   103    1
