@<TRIPOS>MOLECULE
tmp/4peiJ00.pdb
 91 88 0 0 0
SMALL
GASTEIGER

@<TRIPOS>ATOM
      1  N         47.7160  -68.9440  -66.8890 N.3    12  HIS12      -0.1241
      2  CA        47.8130  -67.9300  -67.9540 C.3    12  HIS12       0.1621
      3  C         49.1660  -67.8350  -68.6020 C.2    12  HIS12       0.2264
      4  O         49.6370  -66.7480  -68.9300 O.2    12  HIS12      -0.2867
      5  CB        47.4980  -66.5530  -67.4070 C.3    12  HIS12       0.0745
      6  CG        46.0520  -66.2200  -67.4450 C.ar   12  HIS12       0.0817
      7  ND1       45.1850  -66.5830  -66.4400 N.ar   12  HIS12      -0.2268
      8  CD2       45.3070  -65.5880  -68.3810 C.ar   12  HIS12       0.1154
      9  CE1       43.9690  -66.1710  -66.7470 C.ar   12  HIS12       0.1986
     10  NE2       44.0160  -65.5660  -67.9160 N.ar   12  HIS12      -0.2212
     11  N         52.0220  -68.0940  -67.3140 N.3    14  LYS14      -0.1245
     12  CA        53.1640  -67.6360  -66.4890 C.3    14  LYS14       0.1561
     13  C         53.8470  -68.8170  -65.7630 C.2    14  LYS14       0.2260
     14  O         53.9590  -68.8210  -64.5170 O.2    14  LYS14      -0.2867
     15  CB        52.7620  -66.5630  -65.4670 C.3    14  LYS14       0.0271
     16  CG        52.1070  -65.3020  -66.0460 C.3    14  LYS14       0.0035
     17  CD        52.7450  -64.9980  -67.3770 C.3    14  LYS14       0.0206
     18  CE        52.7130  -63.4910  -67.7020 C.3    14  LYS14       0.1093
     19  NZ        54.0980  -62.8940  -67.5870 N.3    14  LYS14      -0.1314
     20  N         47.0430  -72.3570  -71.1290 N.3    43  GLN43      -0.1245
     21  CA        47.5820  -71.8000  -72.3840 C.3    43  GLN43       0.1566
     22  C         48.7950  -72.5730  -72.8690 C.2    43  GLN43       0.2260
     23  O         49.8760  -72.0190  -73.0000 O.2    43  GLN43      -0.2867
     24  CB        47.9110  -70.2950  -72.2260 C.3    43  GLN43       0.0367
     25  CG        46.7180  -69.5210  -71.5960 C.3    43  GLN43       0.0905
     26  CD        46.8570  -67.9950  -71.6910 C.2    43  GLN43       0.2608
     27  OE1       47.8800  -67.4850  -72.1800 O.2    43  GLN43      -0.2717
     28  NE2       45.8030  -67.2680  -71.2710 N.am   43  GLN43      -0.0878
     29  N         40.8280  -65.4320  -76.7980 N.3    56  VAL56      -0.1231
     30  CA        41.1960  -64.2510  -76.0030 C.3    56  VAL56       0.1678
     31  C         41.1460  -63.0470  -76.9120 C.2    56  VAL56       0.2434
     32  O         41.2390  -63.1650  -78.1540 O.2    56  VAL56      -0.2733
     33  CB        42.6420  -64.3170  -75.4470 C.3    56  VAL56       0.0265
     34  CG1       42.8330  -65.4620  -74.4940 C.3    56  VAL56       0.0020
     35  CG2       43.6500  -64.4040  -76.6130 C.3    56  VAL56       0.0020
     36  N         40.9910  -61.8690  -76.3050 N.am   57  PRO57      -0.2729
     37  CA        40.9370  -60.6860  -77.1600 C.3    57  PRO57       0.1401
     38  C         42.3360  -60.3830  -77.6880 C.2    57  PRO57       0.2269
     39  O         43.3210  -60.7770  -77.0560 O.2    57  PRO57      -0.2865
     40  CB        40.4570  -59.5780  -76.2100 C.3    57  PRO57       0.0296
     41  CG        40.7920  -60.0550  -74.8220 C.3    57  PRO57       0.0237
     42  CD        40.8390  -61.5630  -74.8670 C.3    57  PRO57       0.0939
     43  N         45.6130  -60.0630  -75.8060 N.3    60  TYR60      -0.1241
     44  CA        46.1540  -61.2410  -75.1100 C.3    60  TYR60       0.1605
     45  C         46.6250  -62.3670  -76.0390 C.2    60  TYR60       0.2264
     46  O         47.0260  -63.4340  -75.5610 O.2    60  TYR60      -0.2867
     47  CB        45.1790  -61.7680  -74.0340 C.3    60  TYR60       0.0534
     48  CG        44.9070  -60.7370  -72.9440 C.ar   60  TYR60      -0.0201
     49  CD1       45.8430  -60.4900  -71.9520 C.ar   60  TYR60      -0.0009
     50  CD2       43.7260  -59.9950  -72.9300 C.ar   60  TYR60      -0.0009
     51  CE1       45.6060  -59.5380  -70.9600 C.ar   60  TYR60       0.0417
     52  CE2       43.4840  -59.0280  -71.9390 C.ar   60  TYR60       0.0417
     53  CZ        44.4250  -58.8170  -70.9640 C.ar   60  TYR60       0.1957
     54  OH        44.1940  -57.8780  -69.9830 O.3    60  TYR60      -0.2866
     55  N         39.2910  -71.8330  -69.7110 N.3    86  ASN86      -0.1225
     56  CA        38.6560  -71.2000  -70.8580 C.3    86  ASN86       0.1785
     57  C         39.6230  -70.4890  -71.8040 C.2    86  ASN86       0.2597
     58  O         39.2100  -70.0860  -72.8980 O.2    86  ASN86      -0.2718
     59  CB        37.5640  -70.2360  -70.4200 C.3    86  ASN86       0.1169
     60  CG        38.0950  -69.1940  -69.5010 C.2    86  ASN86       0.2627
     61  OD1       38.3900  -69.4830  -68.3420 O.2    86  ASN86      -0.2716
     62  ND2       38.2750  -67.9850  -70.0050 N.am   86  ASN86      -0.0877
     63  N         40.8860  -70.3740  -71.3760 N.am   87  HIS87      -0.1975
     64  CA        41.9720  -69.8010  -72.1450 C.3    87  HIS87       0.1656
     65  C         43.0300  -70.8950  -72.3130 C.2    87  HIS87       0.2291
     66  O         43.9080  -71.0490  -71.4540 O.2    87  HIS87      -0.2864
     67  CB        42.6140  -68.6650  -71.3550 C.3    87  HIS87       0.0771
     68  CG        41.7440  -67.4620  -71.2270 C.ar   87  HIS87       0.0820
     69  ND1       41.8520  -66.5800  -70.1720 N.ar   87  HIS87      -0.2267
     70  CD2       40.7440  -66.9940  -72.0120 C.ar   87  HIS87       0.1154
     71  CE1       40.9730  -65.6120  -70.3270 C.ar   87  HIS87       0.1986
     72  NE2       40.2760  -65.8420  -71.4240 N.ar   87  HIS87      -0.2212
     73  N         39.5850  -65.4580  -59.8090 N.3   228  HIS228     -0.1241
     74  CA        40.5240  -64.3830  -59.4560 C.3   228  HIS228      0.1621
     75  C         40.2340  -63.8340  -58.0550 C.2   228  HIS228      0.2264
     76  O         40.0720  -62.6160  -57.8640 O.2   228  HIS228     -0.2867
     77  CB        40.5290  -63.2370  -60.4820 C.3   228  HIS228      0.0745
     78  CG        40.9860  -63.6400  -61.8510 C.ar  228  HIS228      0.0817
     79  ND1       40.9450  -62.7840  -62.9360 N.ar  228  HIS228     -0.2268
     80  CD2       41.4720  -64.8170  -62.3250 C.ar  228  HIS228      0.1154
     81  CE1       41.3920  -63.4100  -64.0070 C.ar  228  HIS228      0.1986
     82  NE2       41.7150  -64.6480  -63.6700 N.ar  228  HIS228     -0.2212
     83  N         44.7260  -65.8280  -59.7510 N.3   245  LYS245     -0.1245
     84  CA        45.5790  -65.9180  -60.9360 C.3   245  LYS245      0.1561
     85  C         47.0770  -65.6830  -60.6290 C.2   245  LYS245      0.2260
     86  O         47.4130  -64.7770  -59.8630 O.2   245  LYS245     -0.2867
     87  CB        45.0480  -64.8640  -61.9170 C.3   245  LYS245      0.0271
     88  CG        45.8680  -64.5910  -63.1510 C.3   245  LYS245      0.0035
     89  CD        45.3010  -63.3760  -63.8920 C.3   245  LYS245      0.0206
     90  CE        46.1280  -63.0550  -65.1360 C.3   245  LYS245      0.1093
     91  NZ        45.5370  -61.9560  -65.9570 N.3   245  LYS245     -0.1314
@<TRIPOS>BOND
     1    32    31    2
     2    38    37    1
     3    38    39    2
     4    37    36    1
     5    37    40    1
     6    31    36   am
     7    31    30    1
     8    29    30    1
     9    35    33    1
    10    36    42    1
    11    40    41    1
    12    45    46    2
    13    45    44    1
    14    30    33    1
    15    43    44    1
    16    33    34    1
    17    44    47    1
    18    42    41    1
    19    47    48    1
    20    23    22    2
    21    48    50   ar
    22    48    49   ar
    23    50    52   ar
    24    58    57    2
    25    22    21    1
    26    21    24    1
    27    21    20    1
    28    65    64    1
    29    65    66    2
    30    24    25    1
    31    27    26    2
    32    64    63    1
    33    64    67    1
    34    70    72   ar
    35    70    68   ar
    36    49    51   ar
    37    52    53   ar
    38    57    63   am
    39    57    56    1
    40    26    25    1
    41    26    28   am
    42    72    71   ar
    43    67    68    1
    44    68    69   ar
    45    53    51   ar
    46    53    54    1
    47    56    59    1
    48    56    55    1
    49    59    60    1
    50    71    69   ar
    51    62    60   am
    52    60    61    2
    53     4     3    2
    54     3     2    1
    55     8    10   ar
    56     8     6   ar
    57     2     5    1
    58     2     1    1
    59    10     9   ar
    60    18    19    1
    61    18    17    1
    62     6     5    1
    63     6     7   ar
    64    17    16    1
    65    11    12    1
    66     9     7   ar
    67    12    13    1
    68    12    15    1
    69    16    15    1
    70    91    90    1
    71    13    14    2
    72    90    89    1
    73    81    82   ar
    74    81    79   ar
    75    89    88    1
    76    82    80   ar
    77    88    87    1
    78    79    78   ar
    79    80    78   ar
    80    87    84    1
    81    78    77    1
    82    84    85    1
    83    84    83    1
    84    85    86    2
    85    77    74    1
    86    73    74    1
    87    74    75    1
    88    75    76    2
