@<TRIPOS>MOLECULE
tmp/4pesA01.pdb
 142 132 0 0 0
SMALL
GASTEIGER

@<TRIPOS>ATOM
      1  N          5.1380  -22.5280   -6.8520 N.3   155  ALA155     -0.1245
      2  CA         4.9100  -21.2190   -7.4470 C.3   155  ALA155      0.1562
      3  C          5.5770  -21.0180   -8.8130 C.2   155  ALA155      0.2260
      4  O          4.9700  -20.4810   -9.7510 O.2   155  ALA155     -0.2867
      5  CB         5.3390  -20.1270   -6.4710 C.3   155  ALA155      0.0290
      6  N          3.6910  -23.1780  -11.3050 N.3   158  LEU158     -0.1231
      7  CA         2.4290  -22.5780  -11.7940 C.3   158  LEU158      0.1693
      8  C          2.7080  -21.4420  -12.7730 C.2   158  LEU158      0.2592
      9  O          1.9660  -21.2600  -13.7300 O.2   158  LEU158     -0.2718
     10  CB         1.5990  -22.0830  -10.6210 C.3   158  LEU158      0.0284
     11  CG         1.0040  -23.2210   -9.7800 C.3   158  LEU158      0.0019
     12  CD1        0.5370  -22.6940   -8.4150 C.3   158  LEU158      0.0001
     13  CD2       -0.1320  -23.9040  -10.5440 C.3   158  LEU158      0.0001
     14  N          3.7980  -20.7080  -12.5170 N.am  159  PHE159     -0.1976
     15  CA         4.2390  -19.5700  -13.3130 C.3   159  PHE159      0.1639
     16  C          4.5440  -20.0040  -14.7430 C.2   159  PHE159      0.2290
     17  O          4.0680  -19.3910  -15.7060 O.2   159  PHE159     -0.2864
     18  CB         5.4690  -18.9540  -12.6360 C.3   159  PHE159      0.0560
     19  CG         6.2610  -17.9910  -13.4860 C.ar  159  PHE159     -0.0200
     20  CD1        7.5380  -18.3460  -13.9390 C.ar  159  PHE159     -0.0042
     21  CD2        5.7870  -16.6990  -13.7740 C.ar  159  PHE159     -0.0042
     22  CE1        8.2960  -17.4570  -14.6910 C.ar  159  PHE159     -0.0003
     23  CE2        6.5520  -15.8060  -14.5240 C.ar  159  PHE159     -0.0003
     24  CZ         7.8050  -16.1820  -14.9810 C.ar  159  PHE159     -0.0000
     25  N          3.7650  -23.0400  -16.0900 N.3   161  LEU161     -0.1231
     26  CA         2.6280  -23.7600  -16.6610 C.3   161  LEU161      0.1693
     27  C          1.6230  -22.8200  -17.3100 C.2   161  LEU161      0.2591
     28  O          1.1440  -23.0900  -18.4030 O.2   161  LEU161     -0.2718
     29  CB         1.9410  -24.6580  -15.6330 C.3   161  LEU161      0.0284
     30  CG         0.6740  -25.3720  -16.1160 C.3   161  LEU161      0.0019
     31  CD1        0.9270  -26.1900  -17.3770 C.3   161  LEU161      0.0001
     32  CD2        0.1770  -26.2680  -15.0090 C.3   161  LEU161      0.0001
     33  N          1.2970  -21.7260  -16.6430 N.am  162  GLU162     -0.1979
     34  CA         0.4080  -20.7190  -17.2640 C.3   162  GLU162      0.1602
     35  C          0.9130  -20.3460  -18.6700 C.2   162  GLU162      0.2287
     36  O          0.1390  -20.2980  -19.6240 O.2   162  GLU162     -0.2864
     37  CB         0.2800  -19.4620  -16.3800 C.3   162  GLU162      0.0415
     38  CG        -0.6590  -18.4010  -16.9640 C.3   162  GLU162      0.1163
     39  CD        -0.9110  -17.2250  -16.0360 C.2   162  GLU162      0.3649
     40  OE1        0.0590  -16.6550  -15.4850 O.co2 162  GLU162     -0.2457
     41  OE2       -2.0900  -16.8530  -15.8690 O.co2 162  GLU162     -0.2457
     42  N          0.1710  -22.6780  -21.6060 N.3   165  THR165     -0.1218
     43  CA        -1.2310  -22.8860  -22.0220 C.3   165  THR165      0.1862
     44  C         -1.6880  -21.7390  -22.9220 C.2   165  THR165      0.2287
     45  O         -2.8470  -21.6690  -23.3280 O.2   165  THR165     -0.2866
     46  CB        -2.1680  -23.0180  -20.8090 C.3   165  THR165      0.1770
     47  OG1       -2.2330  -21.7600  -20.1230 O.3   165  THR165     -0.2211
     48  CG2       -1.6500  -24.0890  -19.8380 C.3   165  THR165      0.0375
     49  N         -8.4890  -25.4660  -16.2240 N.3   259  TYR259     -0.1241
     50  CA        -7.2680  -26.2120  -16.0010 C.3   259  TYR259      0.1605
     51  C         -7.3180  -26.8390  -14.6250 C.2   259  TYR259      0.2264
     52  O         -7.7540  -26.2140  -13.6560 O.2   259  TYR259     -0.2867
     53  CB        -6.0780  -25.3020  -16.1370 C.3   259  TYR259      0.0534
     54  CG        -6.0140  -24.6570  -17.5110 C.ar  259  TYR259     -0.0201
     55  CD1       -6.6090  -23.4070  -17.7520 C.ar  259  TYR259     -0.0009
     56  CD2       -5.3560  -25.2830  -18.5620 C.ar  259  TYR259     -0.0009
     57  CE1       -6.5420  -22.8090  -19.0010 C.ar  259  TYR259      0.0417
     58  CE2       -5.2820  -24.6890  -19.8200 C.ar  259  TYR259      0.0417
     59  CZ        -5.8850  -23.4570  -20.0280 C.ar  259  TYR259      0.1957
     60  OH        -5.8330  -22.8780  -21.2770 O.3   259  TYR259     -0.2866
     61  N         -4.8340  -28.8120  -12.0460 N.3   261  ILE261     -0.1245
     62  CA        -3.3870  -28.9450  -11.8180 C.3   261  ILE261      0.1561
     63  C         -3.0520  -29.7060  -10.5160 C.2   261  ILE261      0.2260
     64  O         -3.7520  -29.5630   -9.5100 O.2   261  ILE261     -0.2867
     65  CB        -2.6980  -27.5450  -11.7630 C.3   261  ILE261      0.0252
     66  CG1       -3.0980  -26.6920  -12.9880 C.3   261  ILE261      0.0019
     67  CG2       -1.1640  -27.6900  -11.7060 C.3   261  ILE261      0.0019
     68  CD1       -2.9260  -25.1740  -12.8270 C.3   261  ILE261      0.0001
     69  N         -7.5920  -20.0960   -9.2920 N.3   271  TYR271     -0.1241
     70  CA        -7.0650  -18.9180   -9.9720 C.3   271  TYR271      0.1605
     71  C         -7.9800  -18.5220  -11.1090 C.2   271  TYR271      0.2264
     72  O         -8.2090  -19.3250  -12.0210 O.2   271  TYR271     -0.2867
     73  CB        -5.6660  -19.1840  -10.5310 C.3   271  TYR271      0.0534
     74  CG        -4.6560  -19.5300   -9.4620 C.ar  271  TYR271     -0.0201
     75  CD1       -3.9440  -18.5260   -8.7890 C.ar  271  TYR271     -0.0009
     76  CD2       -4.3600  -20.8670   -9.1570 C.ar  271  TYR271     -0.0009
     77  CE1       -2.9860  -18.8410   -7.8180 C.ar  271  TYR271      0.0417
     78  CE2       -3.4120  -21.1850   -8.1860 C.ar  271  TYR271      0.0417
     79  CZ        -2.7530  -20.1720   -7.5150 C.ar  271  TYR271      0.1957
     80  OH        -1.8220  -20.4890   -6.5630 O.3   271  TYR271     -0.2866
     81  N         -8.5160  -15.6690  -14.0540 N.3   273  THR273     -0.1218
     82  CA        -7.7580  -14.7100  -14.8230 C.3   273  THR273      0.1862
     83  C         -8.5190  -14.1770  -16.0300 C.2   273  THR273      0.2287
     84  O         -9.1560  -14.9280  -16.7550 O.2   273  THR273     -0.2866
     85  CB        -6.4640  -15.3740  -15.3340 C.3   273  THR273      0.1770
     86  OG1       -5.7970  -15.9940  -14.2340 O.3   273  THR273     -0.2211
     87  CG2       -5.5250  -14.3680  -16.0020 C.3   273  THR273      0.0375
     88  N         -6.9730  -12.7630   -3.1620 N.3   317  VAL317     -0.1245
     89  CA        -6.1460  -11.7360   -3.7770 C.3   317  VAL317      0.1561
     90  C         -6.8230  -11.2900   -5.0870 C.2   317  VAL317      0.2260
     91  O         -7.2560  -12.1230   -5.8880 O.2   317  VAL317     -0.2867
     92  CB        -4.7050  -12.2410   -4.0460 C.3   317  VAL317      0.0252
     93  CG1       -3.8550  -11.1190   -4.6030 C.3   317  VAL317      0.0019
     94  CG2       -4.0700  -12.7490   -2.7480 C.3   317  VAL317      0.0019
     95  N         -2.3480   -7.5100  -12.8470 N.3   321  LYS321     -0.1245
     96  CA        -1.1090   -8.2490  -12.7880 C.3   321  LYS321      0.1561
     97  C         -0.3880   -7.9320  -14.0530 C.2   321  LYS321      0.2260
     98  O         -0.9830   -7.9460  -15.1440 O.2   321  LYS321     -0.2867
     99  CB        -1.3620   -9.7620  -12.6560 C.3   321  LYS321      0.0271
    100  CG        -0.1110  -10.6160  -12.6640 C.3   321  LYS321      0.0035
    101  CD        -0.4810  -12.0960  -12.6150 C.3   321  LYS321      0.0206
    102  CE         0.5630  -12.9810  -13.3000 C.3   321  LYS321      0.1093
    103  NZ        -0.0610  -14.0460  -14.1570 N.3   321  LYS321     -0.1314
    104  N         -6.7830  -10.5820  -12.0880 N.3   331  ILE331     -0.1245
    105  CA        -6.8520  -11.8670  -11.3840 C.3   331  ILE331      0.1561
    106  C         -7.7190  -11.7560  -10.1350 C.2   331  ILE331      0.2260
    107  O         -7.8310  -10.6810   -9.5180 O.2   331  ILE331     -0.2867
    108  CB        -5.4390  -12.4140  -10.9930 C.3   331  ILE331      0.0252
    109  CG1       -4.6430  -11.4010  -10.2050 C.3   331  ILE331      0.0019
    110  CG2       -4.6170  -12.7550  -12.2260 C.3   331  ILE331      0.0019
    111  CD1       -4.4850  -11.7030   -8.7450 C.3   331  ILE331      0.0001
    112  N         -7.7550  -14.6010   -7.1690 N.3   333  ASN333     -0.1240
    113  CA        -7.2570  -15.8800   -6.6650 C.3   333  ASN333      0.1653
    114  C         -7.6970  -16.1050   -5.2380 C.2   333  ASN333      0.2266
    115  O         -7.6370  -15.1940   -4.4030 O.2   333  ASN333     -0.2867
    116  CB        -5.7270  -15.9100   -6.7440 C.3   333  ASN333      0.1155
    117  CG        -5.2470  -15.6250   -8.1550 C.2   333  ASN333      0.2627
    118  OD1       -6.0120  -15.8350   -9.1110 O.2   333  ASN333     -0.2716
    119  ND2       -3.9880  -15.1540   -8.3140 N.am  333  ASN333     -0.0877
    120  N        -10.4990  -17.2920  -17.6520 N.3   434  ARG434     -0.1231
    121  CA        -9.6570  -18.4860  -17.6100 C.3   434  ARG434      0.1694
    122  C         -9.6170  -18.9770  -16.1560 C.2   434  ARG434      0.2592
    123  O         -9.4350  -18.1940  -15.2190 O.2   434  ARG434     -0.2718
    124  CB        -8.2580  -18.1750  -18.1110 C.3   434  ARG434      0.0321
    125  CG        -8.1390  -18.0160  -19.6160 C.3   434  ARG434      0.0489
    126  CD        -6.7560  -17.4890  -20.0330 C.3   434  ARG434      0.2205
    127  NE        -5.6490  -18.2010  -19.3950 N.pl3 434  ARG434     -0.0865
    128  CZ        -5.1060  -19.3280  -19.8390 C.cat 434  ARG434      0.5346
    129  NH1       -5.5370  -19.8890  -20.9610 N.pl3 434  ARG434      0.1354
    130  NH2       -4.1070  -19.8810  -19.1650 N.pl3 434  ARG434      0.1354
    131  N         -9.7870  -20.2730  -15.9620 N.am  435  VAL435     -0.1966
    132  CA        -9.9380  -20.8200  -14.6100 C.3   435  VAL435      0.1727
    133  C         -8.9120  -21.9390  -14.3880 C.2   435  VAL435      0.2616
    134  O         -8.7410  -22.8190  -15.2430 O.2   435  VAL435     -0.2715
    135  CB       -11.3860  -21.3540  -14.4210 C.3   435  VAL435      0.0290
    136  CG1      -11.6260  -21.9300  -13.0210 C.3   435  VAL435      0.0023
    137  CG2      -12.3850  -20.2430  -14.7120 C.3   435  VAL435      0.0023
    138  N         -8.2280  -21.8950  -13.2560 N.am  436  ALA436     -0.1977
    139  CA        -7.3150  -22.9830  -12.8810 C.3   436  ALA436      0.1597
    140  C         -7.5940  -23.4650  -11.4640 C.2   436  ALA436      0.2287
    141  O         -7.6840  -22.6660  -10.5350 O.2   436  ALA436     -0.2864
    142  CB        -5.8450  -22.5530  -13.0130 C.3   436  ALA436      0.0319
@<TRIPOS>BOND
     1    45    44    2
     2    44    43    1
     3    43    42    1
     4    43    46    1
     5    60    59    1
     6   129   128    1
     7    46    47    1
     8    46    48    1
     9   126   125    1
    10   126   127    1
    11    59    58   ar
    12    59    57   ar
    13   128   127    2
    14   128   130    1
    15    58    56   ar
    16    36    35    2
    17   125   124    1
    18    57    55   ar
    19    35    34    1
    20    56    54   ar
    21    28    27    2
    22   124   121    1
    23    55    54   ar
    24   120   121    1
    25   121   122    1
    26    54    53    1
    27    31    30    1
    28    27    26    1
    29    27    33   am
    30    34    33    1
    31    34    37    1
    32    38    37    1
    33    38    39    1
    34    84    83    2
    35    26    25    1
    36    26    29    1
    37    49    50    1
    38   122   131   am
    39   122   123    2
    40    53    50    1
    41    30    29    1
    42    30    32    1
    43    39    41   ar
    44    39    40   ar
    45    83    82    1
    46    87    85    1
    47    50    51    1
    48   131   132    1
    49    17    16    2
    50    85    82    1
    51    85    86    1
    52   134   133    2
    53    98    97    2
    54    24    22   ar
    55    24    23   ar
    56    82    81    1
    57    16    15    1
    58   137   135    1
    59    22    20   ar
    60    51    52    2
    61   132   135    1
    62   132   133    1
    63    23    21   ar
    64   135   136    1
    65   133   138   am
    66   103   102    1
    67    97    96    1
    68    20    19   ar
    69    21    19   ar
    70     9     8    2
    71    19    18    1
    72    15    18    1
    73    15    14    1
    74   102   101    1
    75   138   139    1
    76   142   139    1
    77    66    68    1
    78    66    65    1
    79   139   140    1
    80    95    96    1
    81    96    99    1
    82     8    14   am
    83     8     7    1
    84   100    99    1
    85   100   101    1
    86   110   108    1
    87   104   105    1
    88    61    62    1
    89    72    71    2
    90    62    65    1
    91    62    63    1
    92     7     6    1
    93     7    10    1
    94    65    67    1
    95   140   141    2
    96   105   108    1
    97   105   106    1
    98    71    70    1
    99   108   109    1
   100    10    11    1
   101    13    11    1
   102    73    70    1
   103    73    74    1
   104    63    64    2
   105   109   111    1
   106   106   107    2
   107    70    69    1
   108    11    12    1
   109     4     3    2
   110    74    76   ar
   111    74    75   ar
   112    76    78   ar
   113   118   117    2
   114     3     2    1
   115    75    77   ar
   116   119   117   am
   117    78    79   ar
   118   117   116    1
   119    77    79   ar
   120    79    80    1
   121     2     1    1
   122     2     5    1
   123   112   113    1
   124   116   113    1
   125   113   114    1
   126    91    90    2
   127   114   115    2
   128    90    89    1
   129    93    92    1
   130    92    89    1
   131    92    94    1
   132    89    88    1
