@<TRIPOS>MOLECULE
tmp/4pevB00.pdb
 172 165 0 0 0
SMALL
GASTEIGER

@<TRIPOS>ATOM
      1  N          0.2490   39.9910   50.3340 N.3     9  ASP9       -0.1225
      2  CA         1.6250   40.2850   50.7680 C.3     9  ASP9        0.1805
      3  C          2.6770   39.7710   49.8100 C.2     9  ASP9        0.2598
      4  O          3.1550   40.4660   48.9260 O.2     9  ASP9       -0.2718
      5  CB         1.8820   39.5450   52.1070 C.3     9  ASP9        0.1424
      6  CG         2.0460   40.4500   53.2530 C.2     9  ASP9        0.3668
      7  OD1        1.6420   41.6150   53.1580 O.co2   9  ASP9       -0.2456
      8  OD2        2.5920   39.9830   54.2690 O.co2   9  ASP9       -0.2456
      9  N          3.0160   38.5040   50.0050 N.am   10  VAL10      -0.1966
     10  CA         4.1810   37.9090   49.3810 C.3    10  VAL10       0.1727
     11  C          3.7870   36.6290   48.6570 C.2    10  VAL10       0.2616
     12  O          4.2610   36.3770   47.5590 O.2    10  VAL10      -0.2715
     13  CB         5.3300   37.6800   50.4030 C.3    10  VAL10       0.0290
     14  CG1        5.7490   39.0120   51.0000 C.3    10  VAL10       0.0023
     15  CG2        4.9450   36.7120   51.5170 C.3    10  VAL10       0.0023
     16  N          2.9090   35.8320   49.2400 N.am   11  GLY11      -0.1955
     17  CA         2.5240   34.6050   48.5780 C.3    11  GLY11       0.1869
     18  C          1.3940   34.8480   47.6100 C.2    11  GLY11       0.2309
     19  O          1.2860   35.9170   47.0000 O.2    11  GLY11      -0.2863
     20  N         -1.5030   28.2690   49.7380 N.3    15  ASP15      -0.1239
     21  CA        -0.9670   28.3820   51.1030 C.3    15  ASP15       0.1674
     22  C         -1.3520   27.1800   51.9970 C.2    15  ASP15       0.2266
     23  O         -0.5820   26.7850   52.8690 O.2    15  ASP15      -0.2867
     24  CB        -1.5430   29.6720   51.7470 C.3    15  ASP15       0.1410
     25  CG        -0.5200   30.4470   52.5500 C.2    15  ASP15       0.3668
     26  OD1        0.5610   29.9040   52.8420 O.co2  15  ASP15      -0.2456
     27  OD2       -0.7830   31.6130   52.8930 O.co2  15  ASP15      -0.2456
     28  N         -3.4980   27.7030   54.0700 N.3    17  SER17      -0.1202
     29  CA        -3.2650   28.4560   55.2900 C.3    17  SER17       0.2020
     30  C         -3.7900   29.9080   55.1520 C.2    17  SER17       0.2619
     31  O         -4.8500   30.1370   54.5630 O.2    17  SER17      -0.2717
     32  CB        -1.7580   28.4340   55.5670 C.3    17  SER17       0.2103
     33  OG        -1.4910   28.7300   56.9120 O.3    17  SER17      -0.2182
     34  N         -3.0420   30.8670   55.6910 N.am   18  PHE18      -0.1961
     35  CA        -3.3760   32.2820   55.6590 C.3    18  PHE18       0.1771
     36  C         -3.9760   32.8360   54.3660 C.2    18  PHE18       0.2619
     37  O         -5.0380   33.4370   54.4040 O.2    18  PHE18      -0.2715
     38  CB        -2.1200   33.0780   55.9840 C.3    18  PHE18       0.0574
     39  CG        -2.3810   34.4950   56.3320 C.ar   18  PHE18      -0.0200
     40  CD1       -3.1600   34.8180   57.4290 C.ar   18  PHE18      -0.0042
     41  CD2       -1.8290   35.5090   55.5840 C.ar   18  PHE18      -0.0042
     42  CE1       -3.3950   36.1470   57.7670 C.ar   18  PHE18      -0.0003
     43  CE2       -2.0520   36.8360   55.9120 C.ar   18  PHE18      -0.0003
     44  CZ        -2.8430   37.1570   57.0000 C.ar   18  PHE18      -0.0000
     45  N         -3.2950   32.6960   53.2340 N.am   19  ASN19      -0.1972
     46  CA        -3.8040   33.2580   51.9650 C.3    19  ASN19       0.1688
     47  C         -4.9680   32.4800   51.3900 C.2    19  ASN19       0.2292
     48  O         -5.8890   33.0700   50.8540 O.2    19  ASN19      -0.2864
     49  CB        -2.7010   33.3690   50.9280 C.3    19  ASN19       0.1181
     50  CG        -1.6570   34.4110   51.2990 C.2    19  ASN19       0.2629
     51  OD1       -1.8470   35.2010   52.2290 O.2    19  ASN19      -0.2716
     52  ND2       -0.5450   34.4230   50.5640 N.am   19  ASN19      -0.0877
     53  N         -2.1570   40.7350   54.9460 N.3    66  GLY66      -0.1210
     54  CA        -0.8110   40.7250   55.4890 C.3    66  GLY66       0.1956
     55  C         -0.3190   42.0170   56.1220 C.2    66  GLY66       0.2611
     56  O         -0.6480   43.1260   55.6950 O.2    66  GLY66      -0.2717
     57  N          0.5100   41.8360   57.1430 N.am   67  PHE67      -0.1976
     58  CA         1.1060   42.9270   57.8830 C.3    67  PHE67       0.1639
     59  C          1.9340   43.8770   57.0100 C.2    67  PHE67       0.2290
     60  O          2.0300   45.0780   57.2860 O.2    67  PHE67      -0.2864
     61  CB         1.9980   42.3770   59.0000 C.3    67  PHE67       0.0560
     62  CG         2.7570   43.4470   59.7020 C.ar   67  PHE67      -0.0200
     63  CD1        2.1400   44.2150   60.6720 C.ar   67  PHE67      -0.0042
     64  CD2        4.0580   43.7400   59.3370 C.ar   67  PHE67      -0.0042
     65  CE1        2.8260   45.2360   61.2910 C.ar   67  PHE67      -0.0003
     66  CE2        4.7520   44.7680   59.9500 C.ar   67  PHE67      -0.0003
     67  CZ         4.1380   45.5180   60.9250 C.ar   67  PHE67      -0.0000
     68  N         -5.0150   41.3460   59.2530 N.3    89  ASP89      -0.1239
     69  CA        -3.9020   40.9270   60.0970 C.3    89  ASP89       0.1674
     70  C         -2.9720   42.0900   60.4910 C.2    89  ASP89       0.2266
     71  O         -1.7800   41.8960   60.7590 O.2    89  ASP89      -0.2867
     72  CB        -3.1300   39.7770   59.4160 C.3    89  ASP89       0.1410
     73  CG        -2.5830   38.7620   60.4120 C.2    89  ASP89       0.3668
     74  OD1       -3.3040   38.4420   61.3930 O.co2  89  ASP89      -0.2456
     75  OD2       -1.4370   38.2880   60.2140 O.co2  89  ASP89      -0.2456
     76  N          7.6050   39.2330   62.6630 N.3   141  ILE141     -0.1245
     77  CA         6.6880   40.3870   62.5510 C.3   141  ILE141      0.1561
     78  C          5.6100   40.3960   63.6270 C.2   141  ILE141      0.2260
     79  O          5.3190   39.3540   64.2200 O.2   141  ILE141     -0.2867
     80  CB         5.9860   40.4660   61.1720 C.3   141  ILE141      0.0252
     81  CG1        5.3210   39.1370   60.8240 C.3   141  ILE141      0.0019
     82  CG2        6.9600   40.8870   60.0790 C.3   141  ILE141      0.0019
     83  CD1        4.4350   39.2170   59.6030 C.3   141  ILE141      0.0001
     84  N          2.3640   40.1880   64.1850 N.3   143  PRO143     -0.2102
     85  CA         1.4510   39.0760   64.4300 C.3   143  PRO143      0.1504
     86  C          2.1410   37.8100   64.9470 C.2   143  PRO143      0.2575
     87  O          1.5190   37.0370   65.7020 O.2   143  PRO143     -0.2718
     88  CB         0.7950   38.8290   63.0640 C.3   143  PRO143      0.0282
     89  CG         1.3930   39.8030   62.1130 C.3   143  PRO143      0.0208
     90  CD         2.0890   40.8520   62.9000 C.3   143  PRO143      0.0893
     91  N          3.4020   37.6070   64.5610 N.am  144  LEU144     -0.1980
     92  CA         4.1590   36.4420   65.0250 C.3   144  LEU144      0.1596
     93  C          4.7640   36.6110   66.4060 C.2   144  LEU144      0.2287
     94  O          5.0330   35.6250   67.0800 O.2   144  LEU144     -0.2864
     95  CB         5.2270   36.0200   64.0140 C.3   144  LEU144      0.0297
     96  CG         4.7170   34.9310   63.0540 C.3   144  LEU144      0.0022
     97  CD1        3.6500   35.4650   62.1100 C.3   144  LEU144      0.0001
     98  CD2        5.8390   34.3230   62.2440 C.3   144  LEU144      0.0001
     99  N          2.0770   35.3380   68.3790 N.3   147  PHE147     -0.1241
    100  CA         2.0290   33.8810   68.3190 C.3   147  PHE147      0.1605
    101  C          3.0530   33.3040   69.2800 C.2   147  PHE147      0.2264
    102  O          2.7620   32.3540   69.9960 O.2   147  PHE147     -0.2867
    103  CB         2.3150   33.3670   66.9080 C.3   147  PHE147      0.0534
    104  CG         1.0930   33.2020   66.0520 C.ar  147  PHE147     -0.0203
    105  CD1        0.1580   32.2170   66.3400 C.ar  147  PHE147     -0.0042
    106  CD2        0.9000   33.9910   64.9370 C.ar  147  PHE147     -0.0042
    107  CE1       -0.9660   32.0410   65.5460 C.ar  147  PHE147     -0.0003
    108  CE2       -0.2130   33.8150   64.1410 C.ar  147  PHE147     -0.0003
    109  CZ        -1.1480   32.8370   64.4470 C.ar  147  PHE147     -0.0000
    110  N          7.5420   33.2820   54.3980 N.3   174  PHE174     -0.1241
    111  CA         6.1880   32.6850   54.3740 C.3   174  PHE174      0.1605
    112  C          5.9140   31.7610   53.1620 C.2   174  PHE174      0.2264
    113  O          4.9610   30.9730   53.1640 O.2   174  PHE174     -0.2867
    114  CB         5.1420   33.7910   54.4610 C.3   174  PHE174      0.0534
    115  CG         5.0980   34.4760   55.8030 C.ar  174  PHE174     -0.0203
    116  CD1        4.7860   33.7660   56.9500 C.ar  174  PHE174     -0.0042
    117  CD2        5.3470   35.8470   55.9230 C.ar  174  PHE174     -0.0042
    118  CE1        4.7420   34.3980   58.1940 C.ar  174  PHE174     -0.0003
    119  CE2        5.2910   36.4810   57.1640 C.ar  174  PHE174     -0.0003
    120  CZ         4.9940   35.7570   58.3000 C.ar  174  PHE174     -0.0000
    121  N          3.7080   27.9150   61.9760 N.3   197  VAL197     -0.1231
    122  CA         3.3430   29.3240   62.0480 C.3   197  VAL197      0.1692
    123  C          4.0770   30.1240   60.9700 C.2   197  VAL197      0.2592
    124  O          4.7860   31.0810   61.2570 O.2   197  VAL197     -0.2718
    125  CB         3.6700   29.9180   63.4330 C.3   197  VAL197      0.0266
    126  CG1        2.8380   31.1650   63.6640 C.3   197  VAL197      0.0020
    127  CG2        3.3990   28.9140   64.5420 C.3   197  VAL197      0.0020
    128  N          3.8690   29.7550   59.7170 N.am  198  ALA198     -0.1966
    129  CA         4.7010   30.2600   58.6260 C.3   198  ALA198      0.1728
    130  C          4.0030   30.1940   57.2670 C.2   198  ALA198      0.2616
    131  O          4.6650   30.1860   56.2220 O.2   198  ALA198     -0.2715
    132  CB         5.9990   29.4720   58.5850 C.3   198  ALA198      0.0334
    133  N          2.6710   30.1640   57.2760 N.am  199  GLY199     -0.1955
    134  CA         1.9110   29.9170   56.0510 C.3   199  GLY199      0.1869
    135  C          2.5280   28.8030   55.2280 C.2   199  GLY199      0.2309
    136  O          2.8250   27.7310   55.7620 O.2   199  GLY199     -0.2863
    137  N          5.4610   26.2840   56.4270 N.3   202  HIS202     -0.1241
    138  CA         5.3200   25.1600   57.3500 C.3   202  HIS202      0.1621
    139  C          4.6440   23.9400   56.7270 C.2   202  HIS202      0.2264
    140  O          4.4960   22.9250   57.3850 O.2   202  HIS202     -0.2867
    141  CB         4.6820   25.5690   58.6970 C.3   202  HIS202      0.0745
    142  CG         3.2070   25.8170   58.6550 C.ar  202  HIS202      0.0817
    143  ND1        2.6670   27.0620   58.8750 N.ar  202  HIS202     -0.2268
    144  CD2        2.1540   24.9760   58.5030 C.ar  202  HIS202      0.1154
    145  CE1        1.3460   26.9900   58.8270 C.ar  202  HIS202      0.1986
    146  NE2        1.0060   25.7330   58.6040 N.ar  202  HIS202     -0.2212
    147  N         -2.2660   25.7510   61.5690 N.3   223  GLN223     -0.1231
    148  CA        -2.6150   27.1140   61.9000 C.3   223  GLN223      0.1698
    149  C         -3.4440   27.7510   60.7650 C.2   223  GLN223      0.2592
    150  O         -3.3690   27.3350   59.5980 O.2   223  GLN223     -0.2718
    151  CB        -1.3480   27.9080   62.1990 C.3   223  GLN223      0.0381
    152  CG        -1.5750   29.3350   62.6630 C.3   223  GLN223      0.0905
    153  CD        -2.6120   29.4830   63.7840 C.2   223  GLN223      0.2608
    154  OE1       -2.5190   28.8590   64.8320 O.2   223  GLN223     -0.2717
    155  NE2       -3.5980   30.3360   63.5590 N.am  223  GLN223     -0.0878
    156  N         -4.2710   28.7290   61.1490 N.am  224  ASP224     -0.1974
    157  CA        -5.1760   29.4980   60.2730 C.3   224  ASP224      0.1709
    158  C         -6.3130   28.6000   59.7950 C.2   224  ASP224      0.2293
    159  O         -7.4250   28.7070   60.3070 O.2   224  ASP224     -0.2864
    160  CB        -4.4380   30.2190   59.1310 C.3   224  ASP224      0.1436
    161  CG        -3.2380   31.0520   59.6320 C.2   224  ASP224      0.3671
    162  OD1       -3.4120   31.8290   60.5990 O.co2 224  ASP224     -0.2456
    163  OD2       -2.1180   30.9200   59.0590 O.co2 224  ASP224     -0.2456
    164  N         -7.6240   30.7150   62.6610 N.3   241  LYS241     -0.1245
    165  CA        -7.6440   32.1550   62.5560 C.3   241  LYS241      0.1561
    166  C         -8.5660   32.5020   61.4000 C.2   241  LYS241      0.2260
    167  O         -8.2370   32.2560   60.2440 O.2   241  LYS241     -0.2867
    168  CB        -6.2380   32.6830   62.3090 C.3   241  LYS241      0.0271
    169  CG        -6.1550   34.2000   62.2650 C.3   241  LYS241      0.0035
    170  CD        -4.8420   34.7340   62.8360 C.3   241  LYS241      0.0206
    171  CE        -4.0170   35.4430   61.7790 C.3   241  LYS241      0.1093
    172  NZ        -2.8540   36.1530   62.3710 N.3   241  LYS241     -0.1314
@<TRIPOS>BOND
     1    19    18    2
     2    12    11    2
     3    18    17    1
     4    17    16    1
     5    11    16   am
     6    11    10    1
     7     4     3    2
     8    10     9    1
     9    10    13    1
    10    20    21    1
    11     3     9   am
    12     3     2    1
    13     1     2    1
    14    13    14    1
    15    13    15    1
    16    52    50   am
    17     2     5    1
    18    48    47    2
    19    49    50    1
    20    49    46    1
    21    21    24    1
    22    21    22    1
    23    50    51    2
    24    47    46    1
    25    24    25    1
    26    46    45    1
    27    22    23    2
    28     5     6    1
    29    25    26   ar
    30    25    27   ar
    31     7     6   ar
    32   112   113    2
    33   112   111    1
    34    45    36   am
    35     6     8   ar
    36    28    29    1
    37    36    37    2
    38    36    35    1
    39   111   110    1
    40   111   114    1
    41   114   115    1
    42    31    30    2
    43    53    54    1
    44    30    29    1
    45    30    34   am
    46   135   136    2
    47   135   134    1
    48    29    32    1
    49    54    55    1
    50    32    33    1
    51    41    43   ar
    52    41    39   ar
    53    35    34    1
    54    35    38    1
    55    56    55    2
    56   115   117   ar
    57   115   116   ar
    58    43    44   ar
    59   117   119   ar
    60    38    39    1
    61   134   133    1
    62    55    57   am
    63   131   130    2
    64    39    40   ar
    65   137   138    1
    66   139   138    1
    67   139   140    2
    68   116   118   ar
    69    44    42   ar
    70    59    60    2
    71    59    58    1
    72    57    58    1
    73   119   120   ar
    74   130   133   am
    75   130   129    1
    76   138   141    1
    77    40    42   ar
    78    58    61    1
    79   118   120   ar
    80   144   146   ar
    81   144   142   ar
    82   132   129    1
    83   146   145   ar
    84   129   128    1
    85   142   141    1
    86   142   143   ar
    87   145   143   ar
    88    61    62    1
    89   163   161   ar
    90   160   161    1
    91   160   157    1
    92    68    69    1
    93    64    62   ar
    94    64    66   ar
    95    72    69    1
    96    72    73    1
    97   150   149    2
    98    83    81    1
    99   161   162   ar
   100    62    63   ar
   101   128   123   am
   102   158   157    1
   103   158   159    2
   104    66    67   ar
   105    82    80    1
   106    69    70    1
   107    75    73   ar
   108   167   166    2
   109   157   156    1
   110    73    74   ar
   111    70    71    2
   112    63    65   ar
   113   149   156   am
   114   149   148    1
   115    81    80    1
   116    67    65   ar
   117   123   124    2
   118   123   122    1
   119    80    77    1
   120   166   165    1
   121   147   148    1
   122   171   172    1
   123   171   170    1
   124   148   151    1
   125   121   122    1
   126   122   125    1
   127    97    96    1
   128    89    90    1
   129    89    88    1
   130   151   152    1
   131    98    96    1
   132   169   168    1
   133   169   170    1
   134   168   165    1
   135    77    76    1
   136    77    78    1
   137   165   164    1
   138   152   153    1
   139    90    84    1
   140    96    95    1
   141    88    85    1
   142   125   126    1
   143   125   127    1
   144   155   153   am
   145    78    79    2
   146   153   154    2
   147    95    92    1
   148   108   109   ar
   149   108   106   ar
   150    84    85    1
   151    85    86    1
   152   109   107   ar
   153    91    86   am
   154    91    92    1
   155   106   104   ar
   156    86    87    2
   157    92    93    1
   158   107   105   ar
   159   104   105   ar
   160   104   103    1
   161    93    94    2
   162   103   100    1
   163   100    99    1
   164   100   101    1
   165   101   102    2
