@<TRIPOS>MOLECULE
tmp/4pexB00.pdb
 159 153 0 0 0
SMALL
GASTEIGER

@<TRIPOS>ATOM
      1  N          7.6270  -10.8760   73.8240 N.3    90  PHE90      -0.1241
      2  CA         8.5490  -11.7170   74.6060 C.3    90  PHE90       0.1605
      3  C          7.7590  -12.8410   75.2600 C.2    90  PHE90       0.2264
      4  O          8.0510  -13.2490   76.3840 O.2    90  PHE90      -0.2867
      5  CB         9.2650  -10.8740   75.6690 C.3    90  PHE90       0.0534
      6  CG        10.5910  -11.4350   76.1340 C.ar   90  PHE90      -0.0203
      7  CD1       11.4610  -12.0550   75.2470 C.ar   90  PHE90      -0.0042
      8  CD2       10.9980  -11.2860   77.4600 C.ar   90  PHE90      -0.0042
      9  CE1       12.7100  -12.5530   75.6880 C.ar   90  PHE90      -0.0003
     10  CE2       12.2420  -11.7950   77.9070 C.ar   90  PHE90      -0.0003
     11  CZ        13.0900  -12.4190   77.0180 C.ar   90  PHE90      -0.0000
     12  N          9.7380   -8.8860   81.8500 N.3    95  THR95      -0.1203
     13  CA        10.9500   -8.4380   82.5420 C.3    95  THR95       0.1994
     14  C         11.9250   -7.6480   81.6760 C.2    95  THR95       0.2617
     15  O         12.9550   -7.1740   82.1910 O.2    95  THR95      -0.2717
     16  CB        11.7250   -9.6210   83.1530 C.3    95  THR95       0.1784
     17  OG1       12.1250  -10.5380   82.1170 O.3    95  THR95      -0.2211
     18  CG2       10.8500  -10.3320   84.1880 C.3    95  THR95       0.0376
     19  N         11.6130   -7.4690   80.3830 N.am   96  GLN96      -0.1979
     20  CA        12.4290   -6.5440   79.6000 C.3    96  GLN96       0.1601
     21  C         11.6610   -5.3370   79.0690 C.2    96  GLN96       0.2287
     22  O         12.1530   -4.6280   78.1810 O.2    96  GLN96      -0.2864
     23  CB        13.1290   -7.3140   78.4530 C.3    96  GLN96       0.0394
     24  CG        14.0870   -8.3520   79.0780 C.3    96  GLN96       0.0908
     25  CD        14.9750   -9.1010   78.0990 C.2    96  GLN96       0.2608
     26  OE1       15.1050   -8.7270   76.9240 O.2    96  GLN96      -0.2717
     27  NE2       15.6250  -10.1740   78.6050 N.am   96  GLN96      -0.0878
     28  N         11.3050   -2.0960   79.3690 N.3    98  PHE98      -0.1241
     29  CA        12.0120   -0.9380   79.9020 C.3    98  PHE98       0.1605
     30  C         11.8020    0.3470   79.1010 C.2    98  PHE98       0.2264
     31  O         11.3170    0.3220   77.9540 O.2    98  PHE98      -0.2867
     32  CB        13.5410   -1.1720   79.8790 C.3    98  PHE98       0.0534
     33  CG        14.0030   -2.4570   80.4500 C.ar   98  PHE98      -0.0203
     34  CD1       13.5920   -2.8920   81.6910 C.ar   98  PHE98      -0.0042
     35  CD2       14.9320   -3.2150   79.7440 C.ar   98  PHE98      -0.0042
     36  CE1       14.0870   -4.0860   82.2280 C.ar   98  PHE98      -0.0003
     37  CE2       15.4530   -4.3910   80.2760 C.ar   98  PHE98      -0.0003
     38  CZ        15.0020   -4.8310   81.5190 C.ar   98  PHE98      -0.0000
     39  N         11.5880   -2.0940   84.7190 N.3   120  GLN120     -0.1245
     40  CA        12.2510   -0.8610   85.1990 C.3   120  GLN120      0.1566
     41  C         12.2540    0.3030   84.2060 C.2   120  GLN120      0.2260
     42  O         12.1320    0.0840   83.0160 O.2   120  GLN120     -0.2867
     43  CB        13.7020   -1.1430   85.6300 C.3   120  GLN120      0.0367
     44  CG        13.7750   -2.0420   86.9540 C.3   120  GLN120      0.0905
     45  CD        13.9110   -3.5330   86.6430 C.2   120  GLN120      0.2608
     46  OE1       13.5590   -3.9890   85.5470 O.2   120  GLN120     -0.2717
     47  NE2       14.4000   -4.3030   87.6090 N.am  120  GLN120     -0.0878
     48  N          9.0070   -7.0680   86.6560 N.3   144  SER144     -0.1217
     49  CA         9.8960   -6.5080   87.6700 C.3   144  SER144      0.1889
     50  C          9.8920   -4.9540   87.6270 C.2   144  SER144      0.2288
     51  O         10.9130   -4.3180   87.4190 O.2   144  SER144     -0.2866
     52  CB        11.3180   -7.0890   87.4810 C.3   144  SER144      0.2089
     53  OG        12.2460   -6.5270   88.4040 O.3   144  SER144     -0.2183
     54  N          7.0690   -8.4780   90.8620 N.3   163  GLN163     -0.1245
     55  CA         7.8540   -8.7700   92.0690 C.3   163  GLN163      0.1566
     56  C          7.8000   -7.7000   93.1440 C.2   163  GLN163      0.2260
     57  O          7.7910   -8.0100   94.3470 O.2   163  GLN163     -0.2867
     58  CB         9.3180   -8.9640   91.7260 C.3   163  GLN163      0.0367
     59  CG         9.6340  -10.1670   90.8030 C.3   163  GLN163      0.0905
     60  CD        11.0080  -10.0140   90.2000 C.2   163  GLN163      0.2608
     61  OE1       11.7840   -9.1170   90.5840 O.2   163  GLN163     -0.2717
     62  NE2       11.3240  -10.8560   89.2510 N.am  163  GLN163     -0.0878
     63  N         21.7620    0.8610   85.8000 N.3   392  TRP392     -0.1241
     64  CA        21.7500   -0.5330   85.3330 C.3   392  TRP392      0.1605
     65  C         22.9940   -0.9210   84.5560 C.2   392  TRP392      0.2264
     66  O         23.2180   -0.4600   83.4290 O.2   392  TRP392     -0.2867
     67  CB        20.5180   -0.7580   84.4590 C.3   392  TRP392      0.0550
     68  CG        20.2720   -2.1760   83.9160 C.ar  392  TRP392      0.0003
     69  CD1       19.8200   -3.2720   84.6150 C.ar  392  TRP392      0.0946
     70  CD2       20.3220   -2.5650   82.5360 C.ar  392  TRP392      0.0152
     71  NE1       19.6320   -4.3320   83.7460 N.ar  392  TRP392     -0.2442
     72  CE2       19.8970   -3.9130   82.4660 C.ar  392  TRP392      0.0810
     73  CE3       20.6740   -1.8910   81.3520 C.ar  392  TRP392      0.0012
     74  CZ2       19.8370   -4.6220   81.2760 C.ar  392  TRP392      0.0191
     75  CZ3       20.6200   -2.6060   80.1410 C.ar  392  TRP392      0.0001
     76  CH2       20.1920   -3.9580   80.1240 C.ar  392  TRP392      0.0015
     77  N         22.7480   -6.7860   81.8250 N.3   395  ASP395     -0.1225
     78  CA        22.8980   -8.2580   81.9930 C.3   395  ASP395      0.1805
     79  C         22.6290   -9.0010   80.6900 C.2   395  ASP395      0.2597
     80  O         22.8280  -10.2210   80.6030 O.2   395  ASP395     -0.2718
     81  CB        21.9550   -8.7800   83.0720 C.3   395  ASP395      0.1424
     82  CG        20.5040   -8.5290   82.6940 C.2   395  ASP395      0.3668
     83  OD1       19.8610   -9.4300   82.1530 O.co2 395  ASP395     -0.2456
     84  OD2       20.0300   -7.3980   82.8680 O.co2 395  ASP395     -0.2456
     85  N         22.1740   -8.2960   79.6660 N.am  396  HIS396     -0.1975
     86  CA        21.9120   -8.9450   78.3770 C.3   396  HIS396      0.1656
     87  C         22.0840   -7.9120   77.2880 C.2   396  HIS396      0.2291
     88  O         22.1640   -6.7110   77.5780 O.2   396  HIS396     -0.2864
     89  CB        20.5010   -9.5750   78.3130 C.3   396  HIS396      0.0771
     90  CG        19.3770   -8.5800   78.4750 C.ar  396  HIS396      0.0820
     91  ND1       18.8960   -8.2060   79.7130 N.ar  396  HIS396     -0.2267
     92  CD2       18.6570   -7.8780   77.5670 C.ar  396  HIS396      0.1154
     93  CE1       17.9240   -7.3230   79.5630 C.ar  396  HIS396      0.1986
     94  NE2       17.7650   -7.0930   78.2690 N.ar  396  HIS396     -0.2212
     95  N         21.3420   -2.0110   89.7450 N.3   426  GLU426     -0.1231
     96  CA        21.5490   -3.4540   89.5160 C.3   426  GLU426      0.1699
     97  C         22.8620   -3.8070   88.7860 C.2   426  GLU426      0.2592
     98  O         23.2630   -3.1300   87.8410 O.2   426  GLU426     -0.2718
     99  CB        20.3970   -4.0530   88.6920 C.3   426  GLU426      0.0402
    100  CG        18.9790   -3.7530   89.1430 C.3   426  GLU426      0.1161
    101  CD        18.0380   -4.5300   88.2710 C.2   426  GLU426      0.3649
    102  OE1       17.8300   -4.0810   87.1030 O.co2 426  GLU426     -0.2457
    103  OE2       17.5540   -5.6140   88.7260 O.co2 426  GLU426     -0.2457
    104  N         23.4860   -4.9000   89.2460 N.am  427  HIS427     -0.1976
    105  CA        24.4750   -5.7250   88.5390 C.3   427  HIS427      0.1656
    106  C         25.9010   -5.1650   88.5690 C.2   427  HIS427      0.2291
    107  O         26.7430   -5.6740   87.8370 O.2   427  HIS427     -0.2864
    108  CB        24.1080   -5.9840   87.0670 C.3   427  HIS427      0.0771
    109  CG        22.7300   -6.5490   86.8840 C.ar  427  HIS427      0.0820
    110  ND1       21.8760   -6.0980   85.9030 N.ar  427  HIS427     -0.2267
    111  CD2       22.0540   -7.5180   87.5650 C.ar  427  HIS427      0.1154
    112  CE1       20.7260   -6.7600   85.9840 C.ar  427  HIS427      0.1986
    113  NE2       20.8120   -7.6290   86.9810 N.ar  427  HIS427     -0.2212
    114  N         15.2790   -1.4570   94.9850 N.3   446  GLN446     -0.1245
    115  CA        15.3390   -2.7260   94.2670 C.3   446  GLN446      0.1566
    116  C         16.7460   -2.9260   93.7010 C.2   446  GLN446      0.2260
    117  O         17.2230   -2.0930   92.9110 O.2   446  GLN446     -0.2867
    118  CB        14.3070   -2.7810   93.1310 C.3   446  GLN446      0.0367
    119  CG        14.2510   -4.2010   92.4330 C.3   446  GLN446      0.0905
    120  CD        15.2130   -4.3000   91.2530 C.2   446  GLN446      0.2608
    121  OE1       15.2680   -3.3900   90.4060 O.2   446  GLN446     -0.2717
    122  NE2       16.0150   -5.3860   91.2110 N.am  446  GLN446     -0.0878
    123  N         19.5050   -6.1230   92.0030 N.3   448  ALA448     -0.1245
    124  CA        19.9310   -7.5070   91.6670 C.3   448  ALA448      0.1562
    125  C         21.4460   -7.4680   91.5690 C.2   448  ALA448      0.2260
    126  O         22.0540   -6.5420   91.0160 O.2   448  ALA448     -0.2867
    127  CB        19.3240   -8.0050   90.3560 C.3   448  ALA448      0.0290
    128  N         25.2000  -11.0690   87.7350 N.3   451  TYR451     -0.1241
    129  CA        24.9430  -12.4920   87.4530 C.3   451  TYR451      0.1605
    130  C         26.2210  -13.1910   87.0280 C.2   451  TYR451      0.2264
    131  O         26.3460  -14.4380   87.1510 O.2   451  TYR451     -0.2867
    132  CB        23.9210  -12.6940   86.3420 C.3   451  TYR451      0.0534
    133  CG        22.5970  -11.9930   86.5390 C.ar  451  TYR451     -0.0201
    134  CD1       22.1520  -11.6270   87.8170 C.ar  451  TYR451     -0.0009
    135  CD2       21.7850  -11.7070   85.4490 C.ar  451  TYR451     -0.0009
    136  CE1       20.9120  -10.9950   87.9900 C.ar  451  TYR451      0.0417
    137  CE2       20.5450  -11.0710   85.6100 C.ar  451  TYR451      0.0417
    138  CZ        20.1280  -10.7070   86.8830 C.ar  451  TYR451      0.1957
    139  OH        18.9190  -10.0560   87.0630 O.3   451  TYR451     -0.2866
    140  N         18.3160   -9.0930   95.1180 N.3   487  TYR487     -0.1241
    141  CA        18.1780  -10.4690   94.6050 C.3   487  TYR487      0.1605
    142  C         19.4510  -10.9790   93.9390 C.2   487  TYR487      0.2264
    143  O         20.2070  -10.1870   93.3850 O.2   487  TYR487     -0.2867
    144  CB        17.0390  -10.5350   93.5850 C.3   487  TYR487      0.0534
    145  CG        15.8950   -9.5980   93.8930 C.ar  487  TYR487     -0.0201
    146  CD1       15.3820   -9.5030   95.1890 C.ar  487  TYR487     -0.0009
    147  CD2       15.3010   -8.8130   92.8900 C.ar  487  TYR487     -0.0009
    148  CE1       14.3230   -8.6260   95.4910 C.ar  487  TYR487      0.0417
    149  CE2       14.2160   -7.9290   93.1850 C.ar  487  TYR487      0.0417
    150  CZ        13.7480   -7.8530   94.4900 C.ar  487  TYR487      0.1957
    151  OH        12.6830   -7.0040   94.8180 O.3   487  TYR487     -0.2866
    152  N         17.2490  -16.2840   93.0750 N.3   520  LEU520     -0.1245
    153  CA        16.4440  -16.7750   91.9790 C.3   520  LEU520      0.1561
    154  C         16.8270  -18.2040   91.6060 C.2   520  LEU520      0.2260
    155  O         17.9000  -18.4230   91.0480 O.2   520  LEU520     -0.2867
    156  CB        16.6000  -15.8540   90.7710 C.3   520  LEU520      0.0270
    157  CG        16.1990  -14.3840   90.9820 C.3   520  LEU520      0.0019
    158  CD1       16.1460  -13.6520   89.6350 C.3   520  LEU520      0.0001
    159  CD2       14.8820  -14.2340   91.7130 C.3   520  LEU520      0.0001
@<TRIPOS>BOND
     1     1     2    1
     2     2     3    1
     3     2     5    1
     4     7     9   ar
     5     7     6   ar
     6     3     4    2
     7     5     6    1
     8     9    11   ar
     9     6     8   ar
    10    26    25    2
    11    11    10   ar
    12    87    88    2
    13    87    86    1
    14     8    10   ar
    15    92    94   ar
    16    92    90   ar
    17    31    30    2
    18    25    27   am
    19    25    24    1
    20    22    21    2
    21    94    93   ar
    22    89    86    1
    23    89    90    1
    24    86    85    1
    25    23    24    1
    26    23    20    1
    27    90    91   ar
    28    21    20    1
    29    30    29    1
    30    28    29    1
    31    93    91   ar
    32    20    19    1
    33    85    79   am
    34    35    37   ar
    35    35    33   ar
    36    32    29    1
    37    32    33    1
    38    76    75   ar
    39    76    74   ar
    40    75    73   ar
    41    37    38   ar
    42    19    14   am
    43    33    34   ar
    44    80    79    2
    45    79    78    1
    46    74    72   ar
    47    73    70   ar
    48    38    36   ar
    49    14    15    2
    50    14    13    1
    51    34    36   ar
    52    77    78    1
    53    12    13    1
    54    78    81    1
    55    17    16    1
    56    83    82   ar
    57    72    70   ar
    58    72    71   ar
    59    70    68   ar
    60    13    16    1
    61    82    84   ar
    62    82    81    1
    63    42    41    2
    64    16    18    1
    65    66    65    2
    66    71    69   ar
    67    68    67    1
    68    68    69   ar
    69    41    40    1
    70    67    64    1
    71    65    64    1
    72    39    40    1
    73    40    43    1
    74    64    63    1
    75   135   137   ar
    76   135   133   ar
    77    46    45    2
    78   137   138   ar
    79    43    44    1
    80   110   112   ar
    81   110   109   ar
    82   112   113   ar
    83   132   133    1
    84   132   129    1
    85   133   134   ar
    86    45    44    1
    87    45    47   am
    88    48    49    1
    89   138   139    1
    90   138   136   ar
    91   109   108    1
    92   109   111   ar
    93   113   111   ar
    94   130   131    2
    95   130   129    1
    96   108   105    1
    97   102   101   ar
    98    51    50    2
    99   129   128    1
   100    52    49    1
   101    52    53    1
   102    50    49    1
   103   134   136   ar
   104   107   106    2
   105    98    97    2
   106   101   103   ar
   107   101   100    1
   108   105   106    1
   109   105   104    1
   110    99   100    1
   111    99    96    1
   112    97   104   am
   113    97    96    1
   114    62    60   am
   115    96    95    1
   116   158   157    1
   117    60    61    2
   118    60    59    1
   119   127   124    1
   120   121   120    2
   121   156   157    1
   122   156   153    1
   123    59    58    1
   124    54    55    1
   125   157   159    1
   126   126   125    2
   127   155   154    2
   128   122   120   am
   129   120   119    1
   130   125   124    1
   131   154   153    1
   132   124   123    1
   133    58    55    1
   134   153   152    1
   135    55    56    1
   136   119   118    1
   137   147   149   ar
   138   147   145   ar
   139   117   116    2
   140   118   115    1
   141    56    57    2
   142   149   150   ar
   143   143   142    2
   144   144   145    1
   145   144   141    1
   146   116   115    1
   147   145   146   ar
   148   142   141    1
   149   115   114    1
   150   150   151    1
   151   150   148   ar
   152   141   140    1
   153   146   148   ar
