@<TRIPOS>MOLECULE
tmp/4peyA02.pdb
 93 90 0 0 0
SMALL
GASTEIGER

@<TRIPOS>ATOM
      1  N          5.1420   12.3110    9.0790 N.3    93  THR93      -0.1218
      2  CA         5.5080   11.8390   10.4160 C.3    93  THR93       0.1862
      3  C          4.4020   11.1020   11.1750 C.2    93  THR93       0.2287
      4  O          4.6080   10.7180   12.3310 O.2    93  THR93      -0.2866
      5  CB         6.0060   12.9930   11.3330 C.3    93  THR93       0.1770
      6  OG1        4.9640   13.9620   11.5260 O.3    93  THR93      -0.2211
      7  CG2        7.2460   13.6540   10.7480 C.3    93  THR93       0.0375
      8  N          8.3050   16.7350    6.3260 N.3   140  TRP140     -0.1227
      9  CA         8.8730   16.0090    7.4550 C.3   140  TRP140      0.1737
     10  C          8.6540   14.4970    7.3720 C.2   140  TRP140      0.2595
     11  O          7.5820   14.0300    6.9790 O.2   140  TRP140     -0.2718
     12  CB         8.2770   16.5180    8.7630 C.3   140  TRP140      0.0564
     13  CG         8.5630   17.9530    9.0920 C.ar  140  TRP140      0.0003
     14  CD1        9.3360   18.8400    8.3850 C.ar  140  TRP140      0.0946
     15  CD2        8.0720   18.6640   10.2260 C.ar  140  TRP140      0.0152
     16  NE1        9.3480   20.0630    9.0210 N.ar  140  TRP140     -0.2442
     17  CE2        8.5820   19.9780   10.1550 C.ar  140  TRP140      0.0810
     18  CE3        7.2480   18.3160   11.3020 C.ar  140  TRP140      0.0012
     19  CZ2        8.2910   20.9420   11.1160 C.ar  140  TRP140      0.0191
     20  CZ3        6.9610   19.2740   12.2560 C.ar  140  TRP140      0.0001
     21  CH2        7.4810   20.5710   12.1570 C.ar  140  TRP140      0.0015
     22  N          9.6630   13.7330    7.7700 N.am  141  ALA141     -0.1980
     23  CA         9.5590   12.2770    7.7460 C.3   141  ALA141      0.1597
     24  C         10.4980   11.6620    8.7720 C.2   141  ALA141      0.2287
     25  O         11.6250   12.1370    8.9450 O.2   141  ALA141     -0.2864
     26  CB         9.8590   11.7410    6.3430 C.3   141  ALA141      0.0319
     27  N         14.4120   14.2230    2.9130 N.3   159  SER159     -0.1217
     28  CA        14.1070   14.8090    4.2220 C.3   159  SER159      0.1889
     29  C         14.0220   13.8360    5.4110 C.2   159  SER159      0.2288
     30  O         13.9300   14.2770    6.5620 O.2   159  SER159     -0.2866
     31  CB        12.7920   15.5820    4.1300 C.3   159  SER159      0.2089
     32  OG        11.7820   14.7750    3.5490 O.3   159  SER159     -0.2183
     33  N         14.7110   11.9250    8.5450 N.3   161  GLN161     -0.1245
     34  CA        15.6450   12.2270    9.6310 C.3   161  GLN161      0.1566
     35  C         16.7080   11.1490    9.8050 C.2   161  GLN161      0.2260
     36  O         17.8930   11.4330   10.0240 O.2   161  GLN161     -0.2867
     37  CB        14.8930   12.3730   10.9500 C.3   161  GLN161      0.0367
     38  CG        13.9440   13.5370   11.0300 C.3   161  GLN161      0.0905
     39  CD        12.9710   13.3950   12.1900 C.2   161  GLN161      0.2608
     40  OE1       13.1390   12.5400   13.0840 O.2   161  GLN161     -0.2717
     41  NE2       11.9310   14.2110   12.1730 N.am  161  GLN161     -0.0878
     42  N         20.7190   12.6530    6.8450 N.3   177  VAL177     -0.1231
     43  CA        20.2550   13.8510    7.5390 C.3   177  VAL177      0.1692
     44  C         20.7910   13.8590    8.9750 C.2   177  VAL177      0.2592
     45  O         21.7350   14.6010    9.2620 O.2   177  VAL177     -0.2718
     46  CB        18.7170   13.9460    7.4930 C.3   177  VAL177      0.0266
     47  CG1       18.2100   15.1510    8.2850 C.3   177  VAL177      0.0020
     48  CG2       18.2720   14.0430    6.0340 C.3   177  VAL177      0.0020
     49  N         20.2350   13.0240    9.8590 N.am  178  TRP178     -0.1976
     50  CA        20.7630   12.9270   11.2300 C.3   178  TRP178      0.1640
     51  C         21.4380   11.5910   11.5490 C.2   178  TRP178      0.2290
     52  O         22.4250   11.5630   12.2880 O.2   178  TRP178     -0.2864
     53  CB        19.6620   13.1540   12.2730 C.3   178  TRP178      0.0576
     54  CG        19.0120   14.5100   12.2260 C.ar  178  TRP178      0.0006
     55  CD1       19.4770   15.6380   11.6110 C.ar  178  TRP178      0.0946
     56  CD2       17.7470   14.8520   12.7940 C.ar  178  TRP178      0.0152
     57  NE1       18.5800   16.6690   11.7760 N.ar  178  TRP178     -0.2442
     58  CE2       17.5110   16.2130   12.5050 C.ar  178  TRP178      0.0810
     59  CE3       16.8020   14.1440   13.5420 C.ar  178  TRP178      0.0012
     60  CZ2       16.3550   16.8730   12.9140 C.ar  178  TRP178      0.0191
     61  CZ3       15.6590   14.7980   13.9530 C.ar  178  TRP178      0.0001
     62  CH2       15.4430   16.1530   13.6380 C.ar  178  TRP178      0.0015
     63  N         11.2400   17.4540   22.4490 N.3   487  TYR487     -0.1241
     64  CA        10.2480   18.4180   22.0130 C.3   487  TYR487      0.1605
     65  C          9.3190   18.6260   23.2020 C.2   487  TYR487      0.2264
     66  O          8.1830   18.1510   23.2300 O.2   487  TYR487     -0.2867
     67  CB         9.5120   17.9200   20.7650 C.3   487  TYR487      0.0534
     68  CG         8.4500   18.8350   20.2020 C.ar  487  TYR487     -0.0201
     69  CD1        8.7820   20.0630   19.6280 C.ar  487  TYR487     -0.0009
     70  CD2        7.1140   18.4510   20.2040 C.ar  487  TYR487     -0.0009
     71  CE1        7.7990   20.8920   19.0880 C.ar  487  TYR487      0.0417
     72  CE2        6.1340   19.2630   19.6720 C.ar  487  TYR487      0.0417
     73  CZ         6.4750   20.4780   19.1190 C.ar  487  TYR487      0.1957
     74  OH         5.4790   21.2630   18.5940 O.3   487  TYR487     -0.2866
     75  N         14.1380   19.6660   19.0320 N.3   518  LEU518     -0.1231
     76  CA        13.3070   20.0230   17.8920 C.3   518  LEU518      0.1693
     77  C         12.7610   21.4440   18.0810 C.2   518  LEU518      0.2592
     78  O         11.8510   21.6870   18.8850 O.2   518  LEU518     -0.2718
     79  CB        12.1780   18.9940   17.7100 C.3   518  LEU518      0.0284
     80  CG        12.6560   17.5290   17.6620 C.3   518  LEU518      0.0019
     81  CD1       11.4870   16.5640   17.5490 C.3   518  LEU518      0.0001
     82  CD2       13.6660   17.3140   16.5250 C.3   518  LEU518      0.0001
     83  N         13.3470   22.3930   17.3600 N.am  519  GLY519     -0.1957
     84  CA        12.8610   23.7650   17.3790 C.3   519  GLY519      0.1869
     85  C         13.0250   24.4940   18.7060 C.2   519  GLY519      0.2309
     86  O         12.2520   25.3980   19.0250 O.2   519  GLY519     -0.2863
     87  N         17.5670   23.2960   15.5200 N.3   540  THR540     -0.1218
     88  CA        17.5140   21.8310   15.3940 C.3   540  THR540      0.1862
     89  C         18.8280   21.2720   14.8050 C.2   540  THR540      0.2287
     90  O         18.8380   20.4250   13.9000 O.2   540  THR540     -0.2866
     91  CB        16.2720   21.3960   14.5470 C.3   540  THR540      0.1770
     92  OG1       15.1110   22.1100   15.0020 O.3   540  THR540     -0.2211
     93  CG2       15.9890   19.9030   14.6920 C.3   540  THR540      0.0375
@<TRIPOS>BOND
     1    27    28    1
     2    32    31    1
     3    31    28    1
     4    28    29    1
     5    29    30    2
     6    48    46    1
     7     8     9    1
     8    26    23    1
     9    42    43    1
    10    11    10    2
    11    10     9    1
    12    10    22   am
    13     9    12    1
    14    46    43    1
    15    46    47    1
    16    43    44    1
    17    23    22    1
    18    23    24    1
    19    14    16   ar
    20    14    13   ar
    21    33    34    1
    22    12    13    1
    23    24    25    2
    24    44    45    2
    25    44    49   am
    26    16    17   ar
    27     1     2    1
    28    13    15   ar
    29    34    35    1
    30    34    37    1
    31    35    36    2
    32    49    50    1
    33    17    15   ar
    34    17    19   ar
    35    15    18   ar
    36     2     3    1
    37     2     5    1
    38     7     5    1
    39    37    38    1
    40    38    39    1
    41    19    21   ar
    42     3     4    2
    43    50    51    1
    44    50    53    1
    45    18    20   ar
    46     5     6    1
    47    51    52    2
    48    55    57   ar
    49    55    54   ar
    50    57    58   ar
    51    21    20   ar
    52    41    39   am
    53    39    40    2
    54    54    53    1
    55    54    56   ar
    56    58    56   ar
    57    58    60   ar
    58    56    59   ar
    59    60    62   ar
    60    59    61   ar
    61    62    61   ar
    62    90    89    2
    63    91    93    1
    64    91    92    1
    65    91    88    1
    66    89    88    1
    67    88    87    1
    68    82    80    1
    69    83    84    1
    70    83    77   am
    71    84    85    1
    72    81    80    1
    73    80    79    1
    74    79    76    1
    75    76    77    1
    76    76    75    1
    77    77    78    2
    78    74    73    1
    79    85    86    2
    80    71    73   ar
    81    71    69   ar
    82    73    72   ar
    83    69    68   ar
    84    72    70   ar
    85    68    70   ar
    86    68    67    1
    87    67    64    1
    88    64    63    1
    89    64    65    1
    90    65    66    2
