@<TRIPOS>MOLECULE
tmp/4peyA01.pdb
 102 99 0 0 0
SMALL
GASTEIGER

@<TRIPOS>ATOM
      1  N          5.1420   12.3110    9.0790 N.3    93  THR93      -0.1218
      2  CA         5.5080   11.8390   10.4160 C.3    93  THR93       0.1862
      3  C          4.4020   11.1020   11.1750 C.2    93  THR93       0.2287
      4  O          4.6080   10.7180   12.3310 O.2    93  THR93      -0.2866
      5  CB         6.0060   12.9930   11.3330 C.3    93  THR93       0.1770
      6  OG1        4.9640   13.9620   11.5260 O.3    93  THR93      -0.2211
      7  CG2        7.2460   13.6540   10.7480 C.3    93  THR93       0.0375
      8  N          8.3050   16.7350    6.3260 N.3   140  TRP140     -0.1241
      9  CA         8.8730   16.0090    7.4550 C.3   140  TRP140      0.1605
     10  C          8.6540   14.4970    7.3720 C.2   140  TRP140      0.2264
     11  O          7.5820   14.0300    6.9790 O.2   140  TRP140     -0.2867
     12  CB         8.2770   16.5180    8.7630 C.3   140  TRP140      0.0550
     13  CG         8.5630   17.9530    9.0920 C.ar  140  TRP140      0.0003
     14  CD1        9.3360   18.8400    8.3850 C.ar  140  TRP140      0.0946
     15  CD2        8.0720   18.6640   10.2260 C.ar  140  TRP140      0.0152
     16  NE1        9.3480   20.0630    9.0210 N.ar  140  TRP140     -0.2442
     17  CE2        8.5820   19.9780   10.1550 C.ar  140  TRP140      0.0810
     18  CE3        7.2480   18.3160   11.3020 C.ar  140  TRP140      0.0012
     19  CZ2        8.2910   20.9420   11.1160 C.ar  140  TRP140      0.0191
     20  CZ3        6.9610   19.2740   12.2560 C.ar  140  TRP140      0.0001
     21  CH2        7.4810   20.5710   12.1570 C.ar  140  TRP140      0.0015
     22  N         10.0380   10.5960    9.4330 N.3   142  SER142     -0.1217
     23  CA        10.7890    9.9800   10.5280 C.3   142  SER142      0.1889
     24  C         10.7260    8.4420   10.5180 C.2   142  SER142      0.2288
     25  O         10.2180    7.8210   11.4590 O.2   142  SER142     -0.2866
     26  CB        10.2750   10.5310   11.8660 C.3   142  SER142      0.2089
     27  OG        10.9520    9.9710   12.9820 O.3   142  SER142     -0.2183
     28  N         14.7110   11.9250    8.5450 N.3   161  GLN161     -0.1245
     29  CA        15.6450   12.2270    9.6310 C.3   161  GLN161      0.1566
     30  C         16.7080   11.1490    9.8050 C.2   161  GLN161      0.2260
     31  O         17.8930   11.4330   10.0240 O.2   161  GLN161     -0.2867
     32  CB        14.8930   12.3730   10.9500 C.3   161  GLN161      0.0367
     33  CG        13.9440   13.5370   11.0300 C.3   161  GLN161      0.0905
     34  CD        12.9710   13.3950   12.1900 C.2   161  GLN161      0.2608
     35  OE1       13.1390   12.5400   13.0840 O.2   161  GLN161     -0.2717
     36  NE2       11.9310   14.2110   12.1730 N.am  161  GLN161     -0.0878
     37  N         20.2350   13.0240    9.8590 N.3   178  TRP178     -0.1241
     38  CA        20.7630   12.9270   11.2300 C.3   178  TRP178      0.1605
     39  C         21.4380   11.5910   11.5490 C.2   178  TRP178      0.2264
     40  O         22.4250   11.5630   12.2880 O.2   178  TRP178     -0.2867
     41  CB        19.6620   13.1540   12.2730 C.3   178  TRP178      0.0550
     42  CG        19.0120   14.5100   12.2260 C.ar  178  TRP178      0.0003
     43  CD1       19.4770   15.6380   11.6110 C.ar  178  TRP178      0.0946
     44  CD2       17.7470   14.8520   12.7940 C.ar  178  TRP178      0.0152
     45  NE1       18.5800   16.6690   11.7760 N.ar  178  TRP178     -0.2442
     46  CE2       17.5110   16.2130   12.5050 C.ar  178  TRP178      0.0810
     47  CE3       16.8020   14.1440   13.5420 C.ar  178  TRP178      0.0012
     48  CZ2       16.3550   16.8730   12.9140 C.ar  178  TRP178      0.0191
     49  CZ3       15.6590   14.7980   13.9530 C.ar  178  TRP178      0.0001
     50  CH2       15.4430   16.1530   13.6380 C.ar  178  TRP178      0.0015
     51  N          1.8690   10.3010   21.6350 N.3   393  ASP393     -0.1239
     52  CA         2.0330   11.7420   21.8310 C.3   393  ASP393      0.1674
     53  C          0.8500   12.5340   21.2930 C.2   393  ASP393      0.2266
     54  O          0.7450   13.7340   21.5240 O.2   393  ASP393     -0.2867
     55  CB         3.2890   12.2220   21.1210 C.3   393  ASP393      0.1410
     56  CG         3.2210   11.9490   19.6390 C.2   393  ASP393      0.3668
     57  OD1        2.8530   12.8630   18.8630 O.co2 393  ASP393     -0.2456
     58  OD2        3.4730   10.7870   19.2600 O.co2 393  ASP393     -0.2456
     59  N          6.8090   14.5050   25.2630 N.3   449  TYR449     -0.1241
     60  CA         6.5870   15.9250   24.9640 C.3   449  TYR449      0.1605
     61  C          5.8670   16.6420   26.1020 C.2   449  TYR449      0.2264
     62  O          5.9160   17.8790   26.2030 O.2   449  TYR449     -0.2867
     63  CB         5.7520   16.1150   23.6940 C.3   449  TYR449      0.0534
     64  CG         6.3060   15.5140   22.4280 C.ar  449  TYR449     -0.0201
     65  CD1        7.6360   15.1140   22.3330 C.ar  449  TYR449     -0.0009
     66  CD2        5.4900   15.3570   21.3140 C.ar  449  TYR449     -0.0009
     67  CE1        8.1350   14.5650   21.1530 C.ar  449  TYR449      0.0417
     68  CE2        5.9750   14.8160   20.1390 C.ar  449  TYR449      0.0417
     69  CZ         7.2950   14.4220   20.0640 C.ar  449  TYR449      0.1957
     70  OH         7.7730   13.8830   18.8950 O.3   449  TYR449     -0.2866
     71  N         15.7410   12.6120   20.5890 N.3   485  TYR485     -0.1241
     72  CA        15.2740   13.9650   20.2500 C.3   485  TYR485      0.1605
     73  C         14.3150   14.4750   21.3230 C.2   485  TYR485      0.2264
     74  O         13.5670   13.6890   21.9050 O.2   485  TYR485     -0.2867
     75  CB        14.5770   13.9950   18.8800 C.3   485  TYR485      0.0534
     76  CG        15.2120   13.0970   17.8420 C.ar  485  TYR485     -0.0201
     77  CD1       16.5980   13.0200   17.7020 C.ar  485  TYR485     -0.0009
     78  CD2       14.4260   12.3180   17.0010 C.ar  485  TYR485     -0.0009
     79  CE1       17.1810   12.1770   16.7700 C.ar  485  TYR485      0.0417
     80  CE2       14.9990   11.4700   16.0740 C.ar  485  TYR485      0.0417
     81  CZ        16.3760   11.4130   15.9510 C.ar  485  TYR485      0.1957
     82  OH        16.9480   10.5700   15.0150 O.3   485  TYR485     -0.2866
     83  N         11.2400   17.4540   22.4490 N.3   487  TYR487     -0.1241
     84  CA        10.2480   18.4180   22.0130 C.3   487  TYR487      0.1605
     85  C          9.3190   18.6260   23.2020 C.2   487  TYR487      0.2264
     86  O          8.1830   18.1510   23.2300 O.2   487  TYR487     -0.2867
     87  CB         9.5120   17.9200   20.7650 C.3   487  TYR487      0.0534
     88  CG         8.4500   18.8350   20.2020 C.ar  487  TYR487     -0.0201
     89  CD1        8.7820   20.0630   19.6280 C.ar  487  TYR487     -0.0009
     90  CD2        7.1140   18.4510   20.2040 C.ar  487  TYR487     -0.0009
     91  CE1        7.7990   20.8920   19.0880 C.ar  487  TYR487      0.0417
     92  CE2        6.1340   19.2630   19.6720 C.ar  487  TYR487      0.0417
     93  CZ         6.4750   20.4780   19.1190 C.ar  487  TYR487      0.1957
     94  OH         5.4790   21.2630   18.5940 O.3   487  TYR487     -0.2866
     95  N         14.1380   19.6660   19.0320 N.3   518  LEU518     -0.1245
     96  CA        13.3070   20.0230   17.8920 C.3   518  LEU518      0.1561
     97  C         12.7610   21.4440   18.0810 C.2   518  LEU518      0.2260
     98  O         11.8510   21.6870   18.8850 O.2   518  LEU518     -0.2867
     99  CB        12.1780   18.9940   17.7100 C.3   518  LEU518      0.0270
    100  CG        12.6560   17.5290   17.6620 C.3   518  LEU518      0.0019
    101  CD1       11.4870   16.5640   17.5490 C.3   518  LEU518      0.0001
    102  CD2       13.6660   17.3140   16.5250 C.3   518  LEU518      0.0001
@<TRIPOS>BOND
     1     8     9    1
     2    11    10    2
     3    10     9    1
     4     9    12    1
     5    14    16   ar
     6    14    13   ar
     7    28    29    1
     8    12    13    1
     9    16    17   ar
    10     1     2    1
    11    13    15   ar
    12    22    23    1
    13    29    30    1
    14    29    32    1
    15    30    31    2
    16    37    38    1
    17    17    15   ar
    18    17    19   ar
    19    15    18   ar
    20     2     3    1
    21     2     5    1
    22    24    23    1
    23    24    25    2
    24    23    26    1
    25     7     5    1
    26    32    33    1
    27    33    34    1
    28    19    21   ar
    29     3     4    2
    30    38    39    1
    31    38    41    1
    32    18    20   ar
    33     5     6    1
    34    39    40    2
    35    43    45   ar
    36    43    42   ar
    37    45    46   ar
    38    26    27    1
    39    21    20   ar
    40    36    34   am
    41    34    35    2
    42    42    41    1
    43    42    44   ar
    44    46    44   ar
    45    46    48   ar
    46    44    47   ar
    47    48    50   ar
    48    47    49   ar
    49    50    49   ar
    50    82    81    1
    51    81    80   ar
    52    81    79   ar
    53    80    78   ar
    54   102   100    1
    55    79    77   ar
    56    78    76   ar
    57   101   100    1
    58   100    99    1
    59    77    76   ar
    60    99    96    1
    61    76    75    1
    62    96    97    1
    63    96    95    1
    64    97    98    2
    65    94    93    1
    66    57    56   ar
    67    75    72    1
    68    70    69    1
    69    91    93   ar
    70    91    89   ar
    71    93    92   ar
    72    58    56   ar
    73    89    88   ar
    74    56    55    1
    75    92    90   ar
    76    69    68   ar
    77    69    67   ar
    78    68    66   ar
    79    88    90   ar
    80    88    87    1
    81    72    71    1
    82    72    73    1
    83    87    84    1
    84    55    52    1
    85    67    65   ar
    86    53    54    2
    87    53    52    1
    88    66    64   ar
    89    73    74    2
    90    51    52    1
    91    84    83    1
    92    84    85    1
    93    65    64   ar
    94    64    63    1
    95    85    86    2
    96    63    60    1
    97    60    59    1
    98    60    61    1
    99    61    62    2
