@<TRIPOS>MOLECULE
tmp/4pf1A00.pdb
 93 92 0 0 0
SMALL
GASTEIGER

@<TRIPOS>ATOM
      1  N         51.8820   44.9720   92.0780 N.3   340  TRP340     -0.1241
      2  CA        50.5420   44.3660   92.1020 C.3   340  TRP340      0.1605
      3  C         49.5550   45.2880   92.8160 C.2   340  TRP340      0.2264
      4  O         48.4280   45.4440   92.3530 O.2   340  TRP340     -0.2867
      5  CB        50.5530   42.9770   92.7800 C.3   340  TRP340      0.0550
      6  CG        49.1890   42.3490   92.8740 C.ar  340  TRP340      0.0003
      7  CD1       48.5690   41.5940   91.9240 C.ar  340  TRP340      0.0946
      8  CD2       48.2460   42.4950   93.9500 C.ar  340  TRP340      0.0152
      9  NE1       47.2980   41.2600   92.3380 N.ar  340  TRP340     -0.2442
     10  CE2       47.0730   41.8030   93.5770 C.ar  340  TRP340      0.0810
     11  CE3       48.2780   43.1490   95.1970 C.ar  340  TRP340      0.0012
     12  CZ2       45.9480   41.7310   94.4100 C.ar  340  TRP340      0.0191
     13  CZ3       47.1570   43.0920   96.0120 C.ar  340  TRP340      0.0001
     14  CH2       46.0130   42.3840   95.6220 C.ar  340  TRP340      0.0015
     15  N         46.5100   47.0350   90.6460 N.3   344  ASN344     -0.1225
     16  CA        45.2140   46.3990   90.9020 C.3   344  ASN344      0.1785
     17  C         44.3680   47.0470   92.0050 C.2   344  ASN344      0.2597
     18  O         43.1690   46.7760   92.0590 O.2   344  ASN344     -0.2718
     19  CB        45.4060   44.9180   91.2190 C.3   344  ASN344      0.1169
     20  CG        45.9220   44.1310   90.0480 C.2   344  ASN344      0.2627
     21  OD1       45.1660   43.7320   89.1600 O.2   344  ASN344     -0.2716
     22  ND2       47.2280   43.9210   90.0020 N.am  344  ASN344     -0.0877
     23  N         44.9710   47.8520   92.9000 N.am  345  VAL345     -0.1980
     24  CA        44.2250   48.4560   94.0110 C.3   345  VAL345      0.1595
     25  C         44.2940   49.9960   93.9600 C.2   345  VAL345      0.2287
     26  O         43.2450   50.6380   93.9520 O.2   345  VAL345     -0.2864
     27  CB        44.6920   47.9160   95.4000 C.3   345  VAL345      0.0276
     28  CG1       43.8500   48.5010   96.5350 C.3   345  VAL345      0.0022
     29  CG2       44.6690   46.3880   95.4440 C.3   345  VAL345      0.0022
     30  N         35.8560   49.7750   92.3730 N.3   360  LEU360     -0.1231
     31  CA        36.3930   48.4700   92.7440 C.3   360  LEU360      0.1693
     32  C         36.0690   48.1880   94.2070 C.2   360  LEU360      0.2592
     33  O         36.1900   49.0830   95.0470 O.2   360  LEU360     -0.2718
     34  CB        37.9190   48.4210   92.4950 C.3   360  LEU360      0.0284
     35  CG        38.6540   47.1260   92.8940 C.3   360  LEU360      0.0019
     36  CD1       38.3450   45.9860   91.9320 C.3   360  LEU360      0.0001
     37  CD2       40.1350   47.3520   92.9610 C.3   360  LEU360      0.0001
     38  N         35.6390   46.9500   94.5090 N.am  361  ASP361     -0.1960
     39  CA        35.3100   46.5370   95.8700 C.3   361  ASP361      0.1840
     40  C         36.6000   46.2910   96.6690 C.2   361  ASP361      0.2622
     41  O         37.0510   45.1490   96.7970 O.2   361  ASP361     -0.2715
     42  CB        34.3940   45.2880   95.8610 C.3   361  ASP361      0.1450
     43  CG        33.9130   44.8180   97.2310 C.2   361  ASP361      0.3671
     44  OD1       33.7560   45.6740   98.1370 O.co2 361  ASP361     -0.2456
     45  OD2       33.6530   43.6040   97.3840 O.co2 361  ASP361     -0.2456
     46  N         37.2170   47.3870   97.1610 N.am  362  ILE362     -0.1964
     47  CA        38.4280   47.3370   97.9800 C.3   362  ILE362      0.1712
     48  C         37.9970   47.0120   99.4100 C.2   362  ILE362      0.2458
     49  O         37.0710   47.6520   99.9180 O.2   362  ILE362     -0.2730
     50  CB        39.2460   48.6740   97.8950 C.3   362  ILE362      0.0289
     51  CG1       39.6210   49.0190   96.4330 C.3   362  ILE362      0.0022
     52  CG2       40.5060   48.6340   98.7940 C.3   362  ILE362      0.0023
     53  CD1       39.8940   50.4990   96.1840 C.3   362  ILE362      0.0001
     54  N         38.6140   46.0080  100.0790 N.am  363  PRO363     -0.2727
     55  CA        38.1990   45.6980  101.4550 C.3   363  PRO363      0.1402
     56  C         38.6070   46.7940  102.4420 C.2   363  PRO363      0.2269
     57  O         39.4080   47.6750  102.1010 O.2   363  PRO363     -0.2865
     58  CB        38.9310   44.3860  101.7520 C.3   363  PRO363      0.0296
     59  CG        40.1530   44.4400  100.9040 C.3   363  PRO363      0.0237
     60  CD        39.7200   45.1300   99.6350 C.3   363  PRO363      0.0939
     61  N         43.3950   45.2490  103.6670 N.3   366  LEU366     -0.1245
     62  CA        44.0560   44.3820  102.7050 C.3   366  LEU366      0.1561
     63  C         45.4160   44.0410  103.2950 C.2   366  LEU366      0.2260
     64  O         46.2790   44.9110  103.3970 O.2   366  LEU366     -0.2867
     65  CB        44.1590   45.0810  101.3310 C.3   366  LEU366      0.0270
     66  CG        44.6890   44.2510  100.1520 C.3   366  LEU366      0.0019
     67  CD1       43.8140   43.0230   99.8830 C.3   366  LEU366      0.0001
     68  CD2       44.7770   45.0980   98.9030 C.3   366  LEU366      0.0001
     69  N         47.4670   37.4850  100.0160 N.3   375  TRP375     -0.1241
     70  CA        46.7260   38.7060  100.3230 C.3   375  TRP375      0.1605
     71  C         45.3600   38.3210  100.8660 C.2   375  TRP375      0.2264
     72  O         44.7130   37.4240  100.3190 O.2   375  TRP375     -0.2867
     73  CB        46.5690   39.5870   99.0700 C.3   375  TRP375      0.0550
     74  CG        47.7920   40.3710   98.6910 C.ar  375  TRP375      0.0003
     75  CD1       48.6420   40.1130   97.6570 C.ar  375  TRP375      0.0946
     76  CD2       48.2330   41.6050   99.2760 C.ar  375  TRP375      0.0152
     77  NE1       49.6120   41.0880   97.5850 N.ar  375  TRP375     -0.2442
     78  CE2       49.3870   42.0150   98.5700 C.ar  375  TRP375      0.0810
     79  CE3       47.7960   42.3810  100.3650 C.ar  375  TRP375      0.0012
     80  CZ2       50.0990   43.1710   98.9060 C.ar  375  TRP375      0.0191
     81  CZ3       48.4960   43.5330  100.6900 C.ar  375  TRP375      0.0001
     82  CH2       49.6330   43.9170   99.9670 C.ar  375  TRP375      0.0015
     83  N         41.4280   39.6460  102.4780 N.3   377  ARG377     -0.1245
     84  CA        40.3960   40.6700  102.6110 C.3   377  ARG377      0.1563
     85  C         39.8640   40.6130  104.0390 C.2   377  ARG377      0.2260
     86  O         39.3080   39.5870  104.4410 O.2   377  ARG377     -0.2867
     87  CB        39.2570   40.4330  101.6020 C.3   377  ARG377      0.0307
     88  CG        39.6500   40.6130  100.1370 C.3   377  ARG377      0.0489
     89  CD        38.4800   40.3040   99.2110 C.3   377  ARG377      0.2205
     90  NE        37.3410   41.1960   99.4530 N.pl3 377  ARG377     -0.0865
     91  CZ        37.1180   42.3240   98.7840 C.cat 377  ARG377      0.5346
     92  NH1       37.9350   42.6970   97.8060 N.pl3 377  ARG377      0.1354
     93  NH2       36.0710   43.0820   99.0810 N.pl3 377  ARG377      0.1354
@<TRIPOS>BOND
     1    21    20    2
     2    22    20   am
     3    20    19    1
     4    15    16    1
     5    16    19    1
     6    16    17    1
     7     7     9   ar
     8     7     6   ar
     9    36    35    1
    10    17    18    2
    11    17    23   am
    12     1     2    1
    13     2     5    1
    14     2     3    1
    15     9    10   ar
    16     4     3    2
    17    30    31    1
    18    34    31    1
    19    34    35    1
    20    31    32    1
    21     5     6    1
    22     6     8   ar
    23    35    37    1
    24    23    24    1
    25    10     8   ar
    26    10    12   ar
    27     8    11   ar
    28    26    25    2
    29    25    24    1
    30    24    27    1
    31    32    38   am
    32    32    33    2
    33    12    14   ar
    34    38    39    1
    35    11    13   ar
    36    27    29    1
    37    27    28    1
    38    14    13   ar
    39    42    39    1
    40    42    43    1
    41    39    40    1
    42    53    51    1
    43    51    50    1
    44    40    41    2
    45    40    46   am
    46    46    47    1
    47    43    45   ar
    48    43    44   ar
    49    77    75   ar
    50    77    78   ar
    51    75    74   ar
    52    92    91    1
    53    50    47    1
    54    50    52    1
    55    47    48    1
    56    78    80   ar
    57    78    76   ar
    58    74    73    1
    59    74    76   ar
    60    91    93    1
    61    91    90    2
    62    68    66    1
    63    80    82   ar
    64    73    70    1
    65    89    90    1
    66    89    88    1
    67    76    79   ar
    68    48    49    2
    69    48    54   am
    70    60    54    1
    71    60    59    1
    72    67    66    1
    73    82    81   ar
    74    69    70    1
    75    54    55    1
    76    88    87    1
    77    66    65    1
    78    72    71    2
    79    70    71    1
    80    79    81   ar
    81    59    58    1
    82    65    62    1
    83    55    58    1
    84    55    56    1
    85    87    84    1
    86    57    56    2
    87    83    84    1
    88    84    85    1
    89    62    63    1
    90    62    61    1
    91    63    64    2
    92    85    86    2
