@<TRIPOS>MOLECULE
tmp/4pf3A00.pdb
 208 194 0 0 0
SMALL
GASTEIGER

@<TRIPOS>ATOM
      1  N         -5.7690   32.8800   47.3490 N.3    32  LEU32      -0.1245
      2  CA        -4.9000   31.7880   46.9420 C.3    32  LEU32       0.1561
      3  C         -5.7050   30.5580   46.5660 C.2    32  LEU32       0.2260
      4  O         -5.3860   29.8870   45.5870 O.2    32  LEU32      -0.2867
      5  CB        -3.8670   31.4900   48.0230 C.3    32  LEU32       0.0270
      6  CG        -2.8480   32.6210   48.2660 C.3    32  LEU32       0.0019
      7  CD1       -1.9110   32.2380   49.3910 C.3    32  LEU32       0.0001
      8  CD2       -2.0370   32.9390   47.0310 C.3    32  LEU32       0.0001
      9  N         -7.0010   31.1550   43.0860 N.3    35  LEU35      -0.1231
     10  CA        -5.9340   30.9860   42.1130 C.3    35  LEU35       0.1693
     11  C         -5.6210   29.5190   41.9000 C.2    35  LEU35       0.2592
     12  O         -5.3610   29.1070   40.7640 O.2    35  LEU35      -0.2718
     13  CB        -4.6720   31.7500   42.5470 C.3    35  LEU35       0.0284
     14  CG        -4.7310   33.2790   42.4850 C.3    35  LEU35       0.0019
     15  CD1       -3.4630   33.8570   43.0780 C.3    35  LEU35       0.0001
     16  CD2       -4.9330   33.7660   41.0600 C.3    35  LEU35       0.0001
     17  N         -5.6250   28.7270   42.9780 N.am   36  ASN36      -0.1974
     18  CA        -5.2900   27.3260   42.8400 C.3    36  ASN36       0.1688
     19  C         -6.3510   26.5860   42.0360 C.2    36  ASN36       0.2292
     20  O         -6.0410   25.7150   41.2190 O.2    36  ASN36      -0.2864
     21  CB        -5.0750   26.6920   44.2130 C.3    36  ASN36       0.1181
     22  CG        -3.8370   27.2260   44.9150 C.2    36  ASN36       0.2629
     23  OD1       -2.9460   27.7690   44.2650 O.2    36  ASN36      -0.2716
     24  ND2       -3.7920   27.0790   46.2360 N.am   36  ASN36      -0.0877
     25  N         -8.2800   28.0060   39.7360 N.3    38  LEU38      -0.1231
     26  CA        -8.0800   28.4660   38.3670 C.3    38  LEU38       0.1693
     27  C         -6.9370   27.6960   37.6940 C.2    38  LEU38       0.2591
     28  O         -7.0740   27.2470   36.5400 O.2    38  LEU38      -0.2718
     29  CB        -7.7890   29.9510   38.3740 C.3    38  LEU38       0.0284
     30  CG        -7.4480   30.5590   37.0110 C.3    38  LEU38       0.0019
     31  CD1       -8.5480   30.4210   35.9650 C.3    38  LEU38       0.0001
     32  CD2       -7.0340   32.0010   37.1750 C.3    38  LEU38       0.0001
     33  N         -5.8260   27.5200   38.4080 N.am   39  ALA39      -0.1980
     34  CA        -4.7200   26.7560   37.8720 C.3    39  ALA39       0.1597
     35  C         -5.1310   25.3110   37.6090 C.2    39  ALA39       0.2287
     36  O         -4.7020   24.7140   36.6130 O.2    39  ALA39      -0.2864
     37  CB        -3.5450   26.7980   38.8270 C.3    39  ALA39       0.0319
     38  N         -7.0770   25.3140   34.3590 N.3    42  GLN42      -0.1245
     39  CA        -6.1760   25.5680   33.2590 C.3    42  GLN42       0.1566
     40  C         -5.2550   24.3780   32.9950 C.2    42  GLN42       0.2260
     41  O         -4.9260   24.1160   31.8350 O.2    42  GLN42      -0.2867
     42  CB        -5.4050   26.8570   33.5020 C.3    42  GLN42       0.0367
     43  CG        -6.3170   28.0650   33.4220 C.3    42  GLN42       0.0905
     44  CD        -5.6270   29.3820   33.5630 C.2    42  GLN42       0.2608
     45  OE1       -4.6480   29.5180   34.2780 O.2    42  GLN42      -0.2717
     46  NE2       -6.1330   30.3770   32.8480 N.am   42  GLN42      -0.0878
     47  N          4.6080   22.9820   34.3860 N.3    72  TRP72      -0.1227
     48  CA         3.2530   23.4820   34.5170 C.3    72  TRP72       0.1737
     49  C          3.1980   24.9390   34.9500 C.2    72  TRP72       0.2595
     50  O          2.4260   25.7250   34.4000 O.2    72  TRP72      -0.2718
     51  CB         2.4260   22.5790   35.4520 C.3    72  TRP72       0.0564
     52  CG         2.8230   22.6120   36.8980 C.ar   72  TRP72       0.0003
     53  CD1        3.8910   22.0090   37.4800 C.ar   72  TRP72       0.0946
     54  CD2        2.1420   23.3120   37.9320 C.ar   72  TRP72       0.0152
     55  NE1        3.9220   22.3010   38.8230 N.ar   72  TRP72      -0.2442
     56  CE2        2.8490   23.1000   39.1320 C.ar   72  TRP72       0.0810
     57  CE3        0.9950   24.1000   37.9500 C.ar   72  TRP72       0.0012
     58  CZ2        2.4240   23.6430   40.3440 C.ar   72  TRP72       0.0191
     59  CZ3        0.5980   24.6440   39.1380 C.ar   72  TRP72       0.0001
     60  CH2        1.3020   24.4200   40.3120 C.ar   72  TRP72       0.0015
     61  N          3.9710   25.3290   35.9710 N.am   73  MET73      -0.1979
     62  CA         3.8930   26.6770   36.4850 C.3    73  MET73       0.1605
     63  C          4.4190   27.6650   35.4390 C.2    73  MET73       0.2287
     64  O          3.9270   28.7780   35.3300 O.2    73  MET73      -0.2864
     65  CB         4.6660   26.7700   37.7970 C.3    73  MET73       0.0413
     66  CG         4.6630   28.1580   38.4310 C.3    73  MET73       0.0598
     67  SD         3.0650   28.7190   39.0670 S.3    73  MET73      -0.1393
     68  CE         2.9980   27.7290   40.5880 C.3    73  MET73       0.0692
     69  N          1.5610   28.0980   32.7910 N.3    76  LEU76      -0.1231
     70  CA         0.4680   28.9110   33.2890 C.3    76  LEU76       0.1693
     71  C          0.8870   30.3620   33.4540 C.2    76  LEU76       0.2592
     72  O          0.1000   31.2760   33.1980 O.2    76  LEU76      -0.2718
     73  CB        -0.0650   28.3750   34.6210 C.3    76  LEU76       0.0284
     74  CG        -0.6530   26.9650   34.6260 C.3    76  LEU76       0.0019
     75  CD1       -1.0440   26.6290   36.0630 C.3    76  LEU76       0.0001
     76  CD2       -1.8250   26.8730   33.6500 C.3    76  LEU76       0.0001
     77  N          2.1170   30.5860   33.9120 N.am   77  SER77      -0.1952
     78  CA         2.6010   31.9430   34.1360 C.3    77  SER77       0.1924
     79  C          2.8020   32.6890   32.8120 C.2    77  SER77       0.2314
     80  O          2.5130   33.8770   32.7100 O.2    77  SER77      -0.2863
     81  CB         3.8600   31.9110   34.9590 C.3    77  SER77       0.2116
     82  OG         3.6210   31.3920   36.2540 O.3    77  SER77      -0.2180
     83  N         -0.5240   33.7210   31.6340 N.3    80  LEU80      -0.1245
     84  CA        -0.9630   34.8490   32.4490 C.3    80  LEU80       0.1561
     85  C         -0.3600   36.1500   31.9280 C.2    80  LEU80       0.2260
     86  O         -1.0570   37.1680   31.7940 O.2    80  LEU80      -0.2867
     87  CB        -0.5980   34.6000   33.9040 C.3    80  LEU80       0.0270
     88  CG        -0.7460   35.7650   34.8520 C.3    80  LEU80       0.0019
     89  CD1       -2.1970   36.2640   34.9280 C.3    80  LEU80       0.0001
     90  CD2       -0.2490   35.3530   36.2310 C.3    80  LEU80       0.0001
     91  N         -2.1480   37.0970   28.6570 N.3    83  ARG83      -0.1245
     92  CA        -3.4840   37.6730   28.8590 C.3    83  ARG83       0.1563
     93  C         -3.3650   39.0910   29.4010 C.2    83  ARG83       0.2260
     94  O         -4.1550   39.9780   29.0450 O.2    83  ARG83      -0.2867
     95  CB        -4.3080   36.8520   29.8590 C.3    83  ARG83       0.0307
     96  CG        -4.7890   35.5120   29.3420 C.3    83  ARG83       0.0489
     97  CD        -5.7820   34.8700   30.3050 C.3    83  ARG83       0.2205
     98  NE        -5.2870   34.6290   31.6670 N.pl3  83  ARG83      -0.0865
     99  CZ        -4.5490   33.5880   32.0240 C.cat  83  ARG83       0.5346
    100  NH1       -4.1530   32.6720   31.1130 N.pl3  83  ARG83       0.1354
    101  NH2       -4.2460   33.4030   33.3040 N.pl3  83  ARG83       0.1354
    102  N         -2.6120   42.3380   36.2830 N.3    93  LEU93      -0.1245
    103  CA        -2.4630   40.8920   36.0930 C.3    93  LEU93       0.1561
    104  C         -3.8330   40.3060   35.8090 C.2    93  LEU93       0.2260
    105  O         -4.7090   40.2730   36.6750 O.2    93  LEU93      -0.2867
    106  CB        -1.7960   40.2370   37.2980 C.3    93  LEU93       0.0270
    107  CG        -0.3190   40.5630   37.4950 C.3    93  LEU93       0.0019
    108  CD1        0.1780   39.9890   38.7950 C.3    93  LEU93       0.0001
    109  CD2        0.5110   39.9970   36.3460 C.3    93  LEU93       0.0001
    110  N         -5.6800   37.4590   35.5300 N.3    95  PHE95      -0.1241
    111  CA        -5.7980   36.0220   35.7960 C.3    95  PHE95       0.1605
    112  C         -6.9450   35.4100   35.0250 C.2    95  PHE95       0.2264
    113  O         -6.8120   34.3150   34.4700 O.2    95  PHE95      -0.2867
    114  CB        -5.9420   35.7480   37.2940 C.3    95  PHE95       0.0534
    115  CG        -4.6900   36.0530   38.0730 C.ar   95  PHE95      -0.0203
    116  CD1       -3.6720   35.0890   38.1760 C.ar   95  PHE95      -0.0042
    117  CD2       -4.4900   37.2770   38.6830 C.ar   95  PHE95      -0.0042
    118  CE1       -2.4980   35.3580   38.8740 C.ar   95  PHE95      -0.0003
    119  CE2       -3.3240   37.5420   39.3840 C.ar   95  PHE95      -0.0003
    120  CZ        -2.3330   36.5840   39.4920 C.ar   95  PHE95      -0.0000
    121  N          1.2770   37.5120   48.2370 N.3   111  MET111     -0.1245
    122  CA         2.2940   37.2160   47.2320 C.3   111  MET111      0.1570
    123  C          2.7010   38.4440   46.4270 C.2   111  MET111      0.2261
    124  O          2.9770   38.3370   45.2330 O.2   111  MET111     -0.2867
    125  CB         1.7670   36.1580   46.2450 C.3   111  MET111      0.0387
    126  CG         1.4350   34.8450   46.8670 C.3   111  MET111      0.0595
    127  SD         1.4520   33.4950   45.6920 S.3   111  MET111     -0.1393
    128  CE         0.2790   34.0270   44.5730 C.3   111  MET111      0.0692
    129  N          6.0740   38.1700   44.3910 N.3   114  LEU114     -0.1231
    130  CA         5.9480   37.1970   43.3030 C.3   114  LEU114      0.1693
    131  C          5.1010   37.7650   42.1620 C.2   114  LEU114      0.2592
    132  O          5.4580   37.6480   40.9750 O.2   114  LEU114     -0.2718
    133  CB         5.3190   35.8890   43.8200 C.3   114  LEU114      0.0284
    134  CG         6.2310   35.0700   44.7350 C.3   114  LEU114      0.0019
    135  CD1        5.4610   33.9330   45.4000 C.3   114  LEU114      0.0001
    136  CD2        7.4230   34.5210   43.9740 C.3   114  LEU114      0.0001
    137  N          3.9850   38.4000   42.5130 N.am  115  CYS115     -0.1970
    138  CA         3.1560   39.0380   41.5000 C.3   115  CYS115      0.1712
    139  C          3.9300   40.1340   40.7700 C.2   115  CYS115      0.2296
    140  O          3.7370   40.3410   39.5750 O.2   115  CYS115     -0.2864
    141  CB         1.8820   39.6390   42.1130 C.3   115  CYS115      0.0983
    142  SG         0.6750   38.4230   42.6530 S.3   115  CYS115     -0.0798
    143  N          6.0170   38.5760   38.1450 N.3   118  MET118     -0.1245
    144  CA         5.1880   38.2300   37.0020 C.3   118  MET118      0.1570
    145  C          4.8450   39.4580   36.1600 C.2   118  MET118      0.2261
    146  O          4.8930   39.4260   34.9170 O.2   118  MET118     -0.2867
    147  CB         3.9160   37.5430   37.5060 C.3   118  MET118      0.0387
    148  CG         2.9660   37.1020   36.4080 C.3   118  MET118      0.0595
    149  SD         3.4040   35.5530   35.5790 S.3   118  MET118     -0.1393
    150  CE         4.5650   36.0450   34.3260 C.3   118  MET118      0.0692
    151  N          7.9950   31.0530   42.3270 N.3   204  LEU204     -0.1245
    152  CA         6.5640   30.7340   42.4390 C.3   204  LEU204      0.1561
    153  C          6.3670   29.3340   42.9960 C.2   204  LEU204      0.2260
    154  O          5.5430   29.1310   43.8850 O.2   204  LEU204     -0.2867
    155  CB         5.8850   30.8450   41.0630 C.3   204  LEU204      0.0270
    156  CG         5.7560   32.2800   40.4930 C.3   204  LEU204      0.0019
    157  CD1        5.4210   32.2190   39.0080 C.3   204  LEU204      0.0001
    158  CD2        4.6820   33.0780   41.2490 C.3   204  LEU204      0.0001
    159  N          6.9890   28.9050   46.8020 N.3   207  PHE207     -0.1227
    160  CA         5.9080   29.3440   47.6650 C.3   207  PHE207      0.1736
    161  C          4.7030   28.4000   47.5570 C.2   207  PHE207      0.2595
    162  O          4.0530   28.0920   48.5690 O.2   207  PHE207     -0.2718
    163  CB         5.5290   30.7960   47.3720 C.3   207  PHE207      0.0547
    164  CG         4.6820   31.3980   48.4440 C.ar  207  PHE207     -0.0202
    165  CD1        5.1630   31.4850   49.7700 C.ar  207  PHE207     -0.0042
    166  CD2        3.4120   31.8400   48.1750 C.ar  207  PHE207     -0.0042
    167  CE1        4.3980   32.0460   50.7790 C.ar  207  PHE207     -0.0003
    168  CE2        2.6330   32.3930   49.1850 C.ar  207  PHE207     -0.0003
    169  CZ         3.1260   32.4900   50.4790 C.ar  207  PHE207     -0.0000
    170  N          4.4250   27.9060   46.3550 N.am  208  CYS208     -0.1970
    171  CA         3.3080   27.0010   46.1570 C.3   208  CYS208      0.1712
    172  C          3.5600   25.6870   46.9110 C.2   208  CYS208      0.2296
    173  O          2.6520   25.1230   47.5060 O.2   208  CYS208     -0.2864
    174  CB         3.1580   26.7570   44.6660 C.3   208  CYS208      0.0983
    175  SG         1.6140   25.9370   44.2130 S.3   208  CYS208     -0.0798
    176  N          2.8060   26.3160   50.6790 N.3   211  THR211     -0.1218
    177  CA         1.4070   26.3480   51.0780 C.3   211  THR211      0.1862
    178  C          0.7510   24.9970   50.8300 C.2   211  THR211      0.2287
    179  O         -0.1630   24.6390   51.5720 O.2   211  THR211     -0.2866
    180  CB         0.6010   27.4550   50.3930 C.3   211  THR211      0.1770
    181  OG1        0.5180   27.1730   49.0130 O.3   211  THR211     -0.2211
    182  CG2        1.2730   28.8220   50.5890 C.3   211  THR211      0.0375
    183  N         -5.3320   26.9520   52.9620 N.3   220  VAL220     -0.1245
    184  CA        -5.2060   27.2340   51.5360 C.3   220  VAL220      0.1561
    185  C         -5.6040   25.9720   50.7920 C.2   220  VAL220      0.2260
    186  O         -4.9660   24.9310   50.9610 O.2   220  VAL220     -0.2867
    187  CB        -3.7980   27.7130   51.1510 C.3   220  VAL220      0.0252
    188  CG1       -3.6850   27.8390   49.6270 C.3   220  VAL220      0.0019
    189  CG2       -3.4760   29.0480   51.8400 C.3   220  VAL220      0.0019
    190  N         -6.4500   23.4090   47.5700 N.3   222  PHE222     -0.1241
    191  CA        -5.8910   23.0100   46.2740 C.3   222  PHE222      0.1605
    192  C         -6.8400   22.0150   45.6270 C.2   222  PHE222      0.2264
    193  O         -7.3340   21.1060   46.2960 O.2   222  PHE222     -0.2867
    194  CB        -4.5390   22.3030   46.4350 C.3   222  PHE222      0.0534
    195  CG        -3.4030   23.2180   46.7610 C.ar  222  PHE222     -0.0203
    196  CD1       -3.2010   23.6800   48.0620 C.ar  222  PHE222     -0.0042
    197  CD2       -2.5310   23.6190   45.7530 C.ar  222  PHE222     -0.0042
    198  CE1       -2.1300   24.5160   48.3500 C.ar  222  PHE222     -0.0003
    199  CE2       -1.4590   24.4510   46.0390 C.ar  222  PHE222     -0.0003
    200  CZ        -1.2710   24.9060   47.3340 C.ar  222  PHE222     -0.0000
    201  N         -4.0590   19.8460   40.9410 N.3   226  LEU226     -0.1245
    202  CA        -2.8040   20.2960   41.5280 C.3   226  LEU226      0.1561
    203  C         -2.2650   19.3300   42.5690 C.2   226  LEU226      0.2260
    204  O         -1.0620   19.1640   42.6830 O.2   226  LEU226     -0.2867
    205  CB        -2.9000   21.7040   42.0950 C.3   226  LEU226      0.0270
    206  CG        -3.1020   22.8720   41.1220 C.3   226  LEU226      0.0019
    207  CD1       -2.7190   24.1820   41.7750 C.3   226  LEU226      0.0001
    208  CD2       -2.5740   22.7140   39.7260 C.3   226  LEU226      0.0001
@<TRIPOS>BOND
     1    91    92    1
     2    92    93    1
     3    92    95    1
     4    94    93    2
     5    96    95    1
     6    96    97    1
     7    97    98    1
     8   100    99    1
     9    83    84    1
    10    98    99    2
    11    86    85    2
    12    41    40    2
    13    85    84    1
    14    99   101    1
    15    84    87    1
    16    80    79    2
    17    69    70    1
    18    79    78    1
    19    46    44   am
    20    40    39    1
    21    72    71    2
    22    39    42    1
    23    39    38    1
    24    70    71    1
    25    70    73    1
    26    43    42    1
    27    43    44    1
    28    71    77   am
    29    44    45    2
    30    76    74    1
    31    87    88    1
    32    77    78    1
    33    78    81    1
    34   150   149    1
    35    47    48    1
    36    50    49    2
    37   113   112    2
    38    48    49    1
    39    48    51    1
    40    73    74    1
    41    74    75    1
    42    88    89    1
    43    88    90    1
    44   146   145    2
    45    49    61   am
    46    81    82    1
    47   112   111    1
    48    64    63    2
    49    63    62    1
    50    51    52    1
    51   110   111    1
    52   149   148    1
    53   111   114    1
    54   104   103    1
    55   104   105    2
    56    31    30    1
    57    61    62    1
    58   103   102    1
    59   103   106    1
    60   145   144    1
    61   109   107    1
    62   148   147    1
    63    62    65    1
    64    28    27    2
    65    36    35    2
    66    52    53   ar
    67    52    54   ar
    68   144   147    1
    69   144   143    1
    70    30    32    1
    71    30    29    1
    72   114   115    1
    73   106   107    1
    74    53    55   ar
    75   107   108    1
    76    35    34    1
    77    27    26    1
    78    27    33   am
    79    65    66    1
    80    34    33    1
    81    34    37    1
    82    54    57   ar
    83    54    56   ar
    84    57    59   ar
    85   115   116   ar
    86   115   117   ar
    87   116   118   ar
    88    26    29    1
    89    26    25    1
    90    66    67    1
    91   117   119   ar
    92    55    56   ar
    93   118   120   ar
    94   157   156    1
    95    67    68    1
    96    56    58   ar
    97    59    60   ar
    98   119   120   ar
    99   140   139    2
   100   208   206    1
   101    60    58   ar
   102   156   155    1
   103   156   158    1
   104    12    11    2
   105   139   138    1
   106   201   202    1
   107   132   131    2
   108    16    14    1
   109   155   152    1
   110   206   207    1
   111   206   205    1
   112    20    19    2
   113   138   141    1
   114   138   137    1
   115   202   205    1
   116   202   203    1
   117    11    10    1
   118    11    17   am
   119    19    18    1
   120    10    13    1
   121    10     9    1
   122   141   142    1
   123   131   137   am
   124   131   130    1
   125   151   152    1
   126   152   153    1
   127    14    13    1
   128    14    15    1
   129   203   204    2
   130    18    17    1
   131    18    21    1
   132   153   154    2
   133   130   133    1
   134   130   129    1
   135   133   134    1
   136   136   134    1
   137   175   174    1
   138    21    22    1
   139    23    22    2
   140   128   127    1
   141   174   171    1
   142   134   135    1
   143    22    24   am
   144   124   123    2
   145     4     3    2
   146   192   191    1
   147   192   193    2
   148   127   126    1
   149   197   199   ar
   150   197   195   ar
   151   199   200   ar
   152   171   170    1
   153   171   172    1
   154   125   126    1
   155   125   122    1
   156   191   194    1
   157   191   190    1
   158   170   161   am
   159   123   122    1
   160   194   195    1
   161     3     2    1
   162   195   196   ar
   163   159   160    1
   164   172   173    2
   165     2     1    1
   166     2     5    1
   167     8     6    1
   168   122   121    1
   169   200   198   ar
   170   163   160    1
   171   163   164    1
   172   161   160    1
   173   161   162    2
   174     5     6    1
   175   196   198   ar
   176   166   164   ar
   177   166   168   ar
   178     6     7    1
   179   164   165   ar
   180   181   180    1
   181   168   169   ar
   182   188   187    1
   183   165   167   ar
   184   180   182    1
   185   180   177    1
   186   169   167   ar
   187   176   177    1
   188   185   186    2
   189   185   184    1
   190   178   177    1
   191   178   179    2
   192   187   184    1
   193   187   189    1
   194   184   183    1
