@<TRIPOS>MOLECULE
tmp/4pf5B00.pdb
 87 83 0 0 0
SMALL
GASTEIGER

@<TRIPOS>ATOM
      1  N         30.2750  -60.2260  -46.4190 N.3    12  TYR12      -0.1241
      2  CA        31.0410  -61.2570  -45.6970 C.3    12  TYR12       0.1605
      3  C         30.2920  -62.5670  -45.6410 C.2    12  TYR12       0.2264
      4  O         29.1960  -62.6360  -45.0950 O.2    12  TYR12      -0.2867
      5  CB        31.3830  -60.8230  -44.2620 C.3    12  TYR12       0.0534
      6  CG        32.2420  -61.8290  -43.4960 C.ar   12  TYR12      -0.0201
      7  CD1       31.6650  -62.7720  -42.6610 C.ar   12  TYR12      -0.0009
      8  CD2       33.6310  -61.8380  -43.6230 C.ar   12  TYR12      -0.0009
      9  CE1       32.4430  -63.7000  -41.9710 C.ar   12  TYR12       0.0417
     10  CE2       34.4170  -62.7670  -42.9380 C.ar   12  TYR12       0.0417
     11  CZ        33.8170  -63.6840  -42.1110 C.ar   12  TYR12       0.1957
     12  OH        34.5710  -64.6020  -41.4190 O.3    12  TYR12      -0.2866
     13  N         28.9630  -65.6750  -44.2550 N.3    14  ASN14      -0.1240
     14  CA        28.7420  -66.4670  -43.0470 C.3    14  ASN14       0.1653
     15  C         28.0980  -67.8040  -43.4210 C.2    14  ASN14       0.2266
     16  O         26.8850  -67.9890  -43.2820 O.2    14  ASN14      -0.2867
     17  CB        27.8700  -65.7180  -42.0310 C.3    14  ASN14       0.1155
     18  CG        28.4490  -64.3600  -41.6520 C.2    14  ASN14       0.2627
     19  OD1       28.2440  -63.3830  -42.3610 O.2    14  ASN14      -0.2716
     20  ND2       29.1940  -64.3020  -40.5490 N.am   14  ASN14      -0.0877
     21  N         28.1220  -70.5850  -42.0740 N.3    16  ASP16      -0.1239
     22  CA        27.4780  -71.1410  -40.8880 C.3    16  ASP16       0.1674
     23  C         25.9620  -70.9540  -40.9070 C.2    16  ASP16       0.2266
     24  O         25.2230  -71.7990  -40.4120 O.2    16  ASP16      -0.2867
     25  CB        28.0350  -70.4690  -39.6210 C.3    16  ASP16       0.1410
     26  CG        29.2630  -71.1670  -39.0610 C.2    16  ASP16       0.3668
     27  OD1       29.8270  -70.6420  -38.0740 O.co2  16  ASP16      -0.2456
     28  OD2       29.6560  -72.2370  -39.5830 O.co2  16  ASP16      -0.2456
     29  N         31.7470  -56.3860  -37.6920 N.3    98  GLY98      -0.1210
     30  CA        31.8500  -57.4210  -36.6740 C.3    98  GLY98       0.1956
     31  C         33.2990  -57.5660  -36.2620 C.2    98  GLY98       0.2612
     32  O         33.9120  -56.5930  -35.8190 O.2    98  GLY98      -0.2717
     33  N         33.8510  -58.7700  -36.4040 N.am   99  LEU99      -0.1965
     34  CA        35.2930  -58.9300  -36.2480 C.3    99  LEU99       0.1728
     35  C         35.9910  -58.2500  -37.4100 C.2    99  LEU99       0.2616
     36  O         37.0300  -57.6130  -37.2430 O.2    99  LEU99      -0.2715
     37  CB        35.7060  -60.4020  -36.1750 C.3    99  LEU99       0.0311
     38  CG        37.2230  -60.6120  -36.0810 C.3    99  LEU99       0.0022
     39  CD1       37.8210  -59.7570  -34.9600 C.3    99  LEU99       0.0001
     40  CD2       37.5510  -62.0780  -35.8780 C.3    99  LEU99       0.0001
     41  N         35.4230  -58.3790  -38.6030 N.am  100  TYR100     -0.1974
     42  CA        35.9930  -57.6640  -39.7330 C.3   100  TYR100      0.1639
     43  C         35.1420  -56.4280  -39.9770 C.2   100  TYR100      0.2290
     44  O         34.0700  -56.2930  -39.3960 O.2   100  TYR100     -0.2864
     45  CB        36.0870  -58.5650  -40.9650 C.3   100  TYR100      0.0560
     46  CG        37.1370  -59.6490  -40.8110 C.ar  100  TYR100     -0.0198
     47  CD1       38.4810  -59.3780  -41.0440 C.ar  100  TYR100     -0.0009
     48  CD2       36.7860  -60.9360  -40.4160 C.ar  100  TYR100     -0.0009
     49  CE1       39.4460  -60.3660  -40.8980 C.ar  100  TYR100      0.0417
     50  CE2       37.7410  -61.9290  -40.2680 C.ar  100  TYR100      0.0417
     51  CZ        39.0680  -61.6380  -40.5070 C.ar  100  TYR100      0.1957
     52  OH        40.0200  -62.6210  -40.3610 O.3   100  TYR100     -0.2866
     53  N         33.5790  -56.5360  -44.0560 N.3   207  ALA207     -0.1231
     54  CA        32.4070  -57.0640  -43.3580 C.3   207  ALA207      0.1694
     55  C         31.7010  -55.8590  -42.7350 C.2   207  ALA207      0.2592
     56  O         32.3530  -54.8620  -42.4200 O.2   207  ALA207     -0.2718
     57  CB        32.8040  -58.0950  -42.2990 C.3   207  ALA207      0.0304
     58  N         30.3870  -55.9180  -42.5700 N.am  208  ASP208     -0.1974
     59  CA        29.5630  -57.0730  -42.8840 C.3   208  ASP208      0.1709
     60  C         28.5530  -56.8150  -44.0060 C.2   208  ASP208      0.2293
     61  O         27.9880  -57.7570  -44.5670 O.2   208  ASP208     -0.2864
     62  CB        28.8350  -57.5190  -41.6280 C.3   208  ASP208      0.1436
     63  CG        29.6210  -58.5550  -40.8470 C.2   208  ASP208      0.3671
     64  OD1       29.4870  -59.7420  -41.1720 O.co2 208  ASP208     -0.2456
     65  OD2       30.3620  -58.1830  -39.9240 O.co2 208  ASP208     -0.2456
     66  N         24.7740  -56.9380  -34.2620 N.3   226  THR226     -0.1203
     67  CA        25.9600  -56.4550  -34.9620 C.3   226  THR226      0.1994
     68  C         26.6010  -57.6270  -35.7100 C.2   226  THR226      0.2618
     69  O         26.3120  -58.7870  -35.4150 O.2   226  THR226     -0.2717
     70  CB        26.9820  -55.7820  -34.0150 C.3   226  THR226      0.1784
     71  OG1       27.7980  -56.7790  -33.3930 O.3   226  THR226     -0.2211
     72  CG2       26.2620  -54.9570  -32.9560 C.3   226  THR226      0.0376
     73  N         27.4460  -57.3270  -36.6920 N.am  227  GLY227     -0.1942
     74  CA        28.0450  -58.3660  -37.5070 C.3   227  GLY227      0.2014
     75  C         27.0730  -58.9590  -38.5170 C.2   227  GLY227      0.2638
     76  O         26.3630  -58.2370  -39.2210 O.2   227  GLY227     -0.2714
     77  N         27.0290  -60.2840  -38.5780 N.am  228  ARG228     -0.1977
     78  CA        26.3170  -60.9820  -39.6440 C.3   228  ARG228      0.1597
     79  C         24.8130  -60.7270  -39.7210 C.2   228  ARG228      0.2287
     80  O         24.2000  -61.0230  -40.7450 O.2   228  ARG228     -0.2864
     81  CB        26.5450  -62.4890  -39.5160 C.3   228  ARG228      0.0334
     82  CG        25.9150  -63.1020  -38.2710 C.3   228  ARG228      0.0492
     83  CD        26.4840  -64.4920  -38.0050 C.3   228  ARG228      0.2205
     84  NE        25.7250  -65.1940  -36.9770 N.pl3 228  ARG228     -0.0865
     85  CZ        25.9830  -66.4350  -36.5920 C.cat 228  ARG228      0.5346
     86  NH1       26.9900  -67.0930  -37.1490 N.pl3 228  ARG228      0.1354
     87  NH2       25.2490  -67.0050  -35.6520 N.pl3 228  ARG228      0.1354
@<TRIPOS>BOND
     1     1     2    1
     2     2     3    1
     3     2     5    1
     4     3     4    2
     5    61    60    2
     6     5     6    1
     7    13    14    1
     8    53    54    1
     9    60    59    1
    10     8     6   ar
    11     8    10   ar
    12     6     7   ar
    13    15    16    2
    14    15    14    1
    15    54    55    1
    16    54    57    1
    17    14    17    1
    18    10    11   ar
    19    59    58    1
    20    59    62    1
    21    55    58   am
    22    55    56    2
    23     7     9   ar
    24    19    18    2
    25    11     9   ar
    26    11    12    1
    27    21    22    1
    28    17    18    1
    29    18    20   am
    30    62    63    1
    31    64    63   ar
    32    47    49   ar
    33    47    46   ar
    34    45    46    1
    35    45    42    1
    36    23    22    1
    37    23    24    2
    38    49    51   ar
    39    22    25    1
    40    63    65   ar
    41    46    48   ar
    42    80    79    2
    43    51    52    1
    44    51    50   ar
    45    48    50   ar
    46    43    42    1
    47    43    44    2
    48    42    41    1
    49    79    78    1
    50    78    81    1
    51    78    77    1
    52    25    26    1
    53    28    26   ar
    54    81    82    1
    55    76    75    2
    56    26    27   ar
    57    41    35   am
    58    77    75   am
    59    75    74    1
    60    82    83    1
    61    83    84    1
    62    29    30    1
    63    74    73    1
    64    35    36    2
    65    35    34    1
    66    86    85    1
    67    84    85    2
    68    73    68   am
    69    30    31    1
    70    85    87    1
    71    33    31   am
    72    33    34    1
    73    31    32    2
    74    34    37    1
    75    37    38    1
    76    38    40    1
    77    38    39    1
    78    68    69    2
    79    68    67    1
    80    67    66    1
    81    67    70    1
    82    70    71    1
    83    70    72    1
