@<TRIPOS>MOLECULE
tmp/4pf6A01.pdb
 96 93 0 0 0
SMALL
GASTEIGER

@<TRIPOS>ATOM
      1  N         45.5030    2.0410  -25.4420 N.3    78  THR78      -0.1203
      2  CA        45.9490    1.4620  -26.6960 C.3    78  THR78       0.1994
      3  C         44.9860    0.3940  -27.1700 C.2    78  THR78       0.2618
      4  O         44.5670   -0.4680  -26.4040 O.2    78  THR78      -0.2717
      5  CB        47.3500    0.8790  -26.5160 C.3    78  THR78       0.1784
      6  OG1       48.2580    1.9570  -26.2580 O.3    78  THR78      -0.2211
      7  CG2       47.8090    0.1300  -27.7570 C.3    78  THR78       0.0376
      8  N         44.6420    0.4450  -28.4480 N.am   79  GLY79      -0.1942
      9  CA        43.7330   -0.5340  -29.0180 C.3    79  GLY79       0.2014
     10  C         44.1310   -1.9760  -28.7280 C.2    79  GLY79       0.2639
     11  O         45.2940   -2.3810  -28.8860 O.2    79  GLY79      -0.2714
     12  N         43.1300   -2.7530  -28.3300 N.am   80  TYR80      -0.1959
     13  CA        43.2300   -4.2020  -28.1410 C.3    80  TYR80       0.1771
     14  C         44.1360   -4.6730  -26.9780 C.2    80  TYR80       0.2619
     15  O         44.4700   -5.8450  -26.9120 O.2    80  TYR80      -0.2715
     16  CB        43.6160   -4.9030  -29.4380 C.3    80  TYR80       0.0574
     17  CG        42.5170   -4.8230  -30.4880 C.ar   80  TYR80      -0.0198
     18  CD1       41.3340   -5.5410  -30.3410 C.ar   80  TYR80      -0.0009
     19  CD2       42.6580   -4.0290  -31.5990 C.ar   80  TYR80      -0.0009
     20  CE1       40.3350   -5.4660  -31.2830 C.ar   80  TYR80       0.0417
     21  CE2       41.6620   -3.9410  -32.5470 C.ar   80  TYR80       0.0417
     22  CZ        40.4960   -4.6630  -32.3830 C.ar   80  TYR80       0.1957
     23  OH        39.5060   -4.5770  -33.3370 O.3    80  TYR80      -0.2866
     24  N         44.5180   -3.7840  -26.0740 N.am   81  VAL81      -0.1977
     25  CA        45.4160   -4.1780  -24.9820 C.3    81  VAL81       0.1596
     26  C         44.6220   -4.6970  -23.7830 C.2    81  VAL81       0.2287
     27  O         44.7270   -5.8720  -23.4480 O.2    81  VAL81      -0.2864
     28  CB        46.3680   -3.0540  -24.5970 C.3    81  VAL81       0.0276
     29  CG1       47.1140   -3.3760  -23.2960 C.3    81  VAL81       0.0022
     30  CG2       47.3640   -2.8160  -25.7290 C.3    81  VAL81       0.0022
     31  N         42.7930   -6.8300  -35.2610 N.3   270  ARG270     -0.1245
     32  CA        43.8170   -6.8060  -34.2080 C.3   270  ARG270      0.1563
     33  C         45.2100   -6.7040  -34.7940 C.2   270  ARG270      0.2260
     34  O         46.0460   -5.9240  -34.3270 O.2   270  ARG270     -0.2867
     35  CB        43.7400   -8.0710  -33.3480 C.3   270  ARG270      0.0307
     36  CG        42.5810   -8.1050  -32.4220 C.3   270  ARG270      0.0489
     37  CD        42.6960   -9.3050  -31.4670 C.3   270  ARG270      0.2205
     38  NE        41.7030  -10.3380  -31.7750 N.pl3 270  ARG270     -0.0865
     39  CZ        40.5010  -10.4380  -31.2050 C.cat 270  ARG270      0.5346
     40  NH1       40.0940   -9.5630  -30.2790 N.pl3 270  ARG270      0.1354
     41  NH2       39.6900  -11.4300  -31.5620 N.pl3 270  ARG270      0.1354
     42  N         47.6800   -3.4440  -34.2750 N.3   274  GLN274     -0.1245
     43  CA        48.9720   -3.6410  -33.6440 C.3   274  GLN274      0.1566
     44  C         50.0670   -3.0440  -34.5130 C.2   274  GLN274      0.2260
     45  O         50.9520   -2.3400  -34.0330 O.2   274  GLN274     -0.2867
     46  CB        49.2350   -5.1290  -33.4280 C.3   274  GLN274      0.0367
     47  CG        50.5610   -5.4540  -32.7540 C.3   274  GLN274      0.0905
     48  CD        50.7900   -6.9590  -32.6390 C.2   274  GLN274      0.2608
     49  OE1       50.4350   -7.7200  -33.5360 O.2   274  GLN274     -0.2717
     50  NE2       51.3590   -7.3910  -31.5230 N.am  274  GLN274     -0.0878
     51  N         50.4260    0.7000  -34.3840 N.3   277  TYR277     -0.1227
     52  CA        51.1170    1.2760  -33.2440 C.3   277  TYR277      0.1736
     53  C         52.6270    1.1540  -33.3300 C.2   277  TYR277      0.2595
     54  O         53.3440    1.9910  -32.7840 O.2   277  TYR277     -0.2718
     55  CB        50.6370    0.6760  -31.9060 C.3   277  TYR277      0.0548
     56  CG        49.3180    1.2590  -31.4300 C.ar  277  TYR277     -0.0200
     57  CD1       49.2740    2.4690  -30.7410 C.ar  277  TYR277     -0.0009
     58  CD2       48.1290    0.6080  -31.6680 C.ar  277  TYR277     -0.0009
     59  CE1       48.0800    3.0070  -30.3120 C.ar  277  TYR277      0.0417
     60  CE2       46.9320    1.1360  -31.2450 C.ar  277  TYR277      0.0417
     61  CZ        46.9080    2.3260  -30.5660 C.ar  277  TYR277      0.1957
     62  OH        45.6910    2.8100  -30.1460 O.3   277  TYR277     -0.2866
     63  N         53.1200    0.1080  -33.9900 N.am  278  VAL278     -0.1980
     64  CA        54.5570   -0.0140  -34.1970 C.3   278  VAL278      0.1595
     65  C         55.0670    1.2050  -34.9560 C.2   278  VAL278      0.2287
     66  O         54.5500    1.5260  -36.0240 O.2   278  VAL278     -0.2864
     67  CB        54.9160   -1.3050  -34.9870 C.3   278  VAL278      0.0276
     68  CG1       56.4020   -1.3500  -35.2800 C.3   278  VAL278      0.0022
     69  CG2       54.5160   -2.5150  -34.2040 C.3   278  VAL278      0.0022
     70  N         53.7570    4.3370  -28.9860 N.3   283  ALA283     -0.1245
     71  CA        54.5920    3.2040  -28.6410 C.3   283  ALA283      0.1562
     72  C         55.8940    3.6510  -27.9840 C.2   283  ALA283      0.2260
     73  O         56.3670    3.0030  -27.0340 O.2   283  ALA283     -0.2867
     74  CB        54.8730    2.3360  -29.8770 C.3   283  ALA283      0.0290
     75  N         55.8210    4.3790  -24.0670 N.3   286  TRP286     -0.1241
     76  CA        55.4830    3.3630  -23.0720 C.3   286  TRP286      0.1605
     77  C         56.7320    2.9550  -22.3030 C.2   286  TRP286      0.2264
     78  O         57.7420    2.5710  -22.8970 O.2   286  TRP286     -0.2867
     79  CB        54.8500    2.1430  -23.7210 C.3   286  TRP286      0.0550
     80  CG        53.6510    2.4490  -24.5370 C.ar  286  TRP286      0.0003
     81  CD1       52.8320    3.5120  -24.4260 C.ar  286  TRP286      0.0946
     82  CD2       53.1610    1.6710  -25.6300 C.ar  286  TRP286      0.0152
     83  NE1       51.8330    3.4470  -25.3690 N.ar  286  TRP286     -0.2442
     84  CE2       52.0150    2.3190  -26.1220 C.ar  286  TRP286      0.0810
     85  CE3       53.5750    0.4820  -26.2280 C.ar  286  TRP286      0.0012
     86  CZ2       51.2910    1.8290  -27.2050 C.ar  286  TRP286      0.0191
     87  CZ3       52.8530   -0.0070  -27.2980 C.ar  286  TRP286      0.0001
     88  CH2       51.7210    0.6640  -27.7700 C.ar  286  TRP286      0.0015
     89  N         54.0480   -2.9720  -20.9400 N.3   291  LEU291     -0.1245
     90  CA        53.1010   -3.6730  -21.8070 C.3   291  LEU291      0.1561
     91  C         53.1350   -5.1890  -21.5660 C.2   291  LEU291      0.2260
     92  O         52.0980   -5.8530  -21.5260 O.2   291  LEU291     -0.2867
     93  CB        53.3650   -3.3460  -23.2770 C.3   291  LEU291      0.0270
     94  CG        52.4630   -4.0670  -24.2870 C.3   291  LEU291      0.0019
     95  CD1       50.9890   -3.7900  -23.9990 C.3   291  LEU291      0.0001
     96  CD2       52.8150   -3.6410  -25.7050 C.3   291  LEU291      0.0001
@<TRIPOS>BOND
     1    66    65    2
     2    68    67    1
     3    31    32    1
     4    67    69    1
     5    67    64    1
     6    65    64    1
     7    33    34    2
     8    33    32    1
     9    44    45    2
    10    44    43    1
    11    51    52    1
    12    42    43    1
    13    32    35    1
    14    64    63    1
    15    63    53   am
    16    43    46    1
    17    49    48    2
    18    46    47    1
    19    35    36    1
    20    23    22    1
    21    53    52    1
    22    53    54    2
    23    52    55    1
    24    47    48    1
    25    48    50   am
    26    21    22   ar
    27    21    19   ar
    28    36    37    1
    29    22    20   ar
    30    55    56    1
    31    38    37    1
    32    38    39    2
    33    58    56   ar
    34    58    60   ar
    35    19    17   ar
    36    41    39    1
    37    56    57   ar
    38    20    18   ar
    39    60    61   ar
    40    39    40    1
    41    57    59   ar
    42    61    59   ar
    43    61    62    1
    44    17    18   ar
    45    17    16    1
    46    74    71    1
    47    16    13    1
    48     9    10    1
    49     9     8    1
    50    70    71    1
    51    11    10    2
    52    10    12   am
    53    71    72    1
    54     8     3   am
    55    12    13    1
    56    13    14    1
    57    72    73    2
    58    88    87   ar
    59    88    86   ar
    60     7     5    1
    61    87    85   ar
    62    86    84   ar
    63     3     2    1
    64     3     4    2
    65    14    15    2
    66    14    24   am
    67     2     5    1
    68     2     1    1
    69     5     6    1
    70    85    82   ar
    71    84    82   ar
    72    84    83   ar
    73    24    25    1
    74    30    28    1
    75    96    94    1
    76    82    80   ar
    77    83    81   ar
    78    25    28    1
    79    25    26    1
    80    28    29    1
    81    80    81   ar
    82    80    79    1
    83    94    95    1
    84    94    93    1
    85    75    76    1
    86    26    27    2
    87    79    76    1
    88    93    90    1
    89    76    77    1
    90    78    77    2
    91    90    91    1
    92    90    89    1
    93    91    92    2
