@<TRIPOS>MOLECULE
tmp/4pf6A00.pdb
 171 160 0 0 0
SMALL
GASTEIGER

@<TRIPOS>ATOM
      1  N         31.2740   16.0220  -15.7210 N.3     8  THR8       -0.1204
      2  CA        31.4550   15.0070  -16.7530 C.3     8  THR8        0.1979
      3  C         30.5700   15.3280  -17.9430 C.2     8  THR8        0.2460
      4  O         29.5150   15.9350  -17.7950 O.2     8  THR8       -0.2732
      5  CB        31.1010   13.5890  -16.2490 C.3     8  THR8        0.1783
      6  OG1       31.2810   12.6310  -17.3050 O.3     8  THR8       -0.2211
      7  CG2       29.6570   13.5140  -15.7750 C.3     8  THR8        0.0376
      8  N         30.9970   14.9190  -19.1460 N.am    9  PRO9       -0.2717
      9  CA        30.1120   14.9700  -20.3080 C.3     9  PRO9        0.1535
     10  C         29.0070   13.9030  -20.2640 C.2     9  PRO9        0.2598
     11  O         28.0390   14.0080  -21.0320 O.2     9  PRO9       -0.2715
     12  CB        31.0530   14.6780  -21.4850 C.3     9  PRO9        0.0310
     13  CG        32.4230   14.8380  -20.9560 C.3     9  PRO9        0.0237
     14  CD        32.3510   14.4680  -19.5110 C.3     9  PRO9        0.0939
     15  N         29.1690   12.8980  -19.4170 N.am   10  ALA10      -0.1978
     16  CA        28.1780   11.8430  -19.2860 C.3    10  ALA10       0.1597
     17  C         26.8550   12.3960  -18.8220 C.2    10  ALA10       0.2287
     18  O         26.7820   13.4430  -18.1790 O.2    10  ALA10      -0.2864
     19  CB        28.6450   10.7690  -18.3310 C.3    10  ALA10       0.0319
     20  N         23.7480    7.6040  -17.0910 N.3    14  ASP14      -0.1239
     21  CA        24.8940    6.7290  -17.3370 C.3    14  ASP14       0.1674
     22  C         25.2230    5.9440  -16.0540 C.2    14  ASP14       0.2266
     23  O         25.1810    6.4990  -14.9550 O.2    14  ASP14      -0.2867
     24  CB        26.0710    7.6130  -17.7320 C.3    14  ASP14       0.1410
     25  CG        27.2830    6.8310  -18.2020 C.2    14  ASP14       0.3668
     26  OD1       27.9620    6.2240  -17.3520 O.co2  14  ASP14      -0.2456
     27  OD2       27.5930    6.8660  -19.4300 O.co2  14  ASP14      -0.2456
     28  N         27.9340    5.0170  -14.7370 N.3    16  ARG16      -0.1245
     29  CA        29.0040    5.6110  -13.9370 C.3    16  ARG16       0.1563
     30  C         28.4740    6.7650  -13.0830 C.2    16  ARG16       0.2260
     31  O         28.8090    6.8990  -11.8960 O.2    16  ARG16      -0.2867
     32  CB        30.1490    6.0860  -14.8300 C.3    16  ARG16       0.0307
     33  CG        30.8370    4.9560  -15.6200 C.3    16  ARG16       0.0489
     34  CD        31.6980    5.5150  -16.7620 C.3    16  ARG16       0.2205
     35  NE        30.8380    6.2030  -17.7090 N.pl3  16  ARG16      -0.0865
     36  CZ        31.2060    7.1810  -18.5300 C.cat  16  ARG16       0.5346
     37  NH1       32.4610    7.5940  -18.5920 N.pl3  16  ARG16       0.1354
     38  NH2       30.2940    7.7300  -19.3110 N.pl3  16  ARG16       0.1354
     39  N         34.5980   18.7810  -21.9170 N.3    45  GLN45      -0.1245
     40  CA        35.3170   17.5130  -21.9960 C.3    45  GLN45       0.1566
     41  C         36.7980   17.7560  -22.3130 C.2    45  GLN45       0.2260
     42  O         37.1420   18.5340  -23.2160 O.2    45  GLN45      -0.2867
     43  CB        34.7040   16.6110  -23.0650 C.3    45  GLN45       0.0367
     44  CG        35.3400   15.2360  -23.1350 C.3    45  GLN45       0.0905
     45  CD        34.6320   14.3320  -24.1250 C.2    45  GLN45       0.2608
     46  OE1       34.1070   14.7930  -25.1310 O.2    45  GLN45      -0.2717
     47  NE2       34.5960   13.0470  -23.8310 N.am   45  GLN45      -0.0878
     48  N         35.3920   12.1110  -13.9380 N.3    60  ILE60      -0.1245
     49  CA        35.4460   10.7690  -14.4840 C.3    60  ILE60       0.1561
     50  C         36.4390   10.8590  -15.6310 C.2    60  ILE60       0.2260
     51  O         36.0860   11.1690  -16.7780 O.2    60  ILE60      -0.2867
     52  CB        34.0620   10.3070  -14.9460 C.3    60  ILE60       0.0252
     53  CG1       33.0720   10.3070  -13.7760 C.3    60  ILE60       0.0019
     54  CG2       34.1340    8.9020  -15.5770 C.3    60  ILE60       0.0019
     55  CD1       31.6270   10.0240  -14.1790 C.3    60  ILE60       0.0001
     56  N         40.0770    9.8700  -17.9540 N.3    62  SER62      -0.1217
     57  CA        40.4660    8.7740  -18.8280 C.3    62  SER62       0.1889
     58  C         41.9710    8.7640  -19.0020 C.2    62  SER62       0.2288
     59  O         42.6230    9.7700  -18.7930 O.2    62  SER62      -0.2866
     60  CB        39.8110    8.9300  -20.1950 C.3    62  SER62       0.2089
     61  OG        40.3590   10.0690  -20.8510 O.3    62  SER62      -0.2183
     62  N         42.8100   11.4730  -21.5200 N.3    65  GLU65      -0.1245
     63  CA        42.8930   12.8200  -20.9550 C.3    65  GLU65       0.1567
     64  C         44.2390   12.9980  -20.2640 C.2    65  GLU65       0.2260
     65  O         44.9010   14.0180  -20.4260 O.2    65  GLU65      -0.2867
     66  CB        41.7660   13.0630  -19.9750 C.3    65  GLU65       0.0388
     67  CG        40.4140   13.2040  -20.6160 C.3    65  GLU65       0.1160
     68  CD        39.2960   13.3070  -19.5940 C.2    65  GLU65       0.3649
     69  OE1       39.6070   13.5690  -18.3940 O.co2  65  GLU65      -0.2457
     70  OE2       38.1140   13.1520  -20.0010 O.co2  65  GLU65      -0.2457
     71  N         34.1150    1.4100  -18.5170 N.3   116  LEU116     -0.1245
     72  CA        33.2640    2.1180  -19.4680 C.3   116  LEU116      0.1561
     73  C         32.6410    1.1370  -20.4550 C.2   116  LEU116      0.2260
     74  O         31.4400    1.1290  -20.6500 O.2   116  LEU116     -0.2867
     75  CB        34.0160    3.2270  -20.1820 C.3   116  LEU116      0.0270
     76  CG        33.2000    4.0140  -21.2160 C.3   116  LEU116      0.0019
     77  CD1       31.8580    4.5070  -20.6250 C.3   116  LEU116      0.0001
     78  CD2       34.0130    5.2000  -21.7460 C.3   116  LEU116      0.0001
     79  N         34.2820   -0.6410  -26.8820 N.3   119  ARG119     -0.1245
     80  CA        34.0020    0.2910  -27.9620 C.3   119  ARG119      0.1563
     81  C         33.9310   -0.4520  -29.2990 C.2   119  ARG119      0.2260
     82  O         34.7020   -1.3720  -29.5350 O.2   119  ARG119     -0.2867
     83  CB        35.0770    1.3800  -27.9890 C.3   119  ARG119      0.0307
     84  CG        35.1870    2.1340  -26.6580 C.3   119  ARG119      0.0489
     85  CD        36.1500    3.3390  -26.6660 C.3   119  ARG119      0.2205
     86  NE        35.5200    4.5090  -27.2640 N.pl3 119  ARG119     -0.0865
     87  CZ        34.8740    5.4640  -26.6090 C.cat 119  ARG119      0.5346
     88  NH1       34.3190    6.4520  -27.2890 N.pl3 119  ARG119      0.1354
     89  NH2       34.7810    5.4600  -25.2820 N.pl3 119  ARG119      0.1354
     90  N         33.8490    9.8550  -36.0280 N.3   144  ARG144     -0.1245
     91  CA        34.0580   10.7560  -34.9130 C.3   144  ARG144      0.1563
     92  C         34.8440   10.0020  -33.8660 C.2   144  ARG144      0.2260
     93  O         34.5580    8.8450  -33.5990 O.2   144  ARG144     -0.2867
     94  CB        32.7270   11.2250  -34.3180 C.3   144  ARG144      0.0307
     95  CG        32.8910   12.1000  -33.0780 C.3   144  ARG144      0.0489
     96  CD        32.9980   11.2600  -31.8300 C.3   144  ARG144      0.2205
     97  NE        33.2430   12.0620  -30.6530 N.pl3 144  ARG144     -0.0865
     98  CZ        33.4030   11.5440  -29.4450 C.cat 144  ARG144      0.5346
     99  NH1       33.3660   10.2320  -29.2910 N.pl3 144  ARG144      0.1354
    100  NH2       33.5790   12.3370  -28.4000 N.pl3 144  ARG144      0.1354
    101  N         36.8900   11.1990  -29.8640 N.3   145  PRO145     -0.2116
    102  CA        37.0800   12.3460  -28.9730 C.3   145  PRO145      0.1372
    103  C         38.3240   13.1480  -29.3210 C.2   145  PRO145      0.2244
    104  O         39.2170   12.6700  -30.0370 O.2   145  PRO145     -0.2868
    105  CB        37.2080   11.6960  -27.5730 C.3   145  PRO145      0.0268
    106  CG        36.6140   10.3570  -27.7140 C.3   145  PRO145      0.0207
    107  CD        36.8760    9.9280  -29.1310 C.3   145  PRO145      0.0892
    108  N         43.1910    9.4780  -28.9910 N.3   150  TRP150     -0.1241
    109  CA        41.8790    9.0770  -29.4760 C.3   150  TRP150      0.1605
    110  C         41.8110    9.1210  -31.0020 C.2   150  TRP150      0.2264
    111  O         41.2960    8.2010  -31.6510 O.2   150  TRP150     -0.2867
    112  CB        40.8010   10.0050  -28.9260 C.3   150  TRP150      0.0550
    113  CG        40.2260    9.6030  -27.5820 C.ar  150  TRP150      0.0003
    114  CD1       40.1930   10.3520  -26.4440 C.ar  150  TRP150      0.0946
    115  CD2       39.5580    8.3730  -27.2780 C.ar  150  TRP150      0.0152
    116  NE1       39.5390    9.6600  -25.4410 N.ar  150  TRP150     -0.2442
    117  CE2       39.1420    8.4440  -25.9320 C.ar  150  TRP150      0.0810
    118  CE3       39.2590    7.2270  -28.0140 C.ar  150  TRP150      0.0012
    119  CZ2       38.4620    7.3950  -25.3050 C.ar  150  TRP150      0.0191
    120  CZ3       38.5830    6.1880  -27.3980 C.ar  150  TRP150      0.0001
    121  CH2       38.1730    6.2890  -26.0550 C.ar  150  TRP150      0.0015
    122  N         31.8710   14.8970  -26.9740 N.3   165  PHE165     -0.1241
    123  CA        30.8260   13.9060  -26.7820 C.3   165  PHE165      0.1605
    124  C         29.4180   14.4750  -26.9570 C.2   165  PHE165      0.2264
    125  O         28.5780   13.8460  -27.5870 O.2   165  PHE165     -0.2867
    126  CB        30.9490   13.2620  -25.3960 C.3   165  PHE165      0.0534
    127  CG        29.8680   12.2660  -25.1010 C.ar  165  PHE165     -0.0203
    128  CD1       29.9400   10.9790  -25.5880 C.ar  165  PHE165     -0.0042
    129  CD2       28.7740   12.6190  -24.3280 C.ar  165  PHE165     -0.0042
    130  CE1       28.9380   10.0610  -25.3340 C.ar  165  PHE165     -0.0003
    131  CE2       27.7710   11.7050  -24.0610 C.ar  165  PHE165     -0.0003
    132  CZ        27.8490   10.4220  -24.5570 C.ar  165  PHE165     -0.0000
    133  N         31.2900    4.7680  -29.1740 N.3   182  ASN182     -0.1240
    134  CA        30.9910    4.5340  -27.7630 C.3   182  ASN182      0.1653
    135  C         30.4070    3.1640  -27.5200 C.2   182  ASN182      0.2266
    136  O         29.7650    2.5720  -28.3880 O.2   182  ASN182     -0.2867
    137  CB        30.0440    5.6000  -27.2140 C.3   182  ASN182      0.1155
    138  CG        30.7710    6.8440  -26.8010 C.2   182  ASN182      0.2627
    139  OD1       31.2570    6.9500  -25.6720 O.2   182  ASN182     -0.2716
    140  ND2       30.9040    7.7780  -27.7260 N.am  182  ASN182     -0.0877
    141  N         26.1060    3.2870  -23.8660 N.3   186  THR186     -0.1218
    142  CA        26.0660    4.7000  -24.2540 C.3   186  THR186      0.1862
    143  C         25.2900    4.8880  -25.5400 C.2   186  THR186      0.2287
    144  O         24.5390    5.8440  -25.6830 O.2   186  THR186     -0.2866
    145  CB        27.4820    5.2880  -24.4060 C.3   186  THR186      0.1770
    146  OG1       28.1810    5.1470  -23.1680 O.3   186  THR186     -0.2211
    147  CG2       27.4290    6.7500  -24.7960 C.3   186  THR186      0.0375
    148  N         37.2980   -0.1370  -22.6990 N.3   207  ASP207     -0.1225
    149  CA        37.6510    1.2000  -22.2430 C.3   207  ASP207      0.1805
    150  C         37.3000    1.3870  -20.7710 C.2   207  ASP207      0.2598
    151  O         36.4520    0.6780  -20.2170 O.2   207  ASP207     -0.2718
    152  CB        36.9500    2.2510  -23.1110 C.3   207  ASP207      0.1424
    153  CG        37.5880    3.6230  -23.0280 C.2   207  ASP207      0.3668
    154  OD1       38.7130    3.7750  -22.4680 O.co2 207  ASP207     -0.2456
    155  OD2       36.9390    4.5580  -23.5300 O.co2 207  ASP207     -0.2456
    156  N         37.9920    2.3420  -20.1700 N.am  208  LEU208     -0.1966
    157  CA        37.9550    2.5900  -18.7400 C.3   208  LEU208      0.1728
    158  C         37.9980    4.0740  -18.4430 C.2   208  LEU208      0.2616
    159  O         38.3440    4.9070  -19.3020 O.2   208  LEU208     -0.2715
    160  CB        39.1630    1.9330  -18.0690 C.3   208  LEU208      0.0311
    161  CG        40.5290    2.4800  -18.5250 C.3   208  LEU208      0.0022
    162  CD1       40.9940    3.6510  -17.6840 C.3   208  LEU208      0.0001
    163  CD2       41.5540    1.3550  -18.5170 C.3   208  LEU208      0.0001
    164  N         37.6420    4.3940  -17.1970 N.am  209  ASN209     -0.1972
    165  CA        37.8300    5.7250  -16.6450 C.3   209  ASN209      0.1688
    166  C         38.4920    5.6150  -15.2870 C.2   209  ASN209      0.2292
    167  O         38.5880    4.5280  -14.7290 O.2   209  ASN209     -0.2864
    168  CB        36.4940    6.4310  -16.4880 C.3   209  ASN209      0.1181
    169  CG        35.7990    6.6790  -17.8240 C.2   209  ASN209      0.2629
    170  OD1       34.8030    6.0370  -18.1330 O.2   209  ASN209     -0.2716
    171  ND2       36.3010    7.6380  -18.5930 N.am  209  ASN209     -0.0877
@<TRIPOS>BOND
     1    90    91    1
     2    91    94    1
     3    91    92    1
     4    94    95    1
     5    92    93    2
     6    95    96    1
     7    96    97    1
     8   111   110    2
     9   110   109    1
    10    97    98    2
    11   104   103    2
    12   101   107    1
    13   101   102    1
    14    82    81    2
    15   109   108    1
    16   109   112    1
    17    98    99    1
    18    98   100    1
    19   103   102    1
    20    81    80    1
    21   133   134    1
    22   107   106    1
    23   102   105    1
    24   112   113    1
    25   136   135    2
    26   118   120   ar
    27   118   115   ar
    28    83    80    1
    29    83    84    1
    30    80    79    1
    31   134   135    1
    32   134   137    1
    33   140   138   am
    34   106   105    1
    35   125   124    2
    36   113   115   ar
    37   113   114   ar
    38   120   121   ar
    39    88    87    1
    40   115   117   ar
    41    86    85    1
    42    86    87    2
    43   137   138    1
    44   122   123    1
    45   124   123    1
    46   138   139    2
    47   123   126    1
    48    85    84    1
    49    87    89    1
    50   114   116   ar
    51   121   119   ar
    52   117   116   ar
    53   117   119   ar
    54   144   143    2
    55   128   130   ar
    56   128   127   ar
    57   143   142    1
    58   126   127    1
    59   130   132   ar
    60    46    45    2
    61   127   129   ar
    62   147   145    1
    63   132   131   ar
    64   145   142    1
    65   145   146    1
    66   129   131   ar
    67   142   141    1
    68    45    47   am
    69    45    44    1
    70   155   153   ar
    71    42    41    2
    72    44    43    1
    73   152   153    1
    74   152   149    1
    75    43    40    1
    76   153   154   ar
    77   148   149    1
    78    41    40    1
    79   149   150    1
    80    40    39    1
    81    78    76    1
    82    62    63    1
    83    12    13    1
    84    12     9    1
    85    76    77    1
    86    76    75    1
    87    11    10    2
    88    13    14    1
    89    63    64    1
    90    63    66    1
    91    61    60    1
    92   150   151    2
    93   150   156   am
    94    74    73    2
    95    67    66    1
    96    67    68    1
    97    73    72    1
    98    65    64    2
    99     9    10    1
   100     9     8    1
   101    10    15   am
   102    60    57    1
   103    75    72    1
   104   156   157    1
   105    70    68   ar
   106    68    69   ar
   107    14     8    1
   108    72    71    1
   109    27    25   ar
   110    15    16    1
   111    38    36    1
   112   159   158    2
   113    16    17    1
   114    16    19    1
   115     8     3   am
   116    58    57    1
   117    58    59    2
   118    57    56    1
   119    17    18    2
   120   157   158    1
   121   157   160    1
   122   171   169   am
   123    37    36    1
   124    36    35    2
   125   161   163    1
   126   161   160    1
   127   161   162    1
   128   158   164   am
   129    25    24    1
   130    25    26   ar
   131   170   169    2
   132     3     4    2
   133     3     2    1
   134   169   168    1
   135    24    21    1
   136    35    34    1
   137    21    20    1
   138    21    22    1
   139     6     5    1
   140   164   165    1
   141    51    50    2
   142    34    33    1
   143     2     5    1
   144     2     1    1
   145   165   168    1
   146   165   166    1
   147     5     7    1
   148    22    23    2
   149    50    49    1
   150    33    32    1
   151    54    52    1
   152   166   167    2
   153    52    49    1
   154    52    53    1
   155    32    29    1
   156    28    29    1
   157    49    48    1
   158    55    53    1
   159    29    30    1
   160    30    31    2
