@<TRIPOS>MOLECULE
tmp/4pf7B00.pdb
 123 117 0 0 0
SMALL
GASTEIGER

@<TRIPOS>ATOM
      1  N        -10.8140  -52.5510   74.6040 N.3   290  HIS290     -0.1241
      2  CA       -10.5510  -52.7790   73.1790 C.3   290  HIS290      0.1621
      3  C        -11.8750  -52.7860   72.4300 C.2   290  HIS290      0.2264
      4  O        -11.9980  -52.1100   71.4180 O.2   290  HIS290     -0.2867
      5  CB        -9.8000  -54.1080   72.9640 C.3   290  HIS290      0.0745
      6  CG        -9.2890  -54.3180   71.5710 C.ar  290  HIS290      0.0817
      7  ND1       -9.8820  -55.2410   70.7020 N.ar  290  HIS290     -0.2268
      8  CD2       -8.2270  -53.7540   70.9470 C.ar  290  HIS290      0.1154
      9  CE1       -9.1810  -55.1780   69.5780 C.ar  290  HIS290      0.1986
     10  NE2       -8.1800  -54.2940   69.6760 N.ar  290  HIS290     -0.2212
     11  N        -13.2480  -49.2090   72.5510 N.3   293  GLY293     -0.1210
     12  CA       -12.4080  -48.3730   71.6960 C.3   293  GLY293      0.1956
     13  C        -12.6980  -48.5970   70.2200 C.2   293  GLY293      0.2611
     14  O        -12.7560  -47.6400   69.4380 O.2   293  GLY293     -0.2717
     15  N        -12.9450  -49.8640   69.8460 N.am  294  HIS294     -0.1975
     16  CA       -13.3120  -50.2660   68.4880 C.3   294  HIS294      0.1656
     17  C        -14.6330  -49.6030   68.0450 C.2   294  HIS294      0.2291
     18  O        -14.7140  -49.1050   66.9230 O.2   294  HIS294     -0.2864
     19  CB       -13.3810  -51.8040   68.3880 C.3   294  HIS294      0.0771
     20  CG       -14.0580  -52.3220   67.1520 C.ar  294  HIS294      0.0820
     21  ND1      -13.3850  -52.4160   65.9550 N.ar  294  HIS294     -0.2267
     22  CD2      -15.3240  -52.7680   66.9780 C.ar  294  HIS294      0.1154
     23  CE1      -14.2580  -52.9050   65.0880 C.ar  294  HIS294      0.1986
     24  NE2      -15.4430  -53.1230   65.6570 N.ar  294  HIS294     -0.2212
     25  N        -14.2620  -45.4630   68.6050 N.3   297  GLY297     -0.1225
     26  CA       -13.2700  -45.0460   67.6290 C.3   297  GLY297      0.1811
     27  C        -13.5570  -45.4820   66.2020 C.2   297  GLY297      0.2280
     28  O        -12.7120  -45.2610   65.3470 O.2   297  GLY297     -0.2866
     29  N        -14.8870  -45.6770   62.3220 N.3   299  GLU299     -0.1245
     30  CA       -14.9650  -44.6530   61.2580 C.3   299  GLU299      0.1567
     31  C        -15.8800  -45.0270   60.0800 C.2   299  GLU299      0.2260
     32  O        -15.9740  -44.2690   59.1110 O.2   299  GLU299     -0.2867
     33  CB       -13.5650  -44.2870   60.7440 C.3   299  GLU299      0.0388
     34  CG       -12.5880  -43.8610   61.8190 C.3   299  GLU299      0.1160
     35  CD       -11.3160  -43.2070   61.3170 C.2   299  GLU299      0.3649
     36  OE1      -11.2390  -42.8970   60.1060 O.co2 299  GLU299     -0.2457
     37  OE2      -10.4130  -42.9520   62.1470 O.co2 299  GLU299     -0.2457
     38  N        -10.8630  -38.5300   64.5690 N.3   317  LEU317     -0.1231
     39  CA       -11.2150  -38.9580   65.9230 C.3   317  LEU317      0.1693
     40  C        -10.3430  -40.1400   66.3690 C.2   317  LEU317      0.2592
     41  O        -10.0810  -41.0600   65.5830 O.2   317  LEU317     -0.2718
     42  CB       -12.7300  -39.3150   65.9980 C.3   317  LEU317      0.0284
     43  CG       -13.3240  -39.7210   67.3760 C.3   317  LEU317      0.0019
     44  CD1      -14.7500  -39.2950   67.4850 C.3   317  LEU317      0.0001
     45  CD2      -13.2610  -41.2320   67.6000 C.3   317  LEU317      0.0001
     46  N         -9.9390  -40.1220   67.6480 N.am  318  VAL318     -0.1966
     47  CA        -9.2240  -41.2010   68.3400 C.3   318  VAL318      0.1727
     48  C        -10.0350  -41.5200   69.6050 C.2   318  VAL318      0.2617
     49  O        -10.3490  -40.6320   70.3880 O.2   318  VAL318     -0.2715
     50  CB        -7.7110  -40.9350   68.6630 C.3   318  VAL318      0.0290
     51  CG1       -7.0440  -42.2020   69.1980 C.3   318  VAL318      0.0023
     52  CG2       -6.9610  -40.4550   67.4280 C.3   318  VAL318      0.0023
     53  N        -10.3840  -42.7830   69.7690 N.am  319  GLY319     -0.1940
     54  CA       -11.1450  -43.2300   70.9210 C.3   319  GLY319      0.2014
     55  C        -10.6120  -44.5220   71.4960 C.2   319  GLY319      0.2639
     56  O        -10.2060  -45.4210   70.7470 O.2   319  GLY319     -0.2714
     57  N        -10.6400  -44.6230   72.8180 N.am  320  GLY320     -0.1939
     58  CA       -10.1950  -45.8460   73.4770 C.3   320  GLY320      0.2014
     59  C         -9.5690  -45.6840   74.8420 C.2   320  GLY320      0.2639
     60  O         -9.5900  -44.5980   75.4310 O.2   320  GLY320     -0.2714
     61  N         -9.0320  -46.7990   75.3460 N.am  321  GLN321     -0.1963
     62  CA        -8.3640  -46.8900   76.6310 C.3   321  GLN321      0.1733
     63  C         -6.8940  -46.4440   76.5230 C.2   321  GLN321      0.2616
     64  O         -6.2040  -46.6970   75.5320 O.2   321  GLN321     -0.2715
     65  CB        -8.4830  -48.3190   77.2250 C.3   321  GLN321      0.0408
     66  CG        -7.6660  -49.3800   76.5000 C.3   321  GLN321      0.0908
     67  CD        -7.9810  -50.8250   76.8740 C.2   321  GLN321      0.2608
     68  OE1       -8.1700  -51.1750   78.0570 O.2   321  GLN321     -0.2717
     69  NE2       -7.9590  -51.7120   75.8610 N.am  321  GLN321     -0.0878
     70  N         -6.4280  -45.8280   77.5830 N.am  322  LYS322     -0.1963
     71  CA        -5.0890  -45.3020   77.6680 C.3   322  LYS322      0.1728
     72  C         -4.5320  -45.7320   79.0190 C.2   322  LYS322      0.2619
     73  O         -5.2280  -45.6480   80.0340 O.2   322  LYS322     -0.2715
     74  CB        -5.1410  -43.7670   77.5340 C.3   322  LYS322      0.0311
     75  CG        -3.8080  -43.0580   77.5070 C.3   322  LYS322      0.0038
     76  CD        -4.0520  -41.5580   77.4670 C.3   322  LYS322      0.0206
     77  CE        -2.7800  -40.7470   77.4300 C.3   322  LYS322      0.1093
     78  NZ        -3.0260  -39.3400   77.8380 N.3   322  LYS322     -0.1314
     79  N         -3.2770  -46.1890   79.0170 N.am  323  GLU323     -0.1932
     80  CA        -2.5440  -46.6060   80.2050 C.3   323  GLU323      0.1818
     81  C         -2.3630  -45.4660   81.2130 C.2   323  GLU323      0.2332
     82  O         -2.3380  -44.2960   80.8210 O.2   323  GLU323     -0.2860
     83  CB        -1.1850  -47.2630   79.8480 C.2   323  GLU323      0.0097
     84  CG        -0.2030  -46.4490   78.9930 C.2   323  GLU323      0.0837
     85  CD         0.9740  -47.1920   78.3810 C.2   323  GLU323      0.3877
     86  OE1        1.8390  -46.5120   77.7850 O.co2 323  GLU323     -0.2406
     87  OE2        1.0370  -48.4400   78.4900 O.co2 323  GLU323     -0.2406
     88  N        -10.3340  -42.1820   76.6460 N.3   332  ILE332     -0.1245
     89  CA       -10.2590  -40.9400   75.8730 C.3   332  ILE332      0.1561
     90  C        -11.1100  -40.9030   74.6040 C.2   332  ILE332      0.2260
     91  O        -11.3660  -41.9440   73.9970 O.2   332  ILE332     -0.2867
     92  CB        -8.7580  -40.5770   75.5890 C.3   332  ILE332      0.0252
     93  CG1       -8.0090  -41.6920   74.8170 C.3   332  ILE332      0.0019
     94  CG2       -7.9940  -40.2530   76.8860 C.3   332  ILE332      0.0019
     95  CD1       -7.8010  -41.4170   73.3600 C.3   332  ILE332      0.0001
     96  N        -13.4810  -59.1460   66.3190 N.3   372  LEU372     -0.1245
     97  CA       -12.2280  -58.6780   66.9230 C.3   372  LEU372      0.1561
     98  C        -11.2990  -59.8510   67.2570 C.2   372  LEU372      0.2260
     99  O        -10.0970  -59.7670   67.0150 O.2   372  LEU372     -0.2867
    100  CB       -12.5080  -57.8490   68.1920 C.3   372  LEU372      0.0270
    101  CG       -13.3190  -56.5590   68.0210 C.3   372  LEU372      0.0019
    102  CD1      -13.7060  -55.9950   69.3770 C.3   372  LEU372      0.0001
    103  CD2      -12.5280  -55.5100   67.2480 C.3   372  LEU372      0.0001
    104  N        -11.9310  -47.8140   55.9840 N.3   567  TYR567     -0.1241
    105  CA       -11.7080  -48.1220   57.4000 C.3   567  TYR567      0.1605
    106  C        -11.9230  -49.6240   57.7500 C.2   567  TYR567      0.2264
    107  O        -11.0940  -50.2160   58.4380 O.2   567  TYR567     -0.2867
    108  CB       -12.5430  -47.2100   58.3060 C.3   567  TYR567      0.0534
    109  CG       -12.1720  -47.3570   59.7690 C.ar  567  TYR567     -0.0201
    110  CD1      -10.9770  -46.8360   60.2610 C.ar  567  TYR567     -0.0009
    111  CD2      -13.0080  -48.0300   60.6570 C.ar  567  TYR567     -0.0009
    112  CE1      -10.6280  -46.9740   61.6010 C.ar  567  TYR567      0.0417
    113  CE2      -12.6630  -48.1830   61.9990 C.ar  567  TYR567      0.0417
    114  CZ       -11.4740  -47.6500   62.4670 C.ar  567  TYR567      0.1957
    115  OH       -11.1100  -47.8170   63.7770 O.3   567  TYR567     -0.2866
    116  N         -9.1140  -52.2180   59.1660 N.3   571  LEU571     -0.1245
    117  CA        -9.3290  -53.0930   60.3280 C.3   571  LEU571      0.1561
    118  C         -9.0270  -54.5350   59.9620 C.2   571  LEU571      0.2260
    119  O         -8.5350  -55.2840   60.7970 O.2   571  LEU571     -0.2867
    120  CB       -10.7800  -53.0060   60.8360 C.3   571  LEU571      0.0270
    121  CG       -11.1760  -51.7410   61.6010 C.3   571  LEU571      0.0019
    122  CD1      -12.6510  -51.7610   61.9080 C.3   571  LEU571      0.0001
    123  CD2      -10.3680  -51.5720   62.8800 C.3   571  LEU571      0.0001
@<TRIPOS>BOND
     1   104   105    1
     2   105   106    1
     3   105   108    1
     4   106   107    2
     5   108   109    1
     6    32    31    2
     7   116   117    1
     8   109   110   ar
     9   109   111   ar
    10   118   117    1
    11   118   119    2
    12    31    30    1
    13    36    35   ar
    14   110   112   ar
    15   117   120    1
    16   111   113   ar
    17    33    30    1
    18    33    34    1
    19   120   121    1
    20    30    29    1
    21    35    34    1
    22    35    37   ar
    23   121   122    1
    24   121   123    1
    25   112   114   ar
    26   113   114   ar
    27   114   115    1
    28    38    39    1
    29    23    24   ar
    30    23    21   ar
    31    28    27    2
    32    41    40    2
    33    24    22   ar
    34    39    42    1
    35    39    40    1
    36    21    20   ar
    37    42    43    1
    38    27    26    1
    39    96    97    1
    40    40    46   am
    41    18    17    2
    42    97    98    1
    43    97   100    1
    44    22    20   ar
    45    99    98    2
    46    20    19    1
    47   103   101    1
    48    43    44    1
    49    43    45    1
    50    52    50    1
    51    26    25    1
    52    46    47    1
    53   101   100    1
    54   101   102    1
    55    17    16    1
    56    47    50    1
    57    47    48    1
    58    19    16    1
    59    16    15    1
    60    50    51    1
    61    14    13    2
    62     9    10   ar
    63     9     7   ar
    64    48    53   am
    65    48    49    2
    66    10     8   ar
    67    53    54    1
    68    15    13   am
    69    13    12    1
    70     7     6   ar
    71    56    55    2
    72    54    55    1
    73     8     6   ar
    74     4     3    2
    75    55    57   am
    76     6     5    1
    77    12    11    1
    78     3     2    1
    79    57    58    1
    80     5     2    1
    81     2     1    1
    82    95    93    1
    83    58    59    1
    84    91    90    2
    85    90    89    1
    86    93    92    1
    87    59    61   am
    88    59    60    2
    89    61    62    1
    90    64    63    2
    91    92    89    1
    92    92    94    1
    93    69    67   am
    94    89    88    1
    95    66    67    1
    96    66    65    1
    97    63    62    1
    98    63    70   am
    99    62    65    1
   100    67    68    2
   101    77    76    1
   102    77    78    1
   103    76    75    1
   104    75    74    1
   105    74    71    1
   106    70    71    1
   107    71    72    1
   108    86    85   ar
   109    85    87   ar
   110    85    84    1
   111    84    83    2
   112    79    72   am
   113    79    80    1
   114    72    73    2
   115    83    80    1
   116    80    81    1
   117    82    81    2
