@<TRIPOS>MOLECULE
tmp/4pf8A00.pdb
 128 119 0 0 0
SMALL
GASTEIGER

@<TRIPOS>ATOM
      1  N          1.4460   12.4950    5.0750 N.3     7  ILE7       -0.1231
      2  CA         0.0950   12.8870    5.4300 C.3     7  ILE7        0.1692
      3  C         -0.9070   12.6970    4.2870 C.2     7  ILE7        0.2592
      4  O         -2.1070   12.6230    4.5120 O.2     7  ILE7       -0.2718
      5  CB         0.0790   14.3530    5.9110 C.3     7  ILE7        0.0266
      6  CG1       -1.1260   14.6530    6.8000 C.3     7  ILE7        0.0019
      7  CG2        0.1540   15.3230    4.7330 C.3     7  ILE7        0.0020
      8  CD1       -0.9990   16.0210    7.4930 C.3     7  ILE7        0.0001
      9  N         -0.4010   12.6260    3.0570 N.am    8  HIS8       -0.1976
     10  CA        -1.2600   12.6780    1.8790 C.3     8  HIS8        0.1656
     11  C         -1.7970   11.3640    1.3840 C.2     8  HIS8        0.2291
     12  O         -1.3000   10.3000    1.7580 O.2     8  HIS8       -0.2864
     13  CB        -0.4860   13.3470    0.7690 C.3     8  HIS8        0.0771
     14  CG        -0.2650   14.7910    1.0170 C.ar    8  HIS8        0.0820
     15  ND1       -1.2960   15.7050    0.9970 N.ar    8  HIS8       -0.2267
     16  CD2        0.8500   15.4770    1.3300 C.ar    8  HIS8        0.1154
     17  CE1       -0.8100   16.9060    1.2640 C.ar    8  HIS8        0.1986
     18  NE2        0.4840   16.7880    1.4850 N.ar    8  HIS8       -0.2212
     19  N         -0.5870   11.3210   -5.0380 N.3    12  TYR12      -0.1241
     20  CA        -0.2760   12.7210   -4.7020 C.3    12  TYR12       0.1605
     21  C          1.2340   12.8940   -4.9570 C.2    12  TYR12       0.2264
     22  O          1.9970   11.9550   -4.7760 O.2    12  TYR12      -0.2867
     23  CB        -0.6170   12.9960   -3.2340 C.3    12  TYR12       0.0534
     24  CG        -0.7240   14.4630   -2.8820 C.ar   12  TYR12      -0.0201
     25  CD1       -1.8860   15.1650   -3.1590 C.ar   12  TYR12      -0.0009
     26  CD2        0.3090   15.1290   -2.2500 C.ar   12  TYR12      -0.0009
     27  CE1       -2.0020   16.5100   -2.8370 C.ar   12  TYR12       0.0417
     28  CE2        0.2060   16.4840   -1.9270 C.ar   12  TYR12       0.0417
     29  CZ        -0.9650   17.1660   -2.2250 C.ar   12  TYR12       0.1957
     30  OH        -1.0770   18.5100   -1.8720 O.3    12  TYR12      -0.2866
     31  N          0.7100   15.4880   12.0810 N.3    44  GLN44      -0.1245
     32  CA         1.9910   15.9930   11.6830 C.3    44  GLN44       0.1566
     33  C          2.8990   16.4090   12.8570 C.2    44  GLN44       0.2260
     34  O          4.0820   16.0710   12.8560 O.2    44  GLN44      -0.2867
     35  CB         1.8480   17.1060   10.6180 C.3    44  GLN44       0.0367
     36  CG         3.1880   17.5430   10.0760 C.3    44  GLN44       0.0905
     37  CD         3.1710   18.0050    8.6180 C.2    44  GLN44       0.2608
     38  OE1        4.1820   17.8970    7.9270 O.2    44  GLN44      -0.2717
     39  NE2        2.0450   18.4980    8.1490 N.am   44  GLN44      -0.0878
     40  N          8.0790   13.3170    4.7780 N.3    59  VAL59      -0.1245
     41  CA         7.9960   14.6520    4.2060 C.3    59  VAL59       0.1561
     42  C          7.0630   15.4450    5.0970 C.2    59  VAL59       0.2260
     43  O          5.9030   15.0600    5.2910 O.2    59  VAL59      -0.2867
     44  CB         7.4870   14.6610    2.7720 C.3    59  VAL59       0.0252
     45  CG1        7.2100   16.0840    2.3090 C.3    59  VAL59       0.0019
     46  CG2        8.5020   13.9920    1.8450 C.3    59  VAL59       0.0019
     47  N          5.6070   19.3830    6.1540 N.3    61  SER61      -0.1217
     48  CA         5.4870   20.8130    5.9370 C.3    61  SER61       0.1889
     49  C          6.3170   21.4980    7.0040 C.2    61  SER61       0.2288
     50  O          6.2860   21.0940    8.1810 O.2    61  SER61      -0.2866
     51  CB         4.0340   21.2180    6.0850 C.3    61  SER61       0.2089
     52  OG         3.8450   22.6290    6.0210 O.3    61  SER61      -0.2183
     53  N          4.0910   23.1810   10.6090 N.3    64  PRO64      -0.2116
     54  CA         4.0140   22.6570   11.9780 C.3    64  PRO64       0.1372
     55  C          5.3820   22.4370   12.6280 C.2    64  PRO64       0.2244
     56  O          5.4760   22.1780   13.8300 O.2    64  PRO64      -0.2868
     57  CB         3.2880   21.3140   11.8050 C.3    64  PRO64       0.0268
     58  CG         2.6480   21.3690   10.4320 C.3    64  PRO64       0.0207
     59  CD         3.5500   22.2430    9.6100 C.3    64  PRO64       0.0892
     60  N          5.0240   22.8020   -2.2530 N.3   113  ALA113     -0.1245
     61  CA         3.6270   22.7400   -1.8440 C.3   113  ALA113      0.1562
     62  C          2.8800   23.9830   -2.3250 C.2   113  ALA113      0.2260
     63  O          1.8430   24.3630   -1.7680 O.2   113  ALA113     -0.2867
     64  CB         3.4970   22.5830   -0.3490 C.3   113  ALA113      0.0290
     65  N         -0.7910   28.6570   -0.5350 N.3   116  ARG116     -0.1245
     66  CA        -2.0410   28.3700    0.1450 C.3   116  ARG116      0.1563
     67  C         -3.0270   29.5100   -0.0260 C.2   116  ARG116      0.2260
     68  O         -2.6390   30.6670    0.0780 O.2   116  ARG116     -0.2867
     69  CB        -1.7790   28.1230    1.6250 C.3   116  ARG116      0.0307
     70  CG        -0.7990   26.9890    1.8730 C.3   116  ARG116      0.0489
     71  CD        -0.3890   26.8840    3.3470 C.3   116  ARG116      0.2205
     72  NE        -1.4450   26.4370    4.2450 N.pl3 116  ARG116     -0.0865
     73  CZ        -1.6640   25.1690    4.6110 C.cat 116  ARG116      0.5346
     74  NH1       -0.9180   24.1880    4.1350 N.pl3 116  ARG116      0.1354
     75  NH2       -2.6170   24.8750    5.4720 N.pl3 116  ARG116      0.1354
     76  N        -10.1240   26.9950   10.0200 N.3   136  ARG136     -0.1245
     77  CA        -9.1460   26.0470   10.5500 C.3   136  ARG136      0.1563
     78  C         -7.7630   26.4780   10.0840 C.2   136  ARG136      0.2260
     79  O         -7.5910   26.9070    8.9470 O.2   136  ARG136     -0.2867
     80  CB        -9.4210   24.6370   10.0500 C.3   136  ARG136      0.0307
     81  CG        -8.3520   23.6380   10.4100 C.3   136  ARG136      0.0489
     82  CD        -7.2910   23.5320    9.3130 C.3   136  ARG136      0.2205
     83  NE        -6.2630   22.5560    9.6670 N.pl3 136  ARG136     -0.0865
     84  CZ        -5.2430   22.2260    8.8790 C.cat 136  ARG136      0.5346
     85  NH1       -5.0890   22.7760    7.6800 N.pl3 136  ARG136      0.1354
     86  NH2       -4.3660   21.3410    9.2910 N.pl3 136  ARG136      0.1354
     87  N         -4.9170   18.0500   10.0810 N.3   155  PHE155     -0.1241
     88  CA        -5.3790   18.0350    8.6900 C.3   155  PHE155      0.1605
     89  C         -6.4720   16.9950    8.4350 C.2   155  PHE155      0.2264
     90  O         -7.4270   17.2700    7.7320 O.2   155  PHE155     -0.2867
     91  CB        -4.1710   17.7860    7.7790 C.3   155  PHE155      0.0534
     92  CG        -4.4090   17.9950    6.3090 C.ar  155  PHE155     -0.0203
     93  CD1       -4.9410   19.1700    5.8190 C.ar  155  PHE155     -0.0042
     94  CD2       -3.9910   17.0420    5.4230 C.ar  155  PHE155     -0.0042
     95  CE1       -5.1080   19.3510    4.4650 C.ar  155  PHE155     -0.0003
     96  CE2       -4.1120   17.2360    4.0460 C.ar  155  PHE155     -0.0003
     97  CZ        -4.6820   18.3990    3.5800 C.ar  155  PHE155     -0.0000
     98  N         -5.3570   26.2900    1.8150 N.3   172  ASN172     -0.1225
     99  CA        -4.4200   25.3140    1.2980 C.3   172  ASN172      0.1785
    100  C         -4.1870   25.4960   -0.1810 C.2   172  ASN172      0.2597
    101  O         -4.8460   26.3040   -0.8230 O.2   172  ASN172     -0.2718
    102  CB        -4.8630   23.8860    1.6060 C.3   172  ASN172      0.1169
    103  CG        -3.7230   23.0500    2.1040 C.2   172  ASN172      0.2627
    104  OD1       -2.6830   22.9700    1.4370 O.2   172  ASN172     -0.2716
    105  ND2       -3.8800   22.4490    3.2930 N.am  172  ASN172     -0.0877
    106  N         -3.2240   24.7420   -0.7050 N.am  173  ASN173     -0.1974
    107  CA        -2.9210   24.7260   -2.1260 C.3   173  ASN173      0.1688
    108  C         -3.9600   23.8880   -2.8730 C.2   173  ASN173      0.2292
    109  O         -4.8060   23.2110   -2.2670 O.2   173  ASN173     -0.2864
    110  CB        -1.4850   24.2020   -2.3440 C.3   173  ASN173      0.1181
    111  CG        -1.2710   22.8080   -1.7370 C.2   173  ASN173      0.2629
    112  OD1       -2.0970   21.9200   -1.9250 O.2   173  ASN173     -0.2716
    113  ND2       -0.1460   22.6090   -1.0400 N.am  173  ASN173     -0.0877
    114  N         -4.1370   19.9330   -2.3130 N.3   176  SER176     -0.1217
    115  CA        -4.6450   19.5660   -0.9810 C.3   176  SER176      0.1889
    116  C         -6.1460   19.7710   -0.8810 C.2   176  SER176      0.2288
    117  O         -6.8540   18.9350   -0.3750 O.2   176  SER176     -0.2866
    118  CB        -3.9460   20.3760    0.1120 C.3   176  SER176      0.2089
    119  OG        -2.6120   19.9280    0.3300 O.3   176  SER176     -0.2183
    120  N          8.2110   22.0970    2.0180 N.3   199  GLU199     -0.1245
    121  CA         8.1610   20.8580    2.7670 C.3   199  GLU199      0.1567
    122  C          9.5250   20.2330    2.6910 C.2   199  GLU199      0.2260
    123  O         10.2930   20.5100    1.7630 O.2   199  GLU199     -0.2867
    124  CB         7.0870   19.9440    2.2030 C.3   199  GLU199      0.0388
    125  CG         5.8180   20.7330    2.0530 C.3   199  GLU199      0.1160
    126  CD         4.5750   19.9140    1.9990 C.2   199  GLU199      0.3649
    127  OE1        4.6150   18.7780    1.4820 O.co2 199  GLU199     -0.2457
    128  OE2        3.5310   20.4310    2.4790 O.co2 199  GLU199     -0.2457
@<TRIPOS>BOND
     1    19    20    1
     2    21    22    2
     3    21    20    1
     4    20    23    1
     5    23    24    1
     6    25    24   ar
     7    25    27   ar
     8    24    26   ar
     9   108   109    2
    10   108   107    1
    11    27    29   ar
    12   110   107    1
    13   110   111    1
    14    62    61    1
    15    62    63    2
    16   114   115    1
    17    60    61    1
    18    26    28   ar
    19    29    28   ar
    20    29    30    1
    21   107   106    1
    22   112   111    2
    23    61    64    1
    24   111   113   am
    25   115   116    1
    26   115   118    1
    27   116   117    2
    28   101   100    2
    29   106   100   am
    30    65    66    1
    31   100    99    1
    32    67    68    2
    33    67    66    1
    34   118   119    1
    35    66    69    1
    36    13    14    1
    37    13    10    1
    38    15    14   ar
    39    15    17   ar
    40    14    16   ar
    41    17    18   ar
    42    99   102    1
    43    99    98    1
    44    16    18   ar
    45    11    12    2
    46    11    10    1
    47   104   103    2
    48   127   126   ar
    49   102   103    1
    50    69    70    1
    51   123   122    2
    52    46    44    1
    53    70    71    1
    54    10     9    1
    55   126   125    1
    56   126   128   ar
    57   120   121    1
    58   125   124    1
    59   103   105   am
    60   124   121    1
    61    45    44    1
    62   122   121    1
    63    44    41    1
    64     9     3   am
    65    71    72    1
    66    97    96   ar
    67    97    95   ar
    68    96    94   ar
    69    74    73    1
    70    41    40    1
    71    41    42    1
    72    72    73    2
    73     3     4    2
    74     3     2    1
    75    95    93   ar
    76    73    75    1
    77     7     5    1
    78     1     2    1
    79    42    43    2
    80    94    92   ar
    81     2     5    1
    82    93    92   ar
    83     5     6    1
    84    48    51    1
    85    48    47    1
    86    48    49    1
    87    52    51    1
    88    92    91    1
    89     6     8    1
    90    49    50    2
    91    85    84    1
    92    90    89    2
    93    91    88    1
    94    38    37    2
    95    39    37   am
    96    89    88    1
    97    37    36    1
    98    88    87    1
    99    84    86    1
   100    84    83    2
   101    79    78    2
   102    82    83    1
   103    82    81    1
   104    59    58    1
   105    59    53    1
   106    76    77    1
   107    80    81    1
   108    80    77    1
   109    36    35    1
   110    78    77    1
   111    58    57    1
   112    53    54    1
   113    35    32    1
   114    32    31    1
   115    32    33    1
   116    57    54    1
   117    54    55    1
   118    55    56    2
   119    34    33    2
