@<TRIPOS>MOLECULE
tmp/4pfaA01.pdb
 171 164 0 0 0
SMALL
GASTEIGER

@<TRIPOS>ATOM
      1  N         22.1470  -13.4530   -5.8650 N.3    53  TYR53      -0.1241
      2  CA        22.1200  -14.0010   -7.2160 C.3    53  TYR53       0.1605
      3  C         21.9620  -12.8840   -8.2410 C.2    53  TYR53       0.2264
      4  O         22.2330  -13.0690   -9.4300 O.2    53  TYR53      -0.2867
      5  CB        20.9690  -14.9970   -7.3550 C.3    53  TYR53       0.0534
      6  CG        20.9680  -16.0970   -6.3160 C.ar   53  TYR53      -0.0201
      7  CD1       21.3010  -17.4050   -6.6600 C.ar   53  TYR53      -0.0009
      8  CD2       20.6250  -15.8320   -4.9870 C.ar   53  TYR53      -0.0009
      9  CE1       21.2980  -18.4160   -5.7110 C.ar   53  TYR53       0.0417
     10  CE2       20.6210  -16.8350   -4.0310 C.ar   53  TYR53       0.0417
     11  CZ        20.9560  -18.1250   -4.3990 C.ar   53  TYR53       0.1957
     12  OH        20.9520  -19.1260   -3.4550 O.3    53  TYR53      -0.2866
     13  N         19.6960  -18.6790    4.9080 N.3   110  GLY110     -0.1210
     14  CA        20.0500  -20.0270    4.4550 C.3   110  GLY110      0.1956
     15  C         21.5430  -20.2950    4.4700 C.2   110  GLY110      0.2612
     16  O         21.9870  -21.3380    4.9510 O.2   110  GLY110     -0.2717
     17  N         22.3160  -19.3560    3.9290 N.am  111  THR111     -0.1952
     18  CA        23.7730  -19.4060    4.0290 C.3   111  THR111      0.1897
     19  C         24.2360  -18.5190    5.1800 C.2   111  THR111      0.2313
     20  O         23.5570  -17.5620    5.5510 O.2   111  THR111     -0.2863
     21  CB        24.4740  -19.0010    2.7110 C.3   111  THR111      0.1794
     22  OG1       25.8840  -19.2270    2.8310 O.3   111  THR111     -0.2208
     23  CG2       24.2200  -17.5230    2.3610 C.3   111  THR111      0.0378
     24  N         15.8820  -11.9870    5.5990 N.3   125  HIS125     -0.1226
     25  CA        14.8900  -12.6600    6.4170 C.3   125  HIS125      0.1752
     26  C         15.3120  -14.0860    6.6250 C.2   125  HIS125      0.2597
     27  O         16.1350  -14.6110    5.8720 O.2   125  HIS125     -0.2718
     28  CB        13.5410  -12.6140    5.7140 C.3   125  HIS125      0.0759
     29  CG        13.5870  -13.1180    4.2920 C.ar  125  HIS125      0.0818
     30  ND1       13.4780  -14.4240    3.9840 N.ar  125  HIS125     -0.2268
     31  CD2       13.7580  -12.4410    3.0860 C.ar  125  HIS125      0.1154
     32  CE1       13.5620  -14.5780    2.6510 C.ar  125  HIS125      0.1986
     33  NE2       13.7330  -13.3630    2.1020 N.ar  125  HIS125     -0.2212
     34  N         14.7450  -14.7350    7.6380 N.am  126  GLY126     -0.1942
     35  CA        15.1210  -16.1070    7.9610 C.3   126  GLY126      0.2014
     36  C         13.9920  -16.9960    8.4370 C.2   126  GLY126      0.2638
     37  O         12.8230  -16.6110    8.4080 O.2   126  GLY126     -0.2714
     38  N         14.3660  -18.1900    8.8880 N.am  127  LYS127     -0.1977
     39  CA        13.4380  -19.2150    9.3650 C.3   127  LYS127      0.1596
     40  C         12.5450  -18.7250   10.5130 C.2   127  LYS127      0.2287
     41  O         11.5480  -19.3690   10.8560 O.2   127  LYS127     -0.2864
     42  CB        14.2400  -20.4450    9.8010 C.3   127  LYS127      0.0298
     43  CG        13.4910  -21.7640    9.7490 C.3   127  LYS127      0.0038
     44  CD        14.4400  -22.9340    9.9490 C.3   127  LYS127      0.0206
     45  CE        13.6730  -24.2350   10.1320 C.3   127  LYS127      0.1093
     46  NZ        14.5660  -25.4240   10.2090 N.3   127  LYS127     -0.1314
     47  N          9.9790  -23.5070    8.8530 N.3   221  SER221     -0.1217
     48  CA        10.1270  -23.5720    7.3910 C.3   221  SER221      0.1889
     49  C          9.9020  -25.0060    6.9130 C.2   221  SER221      0.2288
     50  O          9.8750  -25.9360    7.7240 O.2   221  SER221     -0.2866
     51  CB        11.5040  -23.0790    6.9430 C.3   221  SER221      0.2089
     52  OG        12.5120  -24.0240    7.2510 O.3   221  SER221     -0.2183
     53  N         10.4090  -27.9570    3.3720 N.3   223  TRP223     -0.1241
     54  CA        10.6880  -28.4280    2.0180 C.3   223  TRP223      0.1605
     55  C          9.3960  -28.8840    1.4060 C.2   223  TRP223      0.2264
     56  O          8.6640  -29.6630    2.0130 O.2   223  TRP223     -0.2867
     57  CB        11.6680  -29.5970    2.0310 C.3   223  TRP223      0.0550
     58  CG        13.0660  -29.2660    2.4980 C.ar  223  TRP223      0.0003
     59  CD1       13.7000  -29.7080    3.6570 C.ar  223  TRP223      0.0946
     60  CD2       14.0650  -28.4260    1.8170 C.ar  223  TRP223      0.0152
     61  NE1       14.9750  -29.2090    3.7400 N.ar  223  TRP223     -0.2442
     62  CE2       15.2570  -28.4330    2.6710 C.ar  223  TRP223      0.0810
     63  CE3       14.0870  -27.6940    0.6390 C.ar  223  TRP223      0.0012
     64  CZ2       16.4030  -27.7310    2.3370 C.ar  223  TRP223      0.0191
     65  CZ3       15.2500  -26.9910    0.3130 C.ar  223  TRP223      0.0001
     66  CH2       16.3780  -27.0110    1.1430 C.ar  223  TRP223      0.0015
     67  N         19.3620  -26.1600   10.8790 N.3   293  TYR293     -0.1227
     68  CA        19.2590  -25.0010    9.9890 C.3   293  TYR293      0.1736
     69  C         20.0510  -25.1020    8.6840 C.2   293  TYR293      0.2595
     70  O         19.4880  -24.9010    7.6030 O.2   293  TYR293     -0.2718
     71  CB        19.6590  -23.7250   10.7400 C.3   293  TYR293      0.0548
     72  CG        19.0590  -22.4620   10.1710 C.ar  293  TYR293     -0.0200
     73  CD1       18.3300  -21.5940   10.9790 C.ar  293  TYR293     -0.0009
     74  CD2       19.2140  -22.1350    8.8230 C.ar  293  TYR293     -0.0009
     75  CE1       17.7760  -20.4340   10.4600 C.ar  293  TYR293      0.0417
     76  CE2       18.6610  -20.9850    8.2940 C.ar  293  TYR293      0.0417
     77  CZ        17.9460  -20.1380    9.1150 C.ar  293  TYR293      0.1957
     78  OH        17.4000  -18.9960    8.5820 O.3   293  TYR293     -0.2866
     79  N         21.3470  -25.3990    8.7860 N.am  294  HIS294     -0.1962
     80  CA        22.2360  -25.4160    7.6180 C.3   294  HIS294      0.1772
     81  C         22.5920  -26.8070    7.1140 C.2   294  HIS294      0.2462
     82  O         23.7470  -27.0300    6.7320 O.2   294  HIS294     -0.2730
     83  CB        23.5290  -24.6370    7.9160 C.3   294  HIS294      0.0785
     84  CG        23.3200  -23.1670    8.2420 C.ar  294  HIS294      0.0821
     85  ND1       22.8830  -22.2750    7.3340 N.ar  294  HIS294     -0.2267
     86  CD2       23.5440  -22.4490    9.4190 C.ar  294  HIS294      0.1154
     87  CE1       22.8110  -21.0540    7.9020 C.ar  294  HIS294      0.1986
     88  NE2       23.2160  -21.1620    9.1760 N.ar  294  HIS294     -0.2212
     89  N         21.6190  -27.7580    7.0770 N.am  295  PRO295     -0.2727
     90  CA        21.8990  -29.1630    6.7550 C.3   295  PRO295      0.1402
     91  C         23.1550  -29.4050    5.9180 C.2   295  PRO295      0.2269
     92  O         23.8440  -30.4050    6.1180 O.2   295  PRO295     -0.2865
     93  CB        20.6590  -29.5880    5.9560 C.3   295  PRO295      0.0296
     94  CG        19.5830  -28.6110    6.3220 C.3   295  PRO295      0.0237
     95  CD        20.1670  -27.5670    7.2310 C.3   295  PRO295      0.0939
     96  N         17.1120  -19.4530   -9.3990 N.3   300  GLN300     -0.1245
     97  CA        16.3090  -19.4210   -8.1920 C.3   300  GLN300      0.1566
     98  C         15.2880  -18.2750   -8.2670 C.2   300  GLN300      0.2260
     99  O         15.6350  -17.1290   -8.5860 O.2   300  GLN300     -0.2867
    100  CB        17.2290  -19.3560   -6.9600 C.3   300  GLN300      0.0367
    101  CG        16.7770  -18.4390   -5.8330 C.3   300  GLN300      0.0905
    102  CD        16.1360  -19.1760   -4.6720 C.2   300  GLN300      0.2608
    103  OE1       15.5170  -18.5610   -3.8020 O.2   300  GLN300     -0.2717
    104  NE2       16.2830  -20.4980   -4.6500 N.am  300  GLN300     -0.0878
    105  N         12.1730  -16.4000   -6.1060 N.3   302  GLN302     -0.1245
    106  CA        11.5470  -16.2250   -4.8050 C.3   302  GLN302      0.1566
    107  C         10.5280  -15.0990   -4.7990 C.2   302  GLN302      0.2260
    108  O         10.8230  -13.9610   -5.1910 O.2   302  GLN302     -0.2867
    109  CB        12.5940  -16.0050   -3.7120 C.3   302  GLN302      0.0367
    110  CG        11.9940  -15.7970   -2.3280 C.3   302  GLN302      0.0905
    111  CD        13.0290  -15.7580   -1.2270 C.2   302  GLN302      0.2608
    112  OE1       14.1830  -15.3870   -1.4470 O.2   302  GLN302     -0.2717
    113  NE2       12.6200  -16.1450   -0.0260 N.am  302  GLN302     -0.0878
    114  N         14.4820  -28.1250   -5.2800 N.3   329  LEU329     -0.1245
    115  CA        14.8440  -27.3840   -4.0720 C.3   329  LEU329      0.1561
    116  C         13.8080  -26.2970   -3.8000 C.2   329  LEU329      0.2260
    117  O         13.8940  -25.1940   -4.3500 O.2   329  LEU329     -0.2867
    118  CB        16.2320  -26.7430   -4.2170 C.3   329  LEU329      0.0270
    119  CG        17.4720  -27.5340   -4.6560 C.3   329  LEU329      0.0019
    120  CD1       17.5120  -27.7490   -6.1670 C.3   329  LEU329      0.0001
    121  CD2       18.7260  -26.7980   -4.2020 C.3   329  LEU329      0.0001
    122  N         11.6660  -24.0930   -0.8540 N.3   331  VAL331     -0.1245
    123  CA        11.4950  -23.6720    0.5360 C.3   331  VAL331      0.1561
    124  C         10.1770  -22.9250    0.7200 C.2   331  VAL331      0.2260
    125  O          9.8550  -22.0150   -0.0420 O.2   331  VAL331     -0.2867
    126  CB        12.6740  -22.8130    1.0460 C.3   331  VAL331      0.0252
    127  CG1       12.6470  -22.7280    2.5660 C.3   331  VAL331      0.0019
    128  CG2       14.0050  -23.3950    0.5900 C.3   331  VAL331      0.0019
    129  N          7.6760  -20.9190    3.5860 N.3   333  LYS333     -0.1245
    130  CA         7.5090  -20.2980    4.8880 C.3   333  LYS333      0.1561
    131  C          6.3330  -19.3270    4.8860 C.2   333  LYS333      0.2260
    132  O          5.9080  -18.8630    3.8290 O.2   333  LYS333     -0.2867
    133  CB         8.7910  -19.5810    5.3070 C.3   333  LYS333      0.0271
    134  CG         8.9640  -19.5430    6.8110 C.3   333  LYS333      0.0035
    135  CD         9.7770  -18.3520    7.2820 C.3   333  LYS333      0.0206
    136  CE         9.3020  -17.8970    8.6540 C.3   333  LYS333      0.1093
    137  NZ         8.9340  -19.0440    9.5310 N.3   333  LYS333     -0.1314
    138  N          5.7240  -15.7220    6.3150 N.3   335  PHE335     -0.1241
    139  CA         6.2630  -14.5080    6.9450 C.3   335  PHE335      0.1605
    140  C          5.2860  -13.9090    7.9530 C.2   335  PHE335      0.2264
    141  O          4.0760  -13.9240    7.7410 O.2   335  PHE335     -0.2867
    142  CB         6.5870  -13.4340    5.9000 C.3   335  PHE335      0.0534
    143  CG         7.8180  -13.7090    5.0730 C.ar  335  PHE335     -0.0203
    144  CD1        9.0100  -14.1110    5.6620 C.ar  335  PHE335     -0.0042
    145  CD2        7.7920  -13.5160    3.6990 C.ar  335  PHE335     -0.0042
    146  CE1       10.1410  -14.3460    4.8900 C.ar  335  PHE335     -0.0003
    147  CE2        8.9180  -13.7470    2.9230 C.ar  335  PHE335     -0.0003
    148  CZ        10.0940  -14.1630    3.5190 C.ar  335  PHE335     -0.0000
    149  N          5.6690  -17.2860    1.5070 N.3   351  ASN351     -0.1240
    150  CA         6.9760  -17.2530    0.8590 C.3   351  ASN351      0.1653
    151  C          7.3470  -18.5760    0.1910 C.2   351  ASN351      0.2266
    152  O          7.2680  -19.6450    0.8090 O.2   351  ASN351     -0.2867
    153  CB         8.0480  -16.8760    1.8790 C.3   351  ASN351      0.1155
    154  CG         9.4120  -16.6840    1.2500 C.2   351  ASN351      0.2627
    155  OD1        9.6170  -15.7750    0.4450 O.2   351  ASN351     -0.2716
    156  ND2       10.3610  -17.5280    1.6310 N.am  351  ASN351     -0.0877
    157  N         10.4040  -20.4480   -2.3900 N.3   353  CYS353     -0.1235
    158  CA        11.6990  -20.4640   -3.0580 C.3   353  CYS353      0.1677
    159  C         11.7540  -21.6480   -3.9740 C.2   353  CYS353      0.2270
    160  O         11.7340  -22.7910   -3.5220 O.2   353  CYS353     -0.2867
    161  CB        12.8380  -20.5710   -2.0480 C.3   353  CYS353      0.0956
    162  SG        13.0340  -19.0380   -1.2050 S.3   353  CYS353     -0.0801
    163  N         17.5140  -12.0980   -5.0570 N.3   384  LYS384     -0.1245
    164  CA        17.3740  -13.2320   -5.9710 C.3   384  LYS384      0.1561
    165  C         17.1800  -12.7990   -7.4250 C.2   384  LYS384      0.2260
    166  O         17.3490  -13.6050   -8.3420 O.2   384  LYS384     -0.2867
    167  CB        16.2010  -14.1250   -5.5480 C.3   384  LYS384      0.0271
    168  CG        16.2220  -14.5730   -4.0950 C.3   384  LYS384      0.0035
    169  CD        17.1420  -15.7630   -3.8810 C.3   384  LYS384      0.0206
    170  CE        17.3460  -16.0440   -2.3950 C.3   384  LYS384      0.1093
    171  NZ        17.8310  -17.4590   -2.1930 N.3   384  LYS384     -0.1314
@<TRIPOS>BOND
     1     4     3    2
     2    96    97    1
     3    99    98    2
     4   166   165    2
     5    98    97    1
     6     3     2    1
     7    97   100    1
     8   165   164    1
     9     5     2    1
    10     5     6    1
    11     2     1    1
    12   100   101    1
    13     7     6   ar
    14     7     9   ar
    15     6     8   ar
    16   120   119    1
    17   105   106    1
    18   164   167    1
    19   164   163    1
    20   101   102    1
    21     9    11   ar
    22   167   168    1
    23   114   115    1
    24   108   107    2
    25     8    10   ar
    26   106   107    1
    27   106   109    1
    28   102   104   am
    29   102   103    2
    30   119   118    1
    31   119   121    1
    32    11    10   ar
    33    11    12    1
    34   117   116    2
    35   118   115    1
    36   168   169    1
    37   115   116    1
    38   159   160    2
    39   159   158    1
    40   169   170    1
    41   109   110    1
    42   158   157    1
    43   158   161    1
    44   170   171    1
    45   110   111    1
    46   161   162    1
    47   112   111    2
    48   111   113   am
    49   122   123    1
    50   125   124    2
    51   151   152    2
    52   151   150    1
    53    65    63   ar
    54    65    66   ar
    55   155   154    2
    56   123   124    1
    57   123   126    1
    58   128   126    1
    59    63    60   ar
    60   150   149    1
    61   150   153    1
    62   126   127    1
    63    66    64   ar
    64   154   156   am
    65   154   153    1
    66    55    56    2
    67    55    54    1
    68    60    58   ar
    69    60    62   ar
    70    54    57    1
    71    54    53    1
    72    57    58    1
    73    33    32   ar
    74    33    31   ar
    75    64    62   ar
    76    23    21    1
    77    58    59   ar
    78    32    30   ar
    79    62    61   ar
    80    21    22    1
    81    21    18    1
    82   147   148   ar
    83   147   145   ar
    84    31    29   ar
    85   148   146   ar
    86   129   130    1
    87    59    61   ar
    88   145   143   ar
    89   132   131    2
    90    17    18    1
    91    17    15   am
    92    30    29   ar
    93    18    19    1
    94    29    28    1
    95    14    15    1
    96    14    13    1
    97    15    16    2
    98   131   130    1
    99   130   133    1
   100   146   144   ar
   101   143   144   ar
   102   143   142    1
   103    19    20    2
   104   133   134    1
   105    24    25    1
   106    28    25    1
   107    27    26    2
   108   142   139    1
   109    91    92    2
   110    91    90    1
   111    93    94    1
   112    93    90    1
   113   138   139    1
   114    94    95    1
   115    25    26    1
   116    26    34   am
   117    82    81    2
   118    90    89    1
   119   134   135    1
   120    49    48    1
   121    49    50    2
   122    51    52    1
   123    51    48    1
   124   139   140    1
   125    89    81   am
   126    89    95    1
   127    81    80    1
   128   135   136    1
   129    85    87   ar
   130    85    84   ar
   131    48    47    1
   132    70    69    2
   133    80    83    1
   134    80    79    1
   135    34    35    1
   136   141   140    2
   137    87    88   ar
   138    83    84    1
   139    35    36    1
   140    84    86   ar
   141    76    74   ar
   142    76    77   ar
   143    37    36    2
   144    36    38   am
   145    78    77    1
   146   136   137    1
   147    69    79   am
   148    69    68    1
   149    74    72   ar
   150    38    39    1
   151    77    75   ar
   152    88    86   ar
   153    39    42    1
   154    39    40    1
   155    43    42    1
   156    43    44    1
   157    44    45    1
   158    68    71    1
   159    68    67    1
   160    45    46    1
   161    72    71    1
   162    72    73   ar
   163    75    73   ar
   164    40    41    2
