@<TRIPOS>MOLECULE
tmp/4pfbA00.pdb
 139 134 0 0 0
SMALL
GASTEIGER

@<TRIPOS>ATOM
      1  N         18.6220   59.2480   50.8150 N.3     9  LYS9       -0.1231
      2  CA        19.0430   59.9520   52.0080 C.3     9  LYS9        0.1693
      3  C         17.8580   60.2710   52.9070 C.2     9  LYS9        0.2592
      4  O         17.9960   60.2850   54.1270 O.2     9  LYS9       -0.2718
      5  CB        19.7490   61.2460   51.6180 C.3     9  LYS9        0.0285
      6  CG        18.9020   62.1330   50.7470 C.3     9  LYS9        0.0035
      7  CD        19.6750   63.3250   50.2630 C.3     9  LYS9        0.0206
      8  CE        18.8930   64.0760   49.2090 C.3     9  LYS9        0.1093
      9  NZ        19.7220   65.0660   48.4810 N.3     9  LYS9       -0.1314
     10  N         16.7010   60.5190   52.2930 N.am   10  PHE10      -0.1962
     11  CA        15.5290   61.0540   52.9830 C.3    10  PHE10       0.1771
     12  C         15.0480   60.2000   54.1670 C.2    10  PHE10       0.2619
     13  O         14.9320   58.9740   54.0520 O.2    10  PHE10      -0.2715
     14  CB        14.3970   61.2950   51.9830 C.3    10  PHE10       0.0574
     15  CG        14.7080   62.3540   50.9740 C.ar   10  PHE10      -0.0200
     16  CD1       14.5710   63.6970   51.2920 C.ar   10  PHE10      -0.0042
     17  CD2       15.1460   62.0140   49.6940 C.ar   10  PHE10      -0.0042
     18  CE1       14.8730   64.6880   50.3610 C.ar   10  PHE10      -0.0003
     19  CE2       15.4600   63.0050   48.7480 C.ar   10  PHE10      -0.0003
     20  CZ        15.3200   64.3370   49.0850 C.ar   10  PHE10      -0.0000
     21  N         14.7870   60.8460   55.3060 N.am   11  VAL11      -0.1977
     22  CA        14.3120   60.1240   56.4810 C.3    11  VAL11       0.1596
     23  C         12.8490   59.8340   56.2390 C.2    11  VAL11       0.2287
     24  O         12.2470   60.4290   55.3390 O.2    11  VAL11      -0.2864
     25  CB        14.5180   60.8970   57.8310 C.3    11  VAL11       0.0276
     26  CG1       15.9400   61.3900   57.9510 C.3    11  VAL11       0.0022
     27  CG2       13.5140   62.0370   57.9910 C.3    11  VAL11       0.0022
     28  N         10.0890   62.6370   55.6910 N.3    14  GLU14      -0.1245
     29  CA        10.1130   63.5740   54.5640 C.3    14  GLU14       0.1567
     30  C          9.2230   63.1470   53.3970 C.2    14  GLU14       0.2260
     31  O          9.0540   61.9500   53.1340 O.2    14  GLU14      -0.2867
     32  CB        11.5400   63.8350   54.1050 C.3    14  GLU14       0.0388
     33  CG        12.3740   64.5770   55.1250 C.3    14  GLU14       0.1160
     34  CD        13.8050   64.7000   54.6820 C.2    14  GLU14       0.3649
     35  OE1       14.1200   65.6630   53.9480 O.co2  14  GLU14      -0.2457
     36  OE2       14.6160   63.8250   55.0520 O.co2  14  GLU14      -0.2457
     37  N         18.9270   60.6430   44.6710 N.3    65  ASP65      -0.1239
     38  CA        19.7370   61.7040   45.2840 C.3    65  ASP65       0.1674
     39  C         19.9180   62.8840   44.3160 C.2    65  ASP65       0.2266
     40  O         19.4550   62.8380   43.1790 O.2    65  ASP65      -0.2867
     41  CB        21.1000   61.1650   45.7480 C.3    65  ASP65       0.1410
     42  CG        21.5190   61.7210   47.1080 C.2    65  ASP65       0.3668
     43  OD1       21.2900   62.9290   47.3430 O.co2  65  ASP65      -0.2456
     44  OD2       22.0650   60.9530   47.9400 O.co2  65  ASP65      -0.2456
     45  N         24.9520   64.7630   41.6960 N.3    69  PHE69      -0.1241
     46  CA        25.7400   63.5320   41.6700 C.3    69  PHE69       0.1605
     47  C         25.8430   62.9520   40.2760 C.2    69  PHE69       0.2264
     48  O         26.7770   62.2120   39.9820 O.2    69  PHE69      -0.2867
     49  CB        25.2100   62.4920   42.6530 C.3    69  PHE69       0.0534
     50  CG        25.3310   62.9170   44.0790 C.ar   69  PHE69      -0.0203
     51  CD1       26.5760   63.0130   44.6800 C.ar   69  PHE69      -0.0042
     52  CD2       24.2110   63.2510   44.8140 C.ar   69  PHE69      -0.0042
     53  CE1       26.6990   63.4300   45.9970 C.ar   69  PHE69      -0.0003
     54  CE2       24.3300   63.6710   46.1260 C.ar   69  PHE69      -0.0003
     55  CZ        25.5800   63.7580   46.7160 C.ar   69  PHE69      -0.0000
     56  N         11.9910   69.1570   45.8300 N.3   122  PHE122     -0.1241
     57  CA        11.5730   69.2980   47.2180 C.3   122  PHE122      0.1605
     58  C         11.7040   70.7230   47.7560 C.2   122  PHE122      0.2264
     59  O         11.4190   70.9860   48.9180 O.2   122  PHE122     -0.2867
     60  CB        12.1870   68.2290   48.1470 C.3   122  PHE122      0.0534
     61  CG        13.6860   68.1500   48.1110 C.ar  122  PHE122     -0.0203
     62  CD1       14.3360   67.3700   47.1570 C.ar  122  PHE122     -0.0042
     63  CD2       14.4550   68.8100   49.0750 C.ar  122  PHE122     -0.0042
     64  CE1       15.7310   67.2810   47.1400 C.ar  122  PHE122     -0.0003
     65  CE2       15.8480   68.7230   49.0590 C.ar  122  PHE122     -0.0003
     66  CZ        16.4850   67.9630   48.0940 C.ar  122  PHE122     -0.0000
     67  N         16.2250   75.9950   48.5220 N.3   125  ARG125     -0.1245
     68  CA        17.0230   75.8820   49.7240 C.3   125  ARG125      0.1563
     69  C         17.4780   77.2490   50.2570 C.2   125  ARG125      0.2260
     70  O         17.8190   78.1710   49.4920 O.2   125  ARG125     -0.2867
     71  CB        18.1950   74.9350   49.4670 C.3   125  ARG125      0.0307
     72  CG        17.7360   73.5450   49.0330 C.3   125  ARG125      0.0489
     73  CD        18.8770   72.7080   48.4710 C.3   125  ARG125      0.2205
     74  NE        19.9090   72.4000   49.4630 N.pl3 125  ARG125     -0.0865
     75  CZ        20.1250   71.1890   49.9710 C.cat 125  ARG125      0.5346
     76  NH1       19.3840   70.1590   49.5770 N.pl3 125  ARG125      0.1354
     77  NH2       21.0960   71.0030   50.8540 N.pl3 125  ARG125      0.1354
     78  N         27.1140   73.5750   56.8160 N.3   145  ARG145     -0.1245
     79  CA        27.2190   72.2630   56.2180 C.3   145  ARG145      0.1563
     80  C         26.6730   72.3300   54.8090 C.2   145  ARG145      0.2260
     81  O         25.6340   72.9310   54.5730 O.2   145  ARG145     -0.2867
     82  CB        26.4720   71.2170   57.0530 C.3   145  ARG145      0.0307
     83  CG        26.3310   69.8550   56.3870 C.3   145  ARG145      0.0489
     84  CD        25.0930   69.7980   55.5040 C.3   145  ARG145      0.2205
     85  NE        25.0290   68.6080   54.6790 N.pl3 145  ARG145     -0.0865
     86  CZ        24.0320   68.3670   53.8440 C.cat 145  ARG145      0.5346
     87  NH1       24.0030   67.2570   53.1300 N.pl3 145  ARG145      0.1354
     88  NH2       23.0540   69.2470   53.7350 N.pl3 145  ARG145      0.1354
     89  N         26.0160   69.6700   51.1930 N.3   147  PRO147     -0.2116
     90  CA        26.1100   68.3210   50.6250 C.3   147  PRO147      0.1372
     91  C         27.4870   68.1280   50.0080 C.2   147  PRO147      0.2244
     92  O         28.1620   69.1060   49.6980 O.2   147  PRO147     -0.2868
     93  CB        25.0320   68.3250   49.5450 C.3   147  PRO147      0.0268
     94  CG        24.0310   69.3160   50.0340 C.3   147  PRO147      0.0207
     95  CD        24.8310   70.3940   50.7030 C.3   147  PRO147      0.0892
     96  N         27.7100   73.0880   45.5540 N.3   152  TYR152     -0.1241
     97  CA        27.2270   73.6100   46.8240 C.3   152  TYR152      0.1605
     98  C         28.3650   74.2680   47.5960 C.2   152  TYR152      0.2264
     99  O         28.1710   75.2900   48.2520 O.2   152  TYR152     -0.2867
    100  CB        26.5920   72.4890   47.6600 C.3   152  TYR152      0.0534
    101  CG        25.1570   72.1280   47.3090 C.ar  152  TYR152     -0.0201
    102  CD1       24.8600   71.2820   46.2370 C.ar  152  TYR152     -0.0009
    103  CD2       24.1030   72.6100   48.0660 C.ar  152  TYR152     -0.0009
    104  CE1       23.5450   70.9450   45.9330 C.ar  152  TYR152      0.0417
    105  CE2       22.7920   72.2750   47.7800 C.ar  152  TYR152      0.0417
    106  CZ        22.5140   71.4480   46.7190 C.ar  152  TYR152      0.1957
    107  OH        21.1980   71.1340   46.4450 O.3   152  TYR152     -0.2866
    108  N         27.4400   64.1900   54.3850 N.3   167  PRO167     -0.2102
    109  CA        26.0920   63.6530   54.1670 C.3   167  PRO167      0.1504
    110  C         25.1420   64.0940   55.2850 C.2   167  PRO167      0.2575
    111  O         25.5520   64.2920   56.4260 O.2   167  PRO167     -0.2718
    112  CB        26.2950   62.1330   54.2150 C.3   167  PRO167      0.0282
    113  CG        27.7430   61.9180   54.0550 C.3   167  PRO167      0.0208
    114  CD        28.4230   63.1210   54.6220 C.3   167  PRO167      0.0893
    115  N         23.8730   64.2470   54.9440 N.am  168  TYR168     -0.1977
    116  CA        22.9050   64.7840   55.8710 C.3   168  TYR168      0.1639
    117  C         22.8060   64.0730   57.2340 C.2   168  TYR168      0.2290
    118  O         22.7230   64.7430   58.2650 O.2   168  TYR168     -0.2864
    119  CB        21.5370   64.8930   55.2120 C.3   168  TYR168      0.0560
    120  CG        20.6870   65.9300   55.8760 C.ar  168  TYR168     -0.0198
    121  CD1       19.8910   65.6060   56.9790 C.ar  168  TYR168     -0.0009
    122  CD2       20.7030   67.2480   55.4330 C.ar  168  TYR168     -0.0009
    123  CE1       19.1190   66.5610   57.6020 C.ar  168  TYR168      0.0417
    124  CE2       19.9390   68.2070   56.0430 C.ar  168  TYR168      0.0417
    125  CZ        19.1520   67.8610   57.1300 C.ar  168  TYR168      0.1957
    126  OH        18.3890   68.8150   57.7420 O.3   168  TYR168     -0.2866
    127  N         12.5830   69.9470   54.0670 N.3   189  SER189     -0.1217
    128  CA        13.7310   69.3070   54.7100 C.3   189  SER189      0.1889
    129  C         13.8980   69.7680   56.1530 C.2   189  SER189      0.2288
    130  O         14.0910   68.9520   57.0640 O.2   189  SER189     -0.2866
    131  CB        15.0120   69.6240   53.9510 C.3   189  SER189      0.2089
    132  OG        15.0670   68.9080   52.7390 O.3   189  SER189     -0.2183
    133  N         13.1250   66.9780   58.7800 N.3   193  THR193     -0.1218
    134  CA        14.2340   66.3910   59.5280 C.3   193  THR193      0.1862
    135  C         14.3420   66.9980   60.9190 C.2   193  THR193      0.2287
    136  O         15.2550   66.6800   61.6680 O.2   193  THR193     -0.2866
    137  CB        15.5930   66.5370   58.7730 C.3   193  THR193      0.1770
    138  OG1       15.9510   67.9200   58.6340 O.3   193  THR193     -0.2211
    139  CG2       15.5200   65.8950   57.4000 C.3   193  THR193      0.0375
@<TRIPOS>BOND
     1    48    47    2
     2    47    46    1
     3    46    45    1
     4    46    49    1
     5    49    50    1
     6    40    39    2
     7    50    51   ar
     8    50    52   ar
     9    39    38    1
    10    37    38    1
    11    51    53   ar
    12    52    54   ar
    13    38    41    1
    14    96    97    1
    15    41    42    1
    16    56    57    1
    17   104   102   ar
    18   104   106   ar
    19    53    55   ar
    20    54    55   ar
    21   102   101   ar
    22   107   106    1
    23   106   105   ar
    24    97    98    1
    25    97   100    1
    26    42    43   ar
    27    42    44   ar
    28    64    62   ar
    29    64    66   ar
    30    62    61   ar
    31    57    58    1
    32    57    60    1
    33   101   100    1
    34   101   103   ar
    35    98    99    2
    36    58    59    2
    37   105   103   ar
    38    66    65   ar
    39    61    60    1
    40    61    63   ar
    41    73    72    1
    42    73    74    1
    43     9     8    1
    44    67    68    1
    45    19    20   ar
    46    19    17   ar
    47    72    71    1
    48    65    63   ar
    49    20    18   ar
    50     8     7    1
    51    74    75    2
    52    71    68    1
    53    70    69    2
    54    93    94    1
    55    93    90    1
    56    76    75    1
    57    17    15   ar
    58    92    91    2
    59    68    69    1
    60    75    77    1
    61    91    90    1
    62    94    95    1
    63     7     6    1
    64    18    16   ar
    65    90    89    1
    66    95    89    1
    67     6     5    1
    68     1     2    1
    69    15    16   ar
    70    15    14    1
    71     5     2    1
    72    14    11    1
    73     2     3    1
    74    10     3   am
    75    10    11    1
    76   132   131    1
    77     3     4    2
    78    11    12    1
    79    87    86    1
    80    31    30    2
    81    30    29    1
    82    88    86    1
    83    86    85    2
    84    35    34   ar
    85   131   128    1
    86    13    12    2
    87   113   112    1
    88   113   114    1
    89   127   128    1
    90    32    29    1
    91    32    33    1
    92   109   112    1
    93   109   108    1
    94   109   110    1
    95    12    21   am
    96   108   114    1
    97    29    28    1
    98    81    80    2
    99    85    84    1
   100    34    36   ar
   101    34    33    1
   102   128   129    1
   103    80    79    1
   104   115   110   am
   105   115   116    1
   106   119   116    1
   107   119   120    1
   108   110   111    2
   109    21    22    1
   110    24    23    2
   111   122   120   ar
   112   122   124   ar
   113    84    83    1
   114   116   117    1
   115   120   121   ar
   116   124   125   ar
   117   129   130    2
   118    79    78    1
   119    79    82    1
   120    23    22    1
   121    83    82    1
   122    22    25    1
   123   121   123   ar
   124   125   123   ar
   125   125   126    1
   126   117   118    2
   127   139   137    1
   128    25    26    1
   129    25    27    1
   130   138   137    1
   131   137   134    1
   132   133   134    1
   133   134   135    1
   134   135   136    2
