@<TRIPOS>MOLECULE
tmp/4pfdB01.pdb
 169 161 0 0 0
SMALL
GASTEIGER

@<TRIPOS>ATOM
      1  N          8.9440   14.4510   31.2760 N.3    54  TYR54      -0.1241
      2  CA         8.9710   13.2520   30.4480 C.3    54  TYR54       0.1605
      3  C          9.3350   13.5740   29.0020 C.2    54  TYR54       0.2264
      4  O          9.8440   12.7170   28.2800 O.2    54  TYR54      -0.2867
      5  CB         7.6270   12.5250   30.5130 C.3    54  TYR54       0.0534
      6  CG         7.3600   11.8650   31.8470 C.ar   54  TYR54      -0.0201
      7  CD1        7.8660   10.5960   32.1300 C.ar   54  TYR54      -0.0009
      8  CD2        6.6060   12.5080   32.8280 C.ar   54  TYR54      -0.0009
      9  CE1        7.6240    9.9840   33.3500 C.ar   54  TYR54       0.0417
     10  CE2        6.3580   11.9030   34.0510 C.ar   54  TYR54       0.0417
     11  CZ         6.8680   10.6420   34.3060 C.ar   54  TYR54       0.1957
     12  OH         6.6270   10.0370   35.5170 O.3    54  TYR54      -0.2866
     13  N          2.9320   21.3380   45.2920 N.3   109  LEU109     -0.1231
     14  CA         3.7960   20.1620   45.2320 C.3   109  LEU109      0.1678
     15  C          3.3080   19.1560   44.1890 C.2   109  LEU109      0.2434
     16  O          2.1380   18.7750   44.1960 O.2   109  LEU109     -0.2733
     17  CB         3.9060   19.4970   46.6070 C.3   109  LEU109      0.0284
     18  CG         4.7190   20.2270   47.6810 C.3   109  LEU109      0.0019
     19  CD1        4.3380   19.7280   49.0670 C.3   109  LEU109      0.0001
     20  CD2        6.2160   20.0790   47.4450 C.3   109  LEU109      0.0001
     21  N          4.2090   18.7220   43.2890 N.am  110  PRO110     -0.2718
     22  CA         3.8610   17.7430   42.2670 C.3   110  PRO110      0.1535
     23  C          3.9640   16.3130   42.8030 C.2   110  PRO110      0.2599
     24  O          4.2110   16.1210   43.9950 O.2   110  PRO110     -0.2715
     25  CB         4.9070   17.9980   41.1800 C.3   110  PRO110      0.0310
     26  CG         6.0900   18.5520   41.9000 C.3   110  PRO110      0.0237
     27  CD         5.6350   19.0900   43.2300 C.3   110  PRO110      0.0939
     28  N          3.7730   15.3260   41.9280 N.am  111  GLY111     -0.1955
     29  CA         3.8390   13.9090   42.3040 C.3   111  GLY111      0.1869
     30  C          5.1790   13.4650   42.8660 C.2   111  GLY111      0.2309
     31  O          5.2450   12.5220   43.6570 O.2   111  GLY111     -0.2863
     32  N          1.5040   21.9290   38.7740 N.3   126  HIS126     -0.1226
     33  CA         0.2800   21.8630   39.5600 C.3   126  HIS126      0.1752
     34  C          0.3270   20.7190   40.5310 C.2   126  HIS126      0.2597
     35  O          1.1050   19.7750   40.3600 O.2   126  HIS126     -0.2718
     36  CB        -0.9290   21.7270   38.6410 C.3   126  HIS126      0.0759
     37  CG        -0.8790   20.5120   37.7480 C.ar  126  HIS126      0.0818
     38  ND1       -0.3850   20.5530   36.4980 N.ar  126  HIS126     -0.2268
     39  CD2       -1.2730   19.1960   37.9720 C.ar  126  HIS126      0.1154
     40  CE1       -0.4630   19.3290   35.9460 C.ar  126  HIS126      0.1986
     41  NE2       -1.0070   18.5000   36.8490 N.ar  126  HIS126     -0.2212
     42  N         -0.5110   20.7940   41.5610 N.am  127  GLY127     -0.1942
     43  CA        -0.5880   19.7490   42.5710 C.3   127  GLY127      0.2014
     44  C         -2.0040   19.4010   42.9790 C.2   127  GLY127      0.2638
     45  O         -2.9710   19.8100   42.3320 O.2   127  GLY127     -0.2714
     46  N         -2.1120   18.6480   44.0700 N.am  128  LYS128     -0.1977
     47  CA        -3.3850   18.1660   44.6020 C.3   128  LYS128      0.1596
     48  C         -4.3160   19.3060   45.0320 C.2   128  LYS128      0.2287
     49  O         -5.5160   19.0990   45.2260 O.2   128  LYS128     -0.2864
     50  CB        -3.1120   17.2300   45.7830 C.3   128  LYS128      0.0298
     51  CG        -4.1990   16.2100   46.0690 C.3   128  LYS128      0.0038
     52  CD        -3.7660   15.2520   47.1660 C.3   128  LYS128      0.0206
     53  CE        -4.8910   14.3050   47.5480 C.3   128  LYS128      0.1093
     54  NZ        -4.4650   13.3180   48.5780 N.3   128  LYS128     -0.1314
     55  N         -7.5250   14.7030   45.1630 N.3   222  SER222     -0.1217
     56  CA        -7.2060   13.8920   43.9830 C.3   222  SER222      0.1889
     57  C         -7.8320   12.5050   44.1210 C.2   222  SER222      0.2288
     58  O         -8.2380   12.1070   45.2160 O.2   222  SER222     -0.2866
     59  CB        -5.6920   13.7810   43.7620 C.3   222  SER222      0.2089
     60  OG        -5.0920   12.9180   44.7110 O.3   222  SER222     -0.2183
     61  N         -7.6690    8.2000   42.6430 N.3   224  TRP224     -0.1241
     62  CA        -7.1610    7.0880   41.8480 C.3   224  TRP224      0.1605
     63  C         -8.2910    6.5100   41.0470 C.2   224  TRP224      0.2264
     64  O         -9.3430    6.1640   41.5880 O.2   224  TRP224     -0.2867
     65  CB        -6.4910    6.0350   42.7230 C.3   224  TRP224      0.0550
     66  CG        -5.1630    6.4870   43.2890 C.ar  224  TRP224      0.0003
     67  CD1       -4.9060    6.9700   44.5710 C.ar  224  TRP224      0.0946
     68  CD2       -3.8590    6.5230   42.6030 C.ar  224  TRP224      0.0152
     69  NE1       -3.5790    7.2860   44.7210 N.ar  224  TRP224     -0.2442
     70  CE2       -2.8950    7.0440   43.5820 C.ar  224  TRP224      0.0810
     71  CE3       -3.4110    6.1870   41.3280 C.ar  224  TRP224      0.0012
     72  CZ2       -1.5510    7.2110   43.2740 C.ar  224  TRP224      0.0191
     73  CZ3       -2.0520    6.3610   41.0300 C.ar  224  TRP224      0.0001
     74  CH2       -1.1470    6.8610   41.9810 C.ar  224  TRP224      0.0015
     75  N         -0.4210   10.9550   49.9160 N.3   277  TYR277     -0.1227
     76  CA        -0.2090   10.9450   48.4670 C.3   277  TYR277      0.1736
     77  C         -0.3620    9.5760   47.7900 C.2   277  TYR277      0.2595
     78  O         -0.6110    9.5130   46.5840 O.2   277  TYR277     -0.2718
     79  CB         1.1080   11.6460   48.1060 C.3   277  TYR277      0.0548
     80  CG         0.9760   13.1590   48.1020 C.ar  277  TYR277     -0.0200
     81  CD1        0.9500   13.8840   49.2940 C.ar  277  TYR277     -0.0009
     82  CD2        0.8550   13.8620   46.9070 C.ar  277  TYR277     -0.0009
     83  CE1        0.8170   15.2630   49.2930 C.ar  277  TYR277      0.0417
     84  CE2        0.7230   15.2430   46.8950 C.ar  277  TYR277      0.0417
     85  CZ         0.7050   15.9380   48.0910 C.ar  277  TYR277      0.1957
     86  OH         0.5750   17.3060   48.0940 O.3   277  TYR277     -0.2866
     87  N         -0.2120    8.5000   48.5680 N.am  278  HIS278     -0.1975
     88  CA        -0.6250    7.1350   48.1790 C.3   278  HIS278      0.1656
     89  C         -0.1020    6.0920   49.1270 C.2   278  HIS278      0.2291
     90  O         -0.7580    5.0780   49.3710 O.2   278  HIS278     -0.2864
     91  CB        -0.2680    6.7880   46.7270 C.3   278  HIS278      0.0771
     92  CG         1.1750    6.3850   46.5170 C.ar  278  HIS278      0.0820
     93  ND1        1.5800    5.1010   46.5470 N.ar  278  HIS278     -0.2267
     94  CD2        2.3100    7.1490   46.2480 C.ar  278  HIS278      0.1154
     95  CE1        2.9060    5.0440   46.3210 C.ar  278  HIS278      0.1986
     96  NE2        3.3520    6.2980   46.1370 N.ar  278  HIS278     -0.2212
     97  N          3.3340    8.0900   29.1400 N.3   283  GLN283     -0.1245
     98  CA         2.6100    8.9160   30.0950 C.3   283  GLN283      0.1566
     99  C          1.7710    9.9220   29.3240 C.2   283  GLN283      0.2260
    100  O          2.2810   10.6310   28.4530 O.2   283  GLN283     -0.2867
    101  CB         3.5840    9.6430   31.0290 C.3   283  GLN283      0.0367
    102  CG         4.7000    8.7700   31.5970 C.3   283  GLN283      0.0905
    103  CD         5.8060    8.4730   30.5920 C.2   283  GLN283      0.2608
    104  OE1        5.9790    9.1880   29.6020 O.2   283  GLN283     -0.2717
    105  NE2        6.5640    7.4120   30.8490 N.am  283  GLN283     -0.0878
    106  N         -1.2560   12.9340   29.7860 N.3   285  GLN285     -0.1245
    107  CA        -2.0620   13.8150   30.6240 C.3   285  GLN285      0.1566
    108  C         -2.7920   14.8630   29.7910 C.2   285  GLN285      0.2260
    109  O         -2.1850   15.5600   28.9750 O.2   285  GLN285     -0.2867
    110  CB        -1.2020   14.4850   31.7020 C.3   285  GLN285      0.0367
    111  CG        -1.9520   15.5060   32.5500 C.3   285  GLN285      0.0905
    112  CD        -1.2110   15.9100   33.8120 C.2   285  GLN285      0.2608
    113  OE1        0.0060   15.7540   33.9190 O.2   285  GLN285     -0.2717
    114  NE2       -1.9510   16.4300   34.7820 N.am  285  GLN285     -0.0878
    115  N         -2.2580    3.0000   36.5380 N.3   312  LEU312     -0.1245
    116  CA        -1.9290    4.1770   37.3370 C.3   312  LEU312      0.1561
    117  C         -2.6230    5.4120   36.7650 C.2   312  LEU312      0.2260
    118  O         -2.1130    6.0530   35.8420 O.2   312  LEU312     -0.2867
    119  CB        -0.4080    4.3790   37.3830 C.3   312  LEU312      0.0270
    120  CG         0.4630    3.1370   37.6220 C.3   312  LEU312      0.0019
    121  CD1        1.8560    3.3210   37.0360 C.3   312  LEU312      0.0001
    122  CD2        0.5390    2.7760   39.1000 C.3   312  LEU312      0.0001
    123  N         -4.4290    9.0710   37.6810 N.3   314  VAL314     -0.1245
    124  CA        -4.6880   10.1720   38.6120 C.3   314  VAL314      0.1561
    125  C         -5.7310   11.1320   38.0380 C.2   314  VAL314      0.2260
    126  O         -5.5210   11.7370   36.9860 O.2   314  VAL314     -0.2867
    127  CB        -3.3980   10.9430   38.9820 C.3   314  VAL314      0.0252
    128  CG1       -3.6890   12.0040   40.0360 C.3   314  VAL314      0.0019
    129  CG2       -2.3220    9.9890   39.4820 C.3   314  VAL314      0.0019
    130  N         -8.3750   14.4920   38.7140 N.3   316  LYS316     -0.1245
    131  CA        -8.5230   15.7310   39.4750 C.3   316  LYS316      0.1561
    132  C         -9.3340   16.7760   38.7080 C.2   316  LYS316      0.2260
    133  O         -9.2050   16.8990   37.4900 O.2   316  LYS316     -0.2867
    134  CB        -7.1450   16.2940   39.8520 C.3   316  LYS316      0.0271
    135  CG        -7.1610   17.7430   40.3050 C.3   316  LYS316      0.0035
    136  CD        -6.0120   18.0690   41.2380 C.3   316  LYS316      0.0206
    137  CE        -6.2940   19.3700   41.9720 C.3   316  LYS316      0.1093
    138  NZ        -7.5300   19.2700   42.7980 N.3   316  LYS316     -0.1314
    139  N         -9.0940   16.8560   34.7330 N.3   334  ASN334     -0.1240
    140  CA        -7.7090   16.4900   34.4740 C.3   334  ASN334      0.1653
    141  C         -7.4460   15.0330   34.8280 C.2   334  ASN334      0.2266
    142  O         -7.8000   14.5770   35.9190 O.2   334  ASN334     -0.2867
    143  CB        -6.7730   17.3910   35.2810 C.3   334  ASN334      0.1155
    144  CG        -5.3340   16.9110   35.2620 C.2   334  ASN334      0.2627
    145  OD1       -4.6320   17.0540   34.2620 O.2   334  ASN334     -0.2716
    146  ND2       -4.8850   16.3490   36.3780 N.am  334  ASN334     -0.0877
    147  N         -4.3240   11.7940   34.3550 N.3   336  CYS336     -0.1235
    148  CA        -3.0200   11.3020   33.9320 C.3   336  CYS336      0.1677
    149  C         -3.0480    9.7830   33.8670 C.2   336  CYS336      0.2270
    150  O         -3.3190    9.1110   34.8650 O.2   336  CYS336     -0.2867
    151  CB        -1.9180   11.7790   34.8810 C.3   336  CYS336      0.0956
    152  SG        -0.2670   11.1690   34.4650 S.3   336  CYS336     -0.0801
    153  N         -1.0750    6.0720   32.3830 N.3   338  ASP338     -0.1239
    154  CA         0.2200    5.4810   32.0800 C.3   338  ASP338      0.1674
    155  C          0.0250    4.2090   31.2570 C.2   338  ASP338      0.2266
    156  O         -0.3680    3.1680   31.7880 O.2   338  ASP338     -0.2867
    157  CB         0.9740    5.1770   33.3790 C.3   338  ASP338      0.1410
    158  CG         2.4660    5.4400   33.2710 C.2   338  ASP338      0.3668
    159  OD1        2.9940    5.5070   32.1400 O.co2 338  ASP338     -0.2456
    160  OD2        3.1150    5.5820   34.3290 O.co2 338  ASP338     -0.2456
    161  N          4.7270   16.2340   29.8390 N.3   367  LYS367     -0.1245
    162  CA         4.4340   14.8310   29.5410 C.3   367  LYS367      0.1561
    163  C          4.6280   14.5000   28.0620 C.2   367  LYS367      0.2260
    164  O          4.5050   13.3400   27.6590 O.2   367  LYS367     -0.2867
    165  CB         2.9930   14.4870   29.9430 C.3   367  LYS367      0.0271
    166  CG         2.6460   14.7300   31.4030 C.3   367  LYS367      0.0035
    167  CD         3.3140   13.7170   32.3170 C.3   367  LYS367      0.0206
    168  CE         3.0030   14.0080   33.7740 C.3   367  LYS367      0.1093
    169  NZ         1.6430   13.5370   34.1590 N.3   367  LYS367     -0.1314
@<TRIPOS>BOND
     1   164   163    2
     2   163   162    1
     3     4     3    2
     4   100    99    2
     5   109   108    2
     6     3     2    1
     7    97    98    1
     8    99    98    1
     9   162   161    1
    10   162   165    1
    11   104   103    2
    12   106   107    1
    13   108   107    1
    14   165   166    1
    15    98   101    1
    16     2     5    1
    17     2     1    1
    18     5     6    1
    19   103   105   am
    20   103   102    1
    21   107   110    1
    22   101   102    1
    23   155   156    2
    24   155   154    1
    25   166   167    1
    26   110   111    1
    27     6     7   ar
    28     6     8   ar
    29   154   153    1
    30   154   157    1
    31     7     9   ar
    32   159   158   ar
    33   167   168    1
    34   111   112    1
    35     8    10   ar
    36   158   157    1
    37   158   160   ar
    38     9    11   ar
    39   168   169    1
    40   112   113    2
    41   112   114   am
    42   149   148    1
    43   149   150    2
    44   148   147    1
    45   148   151    1
    46    10    11   ar
    47   145   144    2
    48    11    12    1
    49   152   151    1
    50   140   139    1
    51   140   141    1
    52   140   143    1
    53   141   142    2
    54   144   143    1
    55   144   146   am
    56   118   117    2
    57    40    38   ar
    58    40    41   ar
    59    38    37   ar
    60   115   116    1
    61   117   116    1
    62    41    39   ar
    63   126   125    2
    64   121   120    1
    65   116   119    1
    66   119   120    1
    67   133   132    2
    68   120   122    1
    69   123   124    1
    70    37    39   ar
    71    37    36    1
    72   125   124    1
    73   124   127    1
    74    36    33    1
    75   132   131    1
    76   130   131    1
    77    32    33    1
    78   127   129    1
    79   127   128    1
    80   131   134    1
    81    33    34    1
    82   134   135    1
    83   135   136    1
    84    35    34    2
    85    34    42   am
    86    73    71   ar
    87    73    74   ar
    88    63    64    2
    89    63    62    1
    90    25    26    1
    91    25    22    1
    92   136   137    1
    93    71    68   ar
    94    42    43    1
    95    62    61    1
    96    62    65    1
    97    26    27    1
    98    28    29    1
    99    28    23   am
   100   137   138    1
   101    74    72   ar
   102    22    23    1
   103    22    21    1
   104    29    30    1
   105    45    44    2
   106    43    44    1
   107    68    66   ar
   108    68    70   ar
   109    65    66    1
   110    23    24    2
   111    30    31    2
   112    44    46   am
   113    27    21    1
   114    72    70   ar
   115    66    67   ar
   116    21    15   am
   117    70    69   ar
   118    59    56    1
   119    59    60    1
   120    56    57    1
   121    56    55    1
   122    46    47    1
   123    57    58    2
   124    15    16    2
   125    15    14    1
   126    67    69   ar
   127    47    48    1
   128    47    50    1
   129    48    49    2
   130    14    13    1
   131    14    17    1
   132    50    51    1
   133    51    52    1
   134    96    94   ar
   135    96    95   ar
   136    94    92   ar
   137    95    93   ar
   138    92    93   ar
   139    92    91    1
   140    78    77    2
   141    17    18    1
   142    91    88    1
   143    84    82   ar
   144    84    85   ar
   145    82    80   ar
   146    52    53    1
   147    20    18    1
   148    53    54    1
   149    18    19    1
   150    77    76    1
   151    77    87   am
   152    85    86    1
   153    85    83   ar
   154    80    79    1
   155    80    81   ar
   156    79    76    1
   157    88    87    1
   158    88    89    1
   159    76    75    1
   160    89    90    2
   161    83    81   ar
