@<TRIPOS>MOLECULE
tmp/4pfdA01.pdb
 189 179 0 0 0
SMALL
GASTEIGER

@<TRIPOS>ATOM
      1  N         19.9580  -17.0170    1.8850 N.3    54  TYR54      -0.1241
      2  CA        19.9820  -17.8480    0.6870 C.3    54  TYR54       0.1605
      3  C         20.3950  -17.0750   -0.5620 C.2    54  TYR54       0.2264
      4  O         21.0000  -17.6420   -1.4740 O.2    54  TYR54      -0.2867
      5  CB        18.6220  -18.5180    0.4740 C.3    54  TYR54       0.0534
      6  CG        18.3300  -19.6140    1.4710 C.ar   54  TYR54      -0.0201
      7  CD1       17.6670  -19.3400    2.6680 C.ar   54  TYR54      -0.0009
      8  CD2       18.7250  -20.9280    1.2230 C.ar   54  TYR54      -0.0009
      9  CE1       17.4020  -20.3450    3.5860 C.ar   54  TYR54       0.0417
     10  CE2       18.4640  -21.9390    2.1330 C.ar   54  TYR54       0.0417
     11  CZ        17.8030  -21.6430    3.3110 C.ar   54  TYR54       0.1957
     12  OH        17.5450  -22.6460    4.2160 O.3    54  TYR54      -0.2866
     13  N         14.2700  -15.6950   17.7520 N.3   109  LEU109     -0.1231
     14  CA        15.1090  -16.7820   17.2600 C.3   109  LEU109      0.1678
     15  C         14.5720  -17.3290   15.9400 C.2   109  LEU109      0.2434
     16  O         13.3860  -17.6340   15.8350 O.2   109  LEU109     -0.2733
     17  CB        15.2020  -17.9090   18.2960 C.3   109  LEU109      0.0284
     18  CG        16.0690  -17.6840   19.5380 C.3   109  LEU109      0.0019
     19  CD1       15.7040  -18.6800   20.6280 C.3   109  LEU109      0.0001
     20  CD2       17.5530  -17.7740   19.2050 C.3   109  LEU109      0.0001
     21  N         15.4420  -17.4480   14.9210 N.am  110  PRO110     -0.2718
     22  CA        15.0230  -18.0010   13.6390 C.3   110  PRO110      0.1535
     23  C         15.1760  -19.5250   13.5910 C.2   110  PRO110      0.2599
     24  O         15.5170  -20.1430   14.6040 O.2   110  PRO110     -0.2715
     25  CB        15.9700  -17.3210   12.6470 C.3   110  PRO110      0.0310
     26  CG        17.1930  -16.9860   13.4380 C.3   110  PRO110      0.0237
     27  CD        16.8600  -17.0480   14.9040 C.3   110  PRO110      0.0939
     28  N         14.9240  -20.1140   12.4220 N.am  111  GLY111     -0.1955
     29  CA        15.0090  -21.5650   12.2230 C.3   111  GLY111      0.1869
     30  C         16.3790  -22.1680   12.4810 C.2   111  GLY111      0.2309
     31  O         16.5000  -23.3690   12.7270 O.2   111  GLY111     -0.2863
     32  N         12.7180  -12.7600   11.8120 N.3   126  HIS126     -0.1226
     33  CA        11.5210  -13.1110   12.5620 C.3   126  HIS126      0.1752
     34  C         11.6050  -14.5290   13.0420 C.2   126  HIS126      0.2597
     35  O         12.4200  -15.3170   12.5510 O.2   126  HIS126     -0.2718
     36  CB        10.2830  -12.9260   11.6920 C.3   126  HIS126      0.0759
     37  CG        10.2820  -13.7800   10.4480 C.ar  126  HIS126      0.0818
     38  ND1       10.7290  -13.3300    9.2630 N.ar  126  HIS126     -0.2268
     39  CD2        9.8800  -15.0980   10.2420 C.ar  126  HIS126      0.1154
     40  CE1       10.6140  -14.3040    8.3420 C.ar  126  HIS126      0.1986
     41  NE2       10.0930  -15.3860    8.9430 N.ar  126  HIS126     -0.2212
     42  N         10.7540  -14.8670   14.0040 N.am  127  GLY127     -0.1942
     43  CA        10.7060  -16.2120   14.5490 C.3   127  GLY127      0.2014
     44  C          9.2980  -16.6920   14.8260 C.2   127  GLY127      0.2638
     45  O          8.3210  -16.0980   14.3630 O.2   127  GLY127     -0.2714
     46  N          9.2130  -17.7720   15.5970 N.am  128  LYS128     -0.1977
     47  CA         7.9540  -18.4140   15.9670 C.3   128  LYS128      0.1596
     48  C          7.0580  -17.4870   16.7950 C.2   128  LYS128      0.2287
     49  O          5.8440  -17.6940   16.8760 O.2   128  LYS128     -0.2864
     50  CB         8.2630  -19.6950   16.7500 C.3   128  LYS128      0.0298
     51  CG         7.1550  -20.7320   16.7840 C.3   128  LYS128      0.0038
     52  CD         7.6750  -22.0460   17.3470 C.3   128  LYS128      0.0206
     53  CE         6.5770  -23.0950   17.4280 C.3   128  LYS128      0.1093
     54  NZ         7.0980  -24.4100   17.8910 N.3   128  LYS128     -0.1314
     55  N          3.9200  -21.7870   15.2660 N.3   222  SER222     -0.1217
     56  CA         4.2640  -22.1010   13.8740 C.3   222  SER222      0.1889
     57  C          3.7450  -23.4850   13.4900 C.2   222  SER222      0.2288
     58  O          3.4410  -24.3060   14.3610 O.2   222  SER222     -0.2866
     59  CB         5.7730  -21.9940   13.6200 C.3   222  SER222      0.2089
     60  OG         6.4820  -23.0640   14.2200 O.3   222  SER222     -0.2183
     61  N          3.8150  -26.9000   10.4160 N.3   224  TRP224     -0.1241
     62  CA         4.2800  -27.6090    9.2310 C.3   224  TRP224      0.1605
     63  C          3.1100  -27.8100    8.3180 C.2   224  TRP224      0.2264
     64  O          2.0550  -28.2840    8.7380 O.2   224  TRP224     -0.2867
     65  CB         4.9280  -28.9380    9.6000 C.3   224  TRP224      0.0550
     66  CG         6.2520  -28.7800   10.3100 C.ar  224  TRP224      0.0003
     67  CD1        6.5050  -28.9010   11.6740 C.ar  224  TRP224      0.0946
     68  CD2        7.5570  -28.4570    9.7090 C.ar  224  TRP224      0.0152
     69  NE1        7.8330  -28.6860   11.9480 N.ar  224  TRP224     -0.2442
     70  CE2        8.5190  -28.4150   10.8170 C.ar  224  TRP224      0.0810
     71  CE3        8.0070  -28.2110    8.4150 C.ar  224  TRP224      0.0012
     72  CZ2        9.8630  -28.1350   10.6130 C.ar  224  TRP224      0.0191
     73  CZ3        9.3660  -27.9310    8.2230 C.ar  224  TRP224      0.0001
     74  CH2       10.2690  -27.8960    9.2960 C.ar  224  TRP224      0.0015
     75  N         11.2890  -26.9020   18.4910 N.3   286  TYR286     -0.1241
     76  CA        11.5440  -26.4790   17.1120 C.3   286  TYR286      0.1605
     77  C         11.7440  -27.6520   16.1470 C.2   286  TYR286      0.2264
     78  O         11.9010  -27.4500   14.9400 O.2   286  TYR286     -0.2867
     79  CB        12.7450  -25.5270   17.0600 C.3   286  TYR286      0.0534
     80  CG        12.4250  -24.1210   17.5200 C.ar  286  TYR286     -0.0201
     81  CD1       12.4220  -23.7910   18.8750 C.ar  286  TYR286     -0.0009
     82  CD2       12.1250  -23.1190   16.5990 C.ar  286  TYR286     -0.0009
     83  CE1       12.1260  -22.5060   19.2980 C.ar  286  TYR286      0.0417
     84  CE2       11.8300  -21.8290   17.0130 C.ar  286  TYR286      0.0417
     85  CZ        11.8330  -21.5290   18.3640 C.ar  286  TYR286      0.1957
     86  OH        11.5420  -20.2550   18.7920 O.3   286  TYR286     -0.2866
     87  N         11.4980  -30.7150   13.5950 N.3   288  PRO288     -0.2102
     88  CA        12.8620  -31.1870   13.3570 C.3   288  PRO288      0.1504
     89  C         13.7740  -30.1940   12.6200 C.2   288  PRO288      0.2575
     90  O         14.3470  -30.5330   11.5810 O.2   288  PRO288     -0.2718
     91  CB        12.6390  -32.4480   12.5100 C.3   288  PRO288      0.0282
     92  CG        11.3120  -32.2450   11.8400 C.3   288  PRO288      0.0208
     93  CD        10.6230  -31.0570   12.4610 C.3   288  PRO288      0.0893
     94  N         13.9120  -28.9860   13.1640 N.am  289  LEU289     -0.1980
     95  CA        14.8360  -27.9870   12.6110 C.3   289  LEU289      0.1596
     96  C         16.3000  -28.3020   12.9210 C.2   289  LEU289      0.2287
     97  O         17.2040  -27.8280   12.2270 O.2   289  LEU289     -0.2864
     98  CB        14.4770  -26.5810   13.1010 C.3   289  LEU289      0.0297
     99  CG        13.8260  -25.5820   12.1340 C.3   289  LEU289      0.0022
    100  CD1       13.0100  -26.2420   11.0300 C.3   289  LEU289      0.0001
    101  CD2       12.9710  -24.5980   12.9150 C.3   289  LEU289      0.0001
    102  N         17.5640  -31.2650   12.6300 N.3   291  MET291     -0.1245
    103  CA        17.9650  -32.2410   11.6190 C.3   291  MET291      0.1570
    104  C         17.8480  -31.6590   10.2130 C.2   291  MET291      0.2261
    105  O         18.5330  -30.6950    9.8700 O.2   291  MET291     -0.2867
    106  CB        17.1170  -33.5110   11.7340 C.3   291  MET291      0.0387
    107  CG        17.2990  -34.2680   13.0420 C.3   291  MET291      0.0595
    108  SD        16.0920  -35.5890   13.2650 S.3   291  MET291     -0.1393
    109  CE        16.5550  -36.2000   14.8840 C.3   291  MET291      0.0692
    110  N         21.7460  -27.7940    0.8690 N.3   295  PRO295     -0.2116
    111  CA        21.7640  -28.5890   -0.3600 C.3   295  PRO295      0.1372
    112  C         21.5370  -27.7400   -1.6090 C.2   295  PRO295      0.2244
    113  O         20.6430  -26.8890   -1.6300 O.2   295  PRO295     -0.2868
    114  CB        20.5970  -29.5710   -0.1690 C.3   295  PRO295      0.0268
    115  CG        20.2790  -29.5390    1.2890 C.3   295  PRO295      0.0207
    116  CD        20.6010  -28.1430    1.7260 C.3   295  PRO295      0.0892
    117  N         14.5410  -21.7660   -2.3890 N.3   300  GLN300     -0.1245
    118  CA        13.7720  -21.3110   -1.2380 C.3   300  GLN300      0.1566
    119  C         12.9230  -20.1100   -1.6210 C.2   300  GLN300      0.2260
    120  O         13.4200  -19.1500   -2.2140 O.2   300  GLN300     -0.2867
    121  CB        14.6980  -20.9500   -0.0750 C.3   300  GLN300      0.0367
    122  CG        15.2740  -22.1490    0.6620 C.3   300  GLN300      0.0905
    123  CD        14.2830  -22.8070    1.6080 C.2   300  GLN300      0.2608
    124  OE1       13.3050  -22.1940    2.0360 O.2   300  GLN300     -0.2717
    125  NE2       14.5420  -24.0640    1.9450 N.am  300  GLN300     -0.0878
    126  N          9.8720  -17.5680    0.0860 N.3   302  GLN302     -0.1245
    127  CA         9.0570  -17.1390    1.2170 C.3   302  GLN302      0.1566
    128  C          8.3080  -15.8510    0.9100 C.2   302  GLN302      0.2260
    129  O          8.8950  -14.8760    0.4390 O.2   302  GLN302     -0.2867
    130  CB         9.9110  -16.9700    2.4780 C.3   302  GLN302      0.0367
    131  CG         9.1150  -16.5490    3.7080 C.3   302  GLN302      0.0905
    132  CD         9.9150  -16.6040    4.9950 C.2   302  GLN302      0.2608
    133  OE1       11.0920  -16.9600    5.0000 O.2   302  GLN302     -0.2717
    134  NE2        9.2700  -16.2510    6.0990 N.am  302  GLN302     -0.0878
    135  N          8.7500  -29.5920    2.6150 N.3   329  LEU329     -0.1245
    136  CA         9.0070  -28.8710    3.8600 C.3   329  LEU329      0.1561
    137  C          8.5260  -27.4230    3.7790 C.2   329  LEU329      0.2260
    138  O          9.1640  -26.5750    3.1500 O.2   329  LEU329     -0.2867
    139  CB        10.4950  -28.9520    4.2280 C.3   329  LEU329      0.0270
    140  CG        11.0540  -30.3700    4.4110 C.3   329  LEU329      0.0019
    141  CD1       12.5430  -30.4250    4.1010 C.3   329  LEU329      0.0001
    142  CD2       10.7640  -30.9180    5.8030 C.3   329  LEU329      0.0001
    143  N          6.9540  -24.1400    6.0660 N.3   331  VAL331     -0.1245
    144  CA         6.6890  -23.5000    7.3540 C.3   331  VAL331      0.1561
    145  C          5.6400  -22.4050    7.1930 C.2   331  VAL331      0.2260
    146  O          5.7720  -21.5220    6.3450 O.2   331  VAL331     -0.2867
    147  CB         7.9690  -22.9250    8.0070 C.3   331  VAL331      0.0252
    148  CG1        7.6720  -22.4270    9.4150 C.3   331  VAL331      0.0019
    149  CG2        9.0690  -23.9740    8.0510 C.3   331  VAL331      0.0019
    150  N          3.0450  -19.5980    9.3500 N.3   333  LYS333     -0.1245
    151  CA         2.5940  -18.8880   10.5480 C.3   333  LYS333      0.1561
    152  C          1.8620  -17.5940   10.1930 C.2   333  LYS333      0.2260
    153  O          2.0190  -17.0570    9.0910 O.2   333  LYS333     -0.2867
    154  CB         3.7530  -18.6260   11.5300 C.3   333  LYS333      0.0271
    155  CG         4.5730  -17.3680   11.2740 C.3   333  LYS333      0.0035
    156  CD         5.4560  -17.0150   12.4660 C.3   333  LYS333      0.0206
    157  CE         4.7520  -16.1170   13.4770 C.3   333  LYS333      0.1093
    158  NZ         3.8630  -16.8540   14.4170 N.3   333  LYS333     -0.1314
    159  N          2.1070  -15.9910    6.3010 N.3   351  ASN351     -0.1240
    160  CA         3.4750  -16.2460    5.8900 C.3   351  ASN351      0.1653
    161  C          3.6800  -17.7250    5.5980 C.2   351  ASN351      0.2266
    162  O          3.2530  -18.5820    6.3730 O.2   351  ASN351     -0.2867
    163  CB         4.4360  -15.7850    6.9900 C.3   351  ASN351      0.1155
    164  CG         5.8770  -16.1800    6.7210 C.2   351  ASN351      0.2627
    165  OD1        6.5200  -15.6580    5.8100 O.2   351  ASN351     -0.2716
    166  ND2        6.3950  -17.0980    7.5280 N.am  351  ASN351     -0.0877
    167  N          6.9210  -20.3980    3.9210 N.3   353  CYS353     -0.1235
    168  CA         8.2110  -20.6540    3.3120 C.3   353  CYS353      0.1677
    169  C          8.1740  -22.0270    2.6550 C.2   353  CYS353      0.2270
    170  O          7.9790  -23.0410    3.3280 O.2   353  CYS353     -0.2867
    171  CB         9.3200  -20.5840    4.3610 C.3   353  CYS353      0.0956
    172  SG        10.9760  -20.8460    3.6920 S.3   353  CYS353     -0.0801
    173  N          9.9540  -24.8370   -0.3750 N.3   355  ASP355     -0.1239
    174  CA        11.2570  -25.2670   -0.8660 C.3   355  ASP355      0.1674
    175  C         11.1230  -26.1550   -2.1050 C.2   355  ASP355      0.2266
    176  O         10.8760  -27.3600   -1.9960 O.2   355  ASP355     -0.2867
    177  CB        12.0160  -25.9980    0.2470 C.3   355  ASP355      0.1410
    178  CG        13.5120  -26.0470    0.0040 C.2   355  ASP355      0.3668
    179  OD1       14.0550  -25.1150   -0.6280 O.co2 355  ASP355     -0.2456
    180  OD2       14.1540  -27.0150    0.4650 O.co2 355  ASP355     -0.2456
    181  N         15.8900  -14.6500    1.3160 N.3   384  LYS384     -0.1245
    182  CA        15.6460  -15.8650    0.5420 C.3   384  LYS384      0.1561
    183  C         15.6670  -15.6370   -0.9700 C.2   384  LYS384      0.2260
    184  O         15.5660  -16.5890   -1.7450 O.2   384  LYS384     -0.2867
    185  CB        14.3190  -16.5040    0.9560 C.3   384  LYS384      0.0271
    186  CG        14.3040  -16.9830    2.3940 C.3   384  LYS384      0.0035
    187  CD        13.4710  -18.2390    2.5480 C.3   384  LYS384      0.0206
    188  CE        13.9930  -19.0750    3.7010 C.3   384  LYS384      0.1093
    189  NZ        13.8970  -18.3720    5.0110 N.3   384  LYS384     -0.1314
@<TRIPOS>BOND
     1   117   118    1
     2   120   119    2
     3   175   176    2
     4   175   174    1
     5   184   183    2
     6   113   112    2
     7   119   118    1
     8   112   111    1
     9     4     3    2
    10   118   121    1
    11   183   182    1
    12   174   173    1
    13   174   177    1
    14   179   178   ar
    15     3     2    1
    16   111   114    1
    17   111   110    1
    18   114   115    1
    19   121   122    1
    20   178   177    1
    21   178   180   ar
    22   126   127    1
    23   129   128    2
    24     5     2    1
    25     5     6    1
    26   182   185    1
    27   182   181    1
    28   122   123    1
    29     2     1    1
    30   110   116    1
    31   128   127    1
    32   185   186    1
    33   127   130    1
    34     8     6   ar
    35     8    10   ar
    36   115   116    1
    37     6     7   ar
    38   123   125   am
    39   123   124    2
    40    10    11   ar
    41   186   187    1
    42   130   131    1
    43   187   188    1
    44   135   136    1
    45   169   168    1
    46   169   170    2
    47     7     9   ar
    48   138   137    2
    49    11     9   ar
    50    11    12    1
    51   168   167    1
    52   168   171    1
    53   172   171    1
    54   188   189    1
    55   131   132    1
    56   137   136    1
    57   136   139    1
    58   141   140    1
    59   139   140    1
    60   140   142    1
    61   132   133    2
    62   132   134   am
    63   161   160    1
    64   161   162    2
    65   165   164    2
    66   160   159    1
    67   160   163    1
    68   143   144    1
    69   146   145    2
    70   164   163    1
    71   164   166   am
    72   145   144    1
    73   144   147    1
    74   147   149    1
    75   147   148    1
    76    73    71   ar
    77    73    74   ar
    78    63    64    2
    79    63    62    1
    80    40    41   ar
    81    40    38   ar
    82    71    68   ar
    83    41    39   ar
    84   153   152    2
    85    62    65    1
    86    62    61    1
    87    38    37   ar
    88    74    72   ar
    89   150   151    1
    90    65    66    1
    91    68    66   ar
    92    68    70   ar
    93   105   104    2
    94   152   151    1
    95   104   103    1
    96    39    37   ar
    97    66    67   ar
    98    37    36    1
    99   151   154    1
   100    72    70   ar
   101    70    69   ar
   102   100    99    1
   103   155   154    1
   104   155   156    1
   105    90    89    2
   106   103   106    1
   107   103   102    1
   108    67    69   ar
   109    36    33    1
   110   106   107    1
   111    32    33    1
   112    92    93    1
   113    92    91    1
   114    99   101    1
   115    99    98    1
   116    29    28    1
   117    29    30    1
   118    97    96    2
   119    28    23   am
   120    93    87    1
   121   156   157    1
   122    30    31    2
   123    91    88    1
   124    35    34    2
   125    33    34    1
   126    95    96    1
   127    95    98    1
   128    95    94    1
   129    89    94   am
   130    89    88    1
   131    25    26    1
   132    25    22    1
   133    34    42   am
   134   107   108    1
   135   108   109    1
   136    88    87    1
   137    26    27    1
   138   157   158    1
   139    57    56    1
   140    57    58    2
   141    23    22    1
   142    23    24    2
   143    59    56    1
   144    59    60    1
   145    22    21    1
   146    56    55    1
   147    42    43    1
   148    45    44    2
   149    43    44    1
   150    44    46   am
   151    27    21    1
   152    21    15   am
   153    78    77    2
   154    46    47    1
   155    16    15    2
   156    15    14    1
   157    47    50    1
   158    47    48    1
   159    77    76    1
   160    82    84   ar
   161    82    80   ar
   162    50    51    1
   163    51    52    1
   164    48    49    2
   165    84    85   ar
   166    79    76    1
   167    79    80    1
   168    76    75    1
   169    14    13    1
   170    14    17    1
   171    52    53    1
   172    53    54    1
   173    80    81   ar
   174    17    18    1
   175    85    86    1
   176    85    83   ar
   177    81    83   ar
   178    20    18    1
   179    18    19    1
