@<TRIPOS>MOLECULE
tmp/4pfkA02.pdb
 96 91 0 0 0
SMALL
GASTEIGER

@<TRIPOS>ATOM
      1  N          0.8020   11.5510   10.9910 N.3   154  ARG154     -0.1245
      2  CA         1.0620   12.9780   10.6850 C.3   154  ARG154      0.1563
      3  C         -0.2370   13.6270   10.2760 C.2   154  ARG154      0.2260
      4  O         -0.5310   14.7670   10.6960 O.2   154  ARG154     -0.2867
      5  CB         2.3210   13.0790    9.8410 C.3   154  ARG154      0.0307
      6  CG         2.3490   14.2620    8.9170 C.3   154  ARG154      0.0489
      7  CD         3.4250   14.2240    7.8930 C.3   154  ARG154      0.2205
      8  NE         4.7460   14.1480    8.5410 N.pl3 154  ARG154     -0.0865
      9  CZ         5.6400   15.1100    8.2690 C.cat 154  ARG154      0.5346
     10  NH1        5.3600   16.1510    7.4940 N.pl3 154  ARG154      0.1354
     11  NH2        6.8630   14.9240    8.7530 N.pl3 154  ARG154      0.1354
     12  N         -1.6400   16.6770   12.4100 N.3   158  THR158     -0.1218
     13  CA        -1.7250   18.0200   11.8240 C.3   158  THR158      0.1862
     14  C         -3.1510   18.5540   12.0890 C.2   158  THR158      0.2287
     15  O         -3.2560   19.7180   12.5000 O.2   158  THR158     -0.2866
     16  CB        -1.5350   18.0130   10.2660 C.3   158  THR158      0.1770
     17  OG1       -0.2740   17.3390   10.0340 O.3   158  THR158     -0.2211
     18  CG2       -1.6560   19.3710    9.6050 C.3   158  THR158      0.0375
     19  N         10.3590   12.8130    8.8130 N.3   185  GLY185     -0.1225
     20  CA        10.3500   14.2280    9.1970 C.3   185  GLY185      0.1811
     21  C         10.1340   14.3820   10.6930 C.2   185  GLY185      0.2280
     22  O          9.5910   15.4080   11.1270 O.2   185  GLY185     -0.2866
     23  N         10.6190   15.1340   14.7120 N.3   187  GLU187     -0.1245
     24  CA        11.2080   16.2750   15.4180 C.3   187  GLU187      0.1567
     25  C         12.2070   15.9200   16.5170 C.2   187  GLU187      0.2260
     26  O         12.9080   16.8340   16.9880 O.2   187  GLU187     -0.2867
     27  CB        10.1700   17.1590   16.1010 C.3   187  GLU187      0.0388
     28  CG         8.8190   17.3670   15.5000 C.3   187  GLU187      0.1160
     29  CD         8.4830   17.3550   14.0640 C.2   187  GLU187      0.3649
     30  OE1        9.0340   17.9280   13.1400 O.co2 187  GLU187     -0.2457
     31  OE2        7.4850   16.6210   13.8290 O.co2 187  GLU187     -0.2457
     32  N          7.6800   28.6030   16.2210 N.3   211  ARG211     -0.1231
     33  CA         8.0350   28.8740   14.8200 C.3   211  ARG211      0.1694
     34  C          6.9290   28.4080   13.8790 C.2   211  ARG211      0.2593
     35  O          7.0950   28.2980   12.6460 O.2   211  ARG211     -0.2718
     36  CB         9.3650   28.1900   14.6120 C.3   211  ARG211      0.0321
     37  CG        10.1730   28.3370   13.3690 C.3   211  ARG211      0.0489
     38  CD         9.8790   27.3990   12.3020 C.3   211  ARG211      0.2205
     39  NE        10.4010   26.0620   12.1210 N.pl3 211  ARG211     -0.0865
     40  CZ         9.7320   25.2960   11.2290 C.cat 211  ARG211      0.5346
     41  NH1        8.6540   25.7640   10.5970 N.pl3 211  ARG211      0.1354
     42  NH2       10.1350   24.0650   10.9750 N.pl3 211  ARG211      0.1354
     43  N          5.7540   28.0960   14.4230 N.am  212  GLY212     -0.1942
     44  CA         4.5510   27.6790   13.7490 C.3   212  GLY212      0.2014
     45  C          4.2000   26.3080   13.2370 C.2   212  GLY212      0.2639
     46  O          3.2660   26.1760   12.4020 O.2   212  GLY212     -0.2714
     47  N          4.8960   25.2800   13.7030 N.am  213  LYS213     -0.1963
     48  CA         4.6860   23.8910   13.3410 C.3   213  LYS213      0.1728
     49  C          3.3470   23.4710   13.9760 C.2   213  LYS213      0.2616
     50  O          3.1910   23.7150   15.1820 O.2   213  LYS213     -0.2715
     51  CB         5.6890   22.9120   13.9330 C.3   213  LYS213      0.0311
     52  CG         6.9230   22.6440   13.0930 C.3   213  LYS213      0.0038
     53  CD         7.8480   21.6670   13.8370 C.3   213  LYS213      0.0206
     54  CE         9.2590   21.8680   13.2800 C.3   213  LYS213      0.1093
     55  NZ        10.0520   20.7120   13.7390 N.3   213  LYS213     -0.1314
     56  N          2.5510   22.8400   13.1340 N.am  214  LYS214     -0.1963
     57  CA         1.2300   22.3260   13.5340 C.3   214  LYS214      0.1728
     58  C          1.4300   21.1090   14.4320 C.2   214  LYS214      0.2616
     59  O          1.2260   21.1800   15.6740 O.2   214  LYS214     -0.2715
     60  CB         0.3280   22.0850   12.3260 C.3   214  LYS214      0.0311
     61  CG         0.2160   23.3360   11.4180 C.3   214  LYS214      0.0038
     62  CD        -0.4240   24.5020   12.1670 C.3   214  LYS214      0.0206
     63  CE         0.0760   25.8690   11.7560 C.3   214  LYS214      0.1093
     64  NZ         0.1500   26.8280   12.9010 N.3   214  LYS214     -0.1314
     65  N          1.8840   20.0050   13.8750 N.am  215  HIS215     -0.1973
     66  CA         2.1250   18.8060   14.7200 C.3   215  HIS215      0.1656
     67  C          3.5550   18.7850   15.2660 C.2   215  HIS215      0.2291
     68  O          4.3750   19.6890   15.1310 O.2   215  HIS215     -0.2864
     69  CB         1.8160   17.5230   13.9290 C.3   215  HIS215      0.0771
     70  CG         2.7130   17.2200   12.7690 C.ar  215  HIS215      0.0820
     71  ND1        2.3340   17.2340   11.4520 N.ar  215  HIS215     -0.2267
     72  CD2        4.0040   16.8010   12.7530 C.ar  215  HIS215      0.1154
     73  CE1        3.3510   16.8640   10.6860 C.ar  215  HIS215      0.1986
     74  NE2        4.3820   16.6020   11.4490 N.ar  215  HIS215     -0.2212
     75  N         17.7950   18.9310   10.0550 N.3   317  LEU317     -0.1231
     76  CA        16.6700   19.0060    9.1190 C.3   317  LEU317      0.1693
     77  C         15.3400   19.1880    9.8340 C.2   317  LEU317      0.2593
     78  O         14.3510   19.5320    9.1820 O.2   317  LEU317     -0.2718
     79  CB        16.7410   17.7510    8.2520 C.3   317  LEU317      0.0284
     80  CG        17.9920   17.3390    7.5090 C.3   317  LEU317      0.0019
     81  CD1       17.6760   16.0770    6.7060 C.3   317  LEU317      0.0001
     82  CD2       18.4560   18.4400    6.5470 C.3   317  LEU317      0.0001
     83  N         15.3080   18.9990   11.1150 N.am  318  SER318     -0.1938
     84  CA        14.1780   19.0780   12.0200 C.3   318  SER318      0.2055
     85  C         13.8460   20.4480   12.5910 C.2   318  SER318      0.2642
     86  O         13.0320   20.6020   13.5190 O.2   318  SER318     -0.2714
     87  CB        14.5060   18.1470   13.1930 C.3   318  SER318      0.2130
     88  OG        13.3550   17.9770   13.9860 O.3   318  SER318     -0.2179
     89  N         14.4770   21.4520   12.0580 N.am  319  ILE319     -0.1977
     90  CA        14.3310   22.8670   12.4120 C.3   319  ILE319      0.1596
     91  C         13.0130   23.5140   12.0310 C.2   319  ILE319      0.2287
     92  O         12.5600   23.2350   10.9030 O.2   319  ILE319     -0.2864
     93  CB        15.5780   23.5470   11.7360 C.3   319  ILE319      0.0276
     94  CG1       16.5450   23.8600   12.9080 C.3   319  ILE319      0.0022
     95  CG2       15.3270   24.6930   10.7350 C.3   319  ILE319      0.0022
     96  CD1       17.9590   24.2070   12.3450 C.3   319  ILE319      0.0001
@<TRIPOS>BOND
     1    82    80    1
     2    81    80    1
     3    10     9    1
     4    80    79    1
     5     7     8    1
     6     7     6    1
     7    79    76    1
     8     9     8    2
     9     9    11    1
    10    19    20    1
    11     6     5    1
    12    76    77    1
    13    76    75    1
    14    78    77    2
    15    20    21    1
    16    18    16    1
    17    77    83   am
    18     5     2    1
    19    17    16    1
    20    16    13    1
    21     3     2    1
    22     3     4    2
    23    41    40    1
    24     2     1    1
    25    73    74   ar
    26    73    71   ar
    27    21    22    2
    28    95    93    1
    29    92    91    2
    30    42    40    1
    31    83    84    1
    32    40    39    2
    33    61    62    1
    34    61    60    1
    35    74    72   ar
    36    71    70   ar
    37    93    90    1
    38    93    94    1
    39    63    62    1
    40    63    64    1
    41    13    14    1
    42    13    12    1
    43    84    85    1
    44    84    87    1
    45    91    90    1
    46    89    90    1
    47    89    85   am
    48    14    15    2
    49    39    38    1
    50    38    37    1
    51    60    57    1
    52    96    94    1
    53    46    45    2
    54    85    86    2
    55    35    34    2
    56    72    70   ar
    57    70    69    1
    58    52    53    1
    59    52    51    1
    60    56    57    1
    61    56    49   am
    62    30    29   ar
    63    87    88    1
    64    45    47   am
    65    45    44    1
    66    54    55    1
    67    54    53    1
    68    48    47    1
    69    48    51    1
    70    48    49    1
    71    37    36    1
    72    57    58    1
    73    44    43    1
    74    31    29   ar
    75    65    58   am
    76    65    66    1
    77    34    43   am
    78    34    33    1
    79    69    66    1
    80    49    50    2
    81    29    28    1
    82    58    59    2
    83    36    33    1
    84    23    24    1
    85    66    67    1
    86    33    32    1
    87    68    67    2
    88    24    27    1
    89    24    25    1
    90    28    27    1
    91    25    26    2
