@<TRIPOS>MOLECULE
tmp/4pfkA01.pdb
 139 133 0 0 0
SMALL
GASTEIGER

@<TRIPOS>ATOM
      1  N         15.3190  -19.3110   12.4990 N.3     9  SER9       -0.1202
      2  CA        15.3470  -19.1780   13.9610 C.3     9  SER9        0.2020
      3  C         15.3360  -17.6910   14.3510 C.2     9  SER9        0.2619
      4  O         15.7100  -16.8020   13.5570 O.2     9  SER9       -0.2717
      5  CB        16.5970  -19.8470   14.4950 C.3     9  SER9        0.2103
      6  OG        16.7420  -19.8410   15.9040 O.3     9  SER9       -0.2182
      7  N         14.9340  -17.4740   15.5890 N.am   10  GLY10      -0.1942
      8  CA        14.8410  -16.1220   16.1480 C.3    10  GLY10       0.2014
      9  C         13.4670  -15.5870   15.7320 C.2    10  GLY10       0.2639
     10  O         12.5740  -16.3690   15.3530 O.2    10  GLY10      -0.2714
     11  N         13.3370  -14.2770   15.8160 N.am   11  GLY11      -0.1954
     12  CA        12.0470  -13.6600   15.4520 C.3    11  GLY11       0.1869
     13  C         12.0170  -13.6460   13.9220 C.2    11  GLY11       0.2309
     14  O         13.0450  -13.3860   13.2850 O.2    11  GLY11      -0.2863
     15  N         15.6130  -24.6300   15.6710 N.3    41  TYR41      -0.1241
     16  CA        16.4040  -25.5650   16.4720 C.3    41  TYR41       0.1605
     17  C         15.5600  -26.6320   17.1570 C.2    41  TYR41       0.2264
     18  O         16.0160  -27.7950   17.1790 O.2    41  TYR41      -0.2867
     19  CB        17.3770  -24.8810   17.4690 C.3    41  TYR41       0.0534
     20  CG        18.4870  -24.1490   16.7220 C.ar   41  TYR41      -0.0201
     21  CD1       19.2730  -24.8160   15.7740 C.ar   41  TYR41      -0.0009
     22  CD2       18.7560  -22.8030   16.9520 C.ar   41  TYR41      -0.0009
     23  CE1       20.2690  -24.1480   15.0670 C.ar   41  TYR41       0.0417
     24  CE2       19.7420  -22.1060   16.2640 C.ar   41  TYR41       0.0417
     25  CZ        20.5050  -22.7940   15.3280 C.ar   41  TYR41       0.1957
     26  OH        21.4850  -22.1160   14.6560 O.3    41  TYR41      -0.2866
     27  N         11.0190  -21.3310   16.2430 N.3    71  ALA71      -0.1231
     28  CA        10.7680  -21.6400   17.6570 C.3    71  ALA71       0.1694
     29  C         12.0150  -21.3620   18.4820 C.2    71  ALA71       0.2595
     30  O         13.1230  -21.2710   17.9550 O.2    71  ALA71      -0.2718
     31  CB        10.3100  -23.0950   17.7320 C.3    71  ALA71       0.0304
     32  N         11.7690  -21.2030   19.7600 N.am   72  ARG72      -0.1920
     33  CA        12.8110  -20.9380   20.7630 C.3    72  ARG72       0.1945
     34  C         13.2100  -22.2960   21.3490 C.2    72  ARG72       0.2659
     35  O         12.3240  -22.9660   21.9070 O.2    72  ARG72      -0.2711
     36  CB        12.2270  -19.9410   21.7520 C.2    72  ARG72       0.0033
     37  CG        12.5240  -18.4690   21.6440 C.2    72  ARG72       0.0179
     38  CD        13.2560  -17.9950   20.4340 C.3    72  ARG72       0.2464
     39  NE        13.6110  -16.5740   20.5280 N.pl3  72  ARG72      -0.0815
     40  CZ        12.8230  -15.5660   20.1250 C.cat  72  ARG72       0.5349
     41  NH1       11.6230  -15.7740   19.5890 N.pl3  72  ARG72       0.1354
     42  NH2       13.2650  -14.3120   20.2470 N.pl3  72  ARG72       0.1354
     43  N         14.4700  -22.6880   21.2080 N.am   73  CYS73      -0.1952
     44  CA        14.9970  -23.9610   21.7340 C.3    73  CYS73       0.1828
     45  C         16.1420  -23.7560   22.7340 C.2    73  CYS73       0.2467
     46  O         17.3440  -23.7330   22.3980 O.2    73  CYS73      -0.2730
     47  CB        15.4700  -24.9230   20.6390 C.3    73  CYS73       0.0996
     48  SG        15.6310  -26.6840   21.1090 S.3    73  CYS73      -0.0797
     49  N         15.7710  -23.6480   23.9980 N.am   74  PRO74      -0.2726
     50  CA        16.7220  -23.4730   25.1010 C.3    74  PRO74       0.1402
     51  C         17.4030  -24.7890   25.4550 C.2    74  PRO74       0.2269
     52  O         18.2290  -24.7910   26.3860 O.2    74  PRO74      -0.2865
     53  CB        15.8930  -22.8720   26.2390 C.3    74  PRO74       0.0296
     54  CG        14.4600  -22.8340   25.7890 C.3    74  PRO74       0.0237
     55  CD        14.3820  -23.6750   24.5170 C.3    74  PRO74       0.0939
     56  N         18.9510  -26.4440   23.0900 N.3    76  PHE76      -0.1227
     57  CA        20.0060  -26.5120   22.0510 C.3    76  PHE76       0.1736
     58  C         21.3050  -25.8710   22.5530 C.2    76  PHE76       0.2595
     59  O         22.3750  -25.9480   21.9180 O.2    76  PHE76      -0.2718
     60  CB        19.5510  -25.9820   20.6780 C.3    76  PHE76       0.0547
     61  CG        20.3960  -26.4220   19.5100 C.ar   76  PHE76      -0.0202
     62  CD1       20.2910  -27.7180   18.9940 C.ar   76  PHE76      -0.0042
     63  CD2       21.3300  -25.5490   18.9340 C.ar   76  PHE76      -0.0042
     64  CE1       21.0780  -28.1340   17.9170 C.ar   76  PHE76      -0.0003
     65  CE2       22.1360  -25.9360   17.8620 C.ar   76  PHE76      -0.0003
     66  CZ        22.0000  -27.2440   17.3480 C.ar   76  PHE76      -0.0000
     67  N         21.1890  -25.2510   23.7040 N.am   77  LYS77      -0.1980
     68  CA        22.3030  -24.5830   24.3950 C.3    77  LYS77       0.1596
     69  C         23.1940  -25.6550   25.0430 C.2    77  LYS77       0.2287
     70  O         24.4040  -25.5460   25.2640 O.2    77  LYS77      -0.2864
     71  CB        21.6950  -23.6870   25.4670 C.3    77  LYS77       0.0298
     72  CG        20.5220  -22.8430   24.9360 C.3    77  LYS77       0.0038
     73  CD        21.0700  -21.4410   24.6890 C.3    77  LYS77       0.0206
     74  CE        20.2910  -20.4400   25.5190 C.3    77  LYS77       0.1093
     75  NZ        21.2760  -19.5660   26.2240 N.3    77  LYS77      -0.1314
     76  N         22.6690  -30.2480   21.3380 N.3    82  GLN82      -0.1245
     77  CA        23.4530  -30.1950   20.0930 C.3    82  GLN82       0.1566
     78  C         23.7540  -31.6180   19.6230 C.2    82  GLN82       0.2260
     79  O         23.9780  -31.7910   18.4120 O.2    82  GLN82      -0.2867
     80  CB        24.7160  -29.3590   20.1850 C.3    82  GLN82       0.0367
     81  CG        24.4940  -27.9070   20.5780 C.3    82  GLN82       0.0905
     82  CD        25.6620  -27.4170   21.3940 C.2    82  GLN82       0.2608
     83  OE1       26.7050  -28.0420   21.3100 O.2    82  GLN82      -0.2717
     84  NE2       25.5470  -26.3510   22.1730 N.am   82  GLN82      -0.0878
     85  N         18.6860  -14.5410   13.6790 N.3   102  GLY102     -0.1210
     86  CA        19.3200  -13.5780   14.5680 C.3   102  GLY102      0.1956
     87  C         20.7080  -13.9770   15.0370 C.2   102  GLY102      0.2612
     88  O         21.3180  -14.9450   14.5530 O.2   102  GLY102     -0.2717
     89  N         21.1700  -13.1910   16.0140 N.am  103  ASP103     -0.1959
     90  CA        22.5310  -13.4690   16.5730 C.3   103  ASP103      0.1840
     91  C         22.4470  -14.7110   17.4690 C.2   103  ASP103      0.2623
     92  O         23.3690  -15.5330   17.4630 O.2   103  ASP103     -0.2715
     93  CB        23.1210  -12.2090   17.1510 C.3   103  ASP103      0.1450
     94  CG        22.6010  -11.6960   18.4730 C.2   103  ASP103      0.3671
     95  OD1       22.4070  -12.4600   19.4410 O.co2 103  ASP103     -0.2456
     96  OD2       22.4170  -10.4470   18.5280 O.co2 103  ASP103     -0.2456
     97  N         21.3260  -14.7940   18.1900 N.am  104  GLY104     -0.1940
     98  CA        21.0850  -15.9360   19.0940 C.3   104  GLY104      0.2014
     99  C         21.2980  -17.2310   18.2920 C.2   104  GLY104      0.2639
    100  O         21.9240  -18.2390   18.6450 O.2   104  GLY104     -0.2714
    101  N         20.7290  -17.1270   17.1120 N.am  105  SER105     -0.1949
    102  CA        20.6990  -18.1930   16.1070 C.3   105  SER105      0.1924
    103  C         22.0840  -18.4660   15.5640 C.2   105  SER105      0.2314
    104  O         22.4710  -19.6480   15.4110 O.2   105  SER105     -0.2863
    105  CB        19.5420  -17.8640   15.1820 C.3   105  SER105      0.2116
    106  OG        19.8760  -18.1650   13.8530 O.3   105  SER105     -0.2180
    107  N         24.8250  -18.1990   17.0280 N.3   107  GLN107     -0.1231
    108  CA        25.5300  -18.8730   18.1220 C.3   107  GLN107      0.1698
    109  C         25.4430  -20.4120   18.0430 C.2   107  GLN107      0.2592
    110  O         26.3770  -21.1380   18.4540 O.2   107  GLN107     -0.2718
    111  CB        25.0140  -18.4650   19.5010 C.3   107  GLN107      0.0381
    112  CG        25.3020  -17.0550   19.9740 C.3   107  GLN107      0.0905
    113  CD        26.6330  -17.0240   20.6970 C.2   107  GLN107      0.2608
    114  OE1       26.8230  -17.6050   21.7630 O.2   107  GLN107     -0.2717
    115  NE2       27.5720  -16.3300   20.0680 N.am  107  GLN107     -0.0878
    116  N         24.3070  -20.8700   17.5460 N.am  108  GLY108     -0.1957
    117  CA        23.9840  -22.2860   17.3990 C.3   108  GLY108      0.1869
    118  C         24.5970  -22.8700   16.1480 C.2   108  GLY108      0.2309
    119  O         24.8680  -24.0720   16.0740 O.2   108  GLY108     -0.2863
    120  N         28.2360  -23.4890   17.3270 N.3   111  LYS111     -0.1245
    121  CA        28.2670  -24.6970   18.1330 C.3   111  LYS111      0.1561
    122  C         28.1710  -25.9160   17.2130 C.2   111  LYS111      0.2260
    123  O         28.7610  -26.9650   17.5380 O.2   111  LYS111     -0.2867
    124  CB        27.1270  -24.8300   19.1460 C.3   111  LYS111      0.0271
    125  CG        27.1510  -23.7920   20.2840 C.3   111  LYS111      0.0035
    126  CD        28.4160  -23.9940   21.1060 C.3   111  LYS111      0.0206
    127  CE        28.8530  -22.8330   21.9690 C.3   111  LYS111      0.1093
    128  NZ        30.1580  -23.1670   22.6150 N.3   111  LYS111     -0.1314
    129  N         15.1050   -3.6150   19.8930 N.3   171  ARG171     -0.1245
    130  CA        15.3930   -3.8340   21.3130 C.3   171  ARG171      0.1563
    131  C         16.6270   -3.1440   21.8540 C.2   171  ARG171      0.2260
    132  O         16.6020   -2.5390   22.9420 O.2   171  ARG171     -0.2867
    133  CB        15.5110   -5.3630   21.5150 C.3   171  ARG171      0.0307
    134  CG        16.5050   -6.0430   20.5950 C.3   171  ARG171      0.0489
    135  CD        16.3590   -7.4310   20.1780 C.3   171  ARG171      0.2205
    136  NE        16.0070   -8.5490   21.0250 N.pl3 171  ARG171     -0.0865
    137  CZ        15.4380   -9.6940   20.5810 C.cat 171  ARG171      0.5346
    138  NH1       15.1810   -9.8850   19.2760 N.pl3 171  ARG171      0.1354
    139  NH2       15.0650  -10.6800   21.4100 N.pl3 171  ARG171      0.1354
@<TRIPOS>BOND
     1     1     2    1
     2    14    13    2
     3     4     3    2
     4    85    86    1
     5   106   105    1
     6    13    12    1
     7     2     3    1
     8     2     5    1
     9     3     7   am
    10     5     6    1
    11    88    87    2
    12    86    87    1
    13    26    25    1
    14    87    89   am
    15    23    25   ar
    16    23    21   ar
    17   105   102    1
    18    25    24   ar
    19    10     9    2
    20   104   103    2
    21    12    11    1
    22   103   102    1
    23     7     8    1
    24    15    16    1
    25     9    11   am
    26     9     8    1
    27    21    20   ar
    28    89    90    1
    29   119   118    2
    30   102   101    1
    31   118   117    1
    32    27    28    1
    33    24    22   ar
    34    16    17    1
    35    16    19    1
    36    90    93    1
    37    90    91    1
    38    20    22   ar
    39    20    19    1
    40   107   108    1
    41   101    99   am
    42    93    94    1
    43    17    18    2
    44   122   123    2
    45   122   121    1
    46   120   121    1
    47    66    65   ar
    48    66    64   ar
    49   117   116    1
    50    92    91    2
    51    91    97   am
    52   116   109   am
    53    28    31    1
    54    28    29    1
    55    65    63   ar
    56    64    62   ar
    57    30    29    2
    58   109   108    1
    59   109   110    2
    60   108   111    1
    61   121   124    1
    62    97    98    1
    63    99   100    2
    64    99    98    1
    65    79    78    2
    66    94    96   ar
    67    94    95   ar
    68    29    32   am
    69    63    61   ar
    70    62    61   ar
    71   124   125    1
    72   138   137    1
    73   111   112    1
    74    61    60    1
    75    41    40    1
    76    78    77    1
    77    32    33    1
    78   129   130    1
    79   112   113    1
    80   115   113   am
    81    77    80    1
    82    77    76    1
    83    40    42    1
    84    40    39    2
    85   135   134    1
    86   135   136    1
    87    80    81    1
    88   125   126    1
    89    38    39    1
    90    38    37    1
    91    81    82    1
    92   137   136    2
    93   137   139    1
    94   134   133    1
    95    47    48    1
    96    47    44    1
    97    60    57    1
    98   113   114    2
    99    33    34    1
   100    33    36    1
   101   126   127    1
   102    43    34   am
   103    43    44    1
   104    83    82    2
   105   130   133    1
   106   130   131    1
   107    34    35    2
   108    82    84   am
   109    37    36    2
   110    44    45    1
   111   131   132    2
   112    59    58    2
   113   127   128    1
   114    57    58    1
   115    57    56    1
   116    46    45    2
   117    58    67   am
   118    45    49   am
   119    67    68    1
   120    49    55    1
   121    49    50    1
   122    68    69    1
   123    68    71    1
   124    55    54    1
   125    73    72    1
   126    73    74    1
   127    72    71    1
   128    69    70    2
   129    50    51    1
   130    50    53    1
   131    51    52    2
   132    74    75    1
   133    54    53    1
