@<TRIPOS>MOLECULE
tmp/4pfmA00.pdb
 90 86 0 0 0
SMALL
GASTEIGER

@<TRIPOS>ATOM
      1  N          5.8150   25.1530  -25.3030 N.3    49  SER49      -0.1202
      2  CA         4.6630   25.6430  -26.0340 C.3    49  SER49       0.2020
      3  C          4.3130   27.0600  -25.6590 C.2    49  SER49       0.2618
      4  O          4.1110   27.9010  -26.5340 O.2    49  SER49      -0.2717
      5  CB         3.4480   24.7010  -25.7720 C.3    49  SER49       0.2103
      6  OG         3.0960   24.8040  -24.4080 O.3    49  SER49      -0.2182
      7  N          4.2780   27.3750  -24.3650 N.am   50  ALA50      -0.1979
      8  CA         3.8960   28.7310  -23.9570 C.3    50  ALA50       0.1597
      9  C          4.6570   29.8850  -24.6340 C.2    50  ALA50       0.2287
     10  O          4.0730   30.9830  -24.8610 O.2    50  ALA50      -0.2864
     11  CB         4.0330   28.8810  -22.4940 C.3    50  ALA50       0.0319
     12  N          6.1980   29.8770  -27.6470 N.3    52  LEU52      -0.1231
     13  CA         6.2060   29.8200  -29.1260 C.3    52  LEU52       0.1678
     14  C          4.9020   30.4000  -29.5900 C.2    52  LEU52       0.2434
     15  O          3.8300   29.8180  -29.3240 O.2    52  LEU52      -0.2733
     16  CB         6.3820   28.3660  -29.6510 C.3    52  LEU52       0.0284
     17  CG         7.7280   27.6820  -29.2680 C.3    52  LEU52       0.0019
     18  CD1        7.7320   26.1630  -29.4760 C.3    52  LEU52       0.0001
     19  CD2        8.7400   28.2690  -30.1790 C.3    52  LEU52       0.0001
     20  N          4.9590   31.5390  -30.2840 N.am   53  PRO53      -0.2718
     21  CA         3.6610   32.0170  -30.8720 C.3    53  PRO53       0.1535
     22  C          3.1570   31.0050  -31.8760 C.2    53  PRO53       0.2598
     23  O          3.9470   30.1470  -32.3580 O.2    53  PRO53      -0.2715
     24  CB         4.0530   33.2770  -31.6490 C.3    53  PRO53       0.0310
     25  CG         5.6530   33.3510  -31.5700 C.3    53  PRO53       0.0237
     26  CD         6.0860   32.4850  -30.4510 C.3    53  PRO53       0.0939
     27  N          1.8680   31.0660  -32.2130 N.am   54  ILE54      -0.1978
     28  CA         1.3010   30.0610  -33.0890 C.3    54  ILE54       0.1596
     29  C          2.1540   29.7410  -34.3280 C.2    54  ILE54       0.2287
     30  O          2.4280   28.5930  -34.5900 O.2    54  ILE54      -0.2864
     31  CB        -0.1860   30.3260  -33.4720 C.3    54  ILE54       0.0276
     32  CG1       -0.6740   29.2090  -34.3930 C.3    54  ILE54       0.0022
     33  CG2       -0.3760   31.6600  -34.2280 C.3    54  ILE54       0.0022
     34  CD1       -2.1810   29.2520  -34.5920 C.3    54  ILE54       0.0001
     35  N          5.1130   27.7360  -33.3740 N.3    57  HIS57      -0.1241
     36  CA         4.6850   26.5070  -32.7500 C.3    57  HIS57       0.1621
     37  C          4.4090   25.5480  -33.8990 C.2    57  HIS57       0.2264
     38  O          4.9210   24.4420  -33.9430 O.2    57  HIS57      -0.2867
     39  CB         3.4040   26.8120  -31.9720 C.3    57  HIS57       0.0745
     40  CG         2.7420   25.6410  -31.3360 C.ar   57  HIS57       0.0817
     41  ND1        2.1800   25.7070  -30.0750 N.ar   57  HIS57      -0.2268
     42  CD2        2.5040   24.3830  -31.7870 C.ar   57  HIS57       0.1154
     43  CE1        1.5890   24.5500  -29.7990 C.ar   57  HIS57       0.1986
     44  NE2        1.7990   23.7230  -30.8090 N.ar   57  HIS57      -0.2212
     45  N         -2.5850   21.9970  -27.0660 N.3    79  GLY79      -0.1210
     46  CA        -3.4600   22.5350  -25.9900 C.3    79  GLY79       0.1956
     47  C         -3.5110   24.0480  -25.9580 C.2    79  GLY79       0.2612
     48  O         -2.6110   24.7170  -26.4160 O.2    79  GLY79      -0.2717
     49  N         -4.5800   24.5790  -25.4410 N.am   80  ALA80      -0.1965
     50  CA        -4.7690   26.0220  -25.2320 C.3    80  ALA80       0.1728
     51  C         -5.7610   26.1450  -24.0820 C.2    80  ALA80       0.2616
     52  O         -6.4660   25.2050  -23.7800 O.2    80  ALA80      -0.2715
     53  CB        -5.3730   26.6440  -26.4610 C.3    80  ALA80       0.0334
     54  N         -5.7850   27.2740  -23.4200 N.am   81  ASN81      -0.1972
     55  CA        -6.7930   27.5440  -22.4090 C.3    81  ASN81       0.1688
     56  C         -7.9790   28.3630  -22.9040 C.2    81  ASN81       0.2292
     57  O         -8.8150   28.7660  -22.1050 O.2    81  ASN81      -0.2864
     58  CB        -6.1560   28.2110  -21.1840 C.3    81  ASN81       0.1181
     59  CG        -5.5490   29.5740  -21.5060 C.2    81  ASN81       0.2629
     60  OD1       -5.5710   30.0150  -22.6520 O.2    81  ASN81      -0.2716
     61  ND2       -4.9840   30.2410  -20.4780 N.am   81  ASN81      -0.0877
     62  N         -8.5950   28.8810  -29.4310 N.3    85  GLU85      -0.1245
     63  CA        -7.1650   28.8690  -29.7710 C.3    85  GLU85       0.1567
     64  C         -6.7850   27.4470  -30.0090 C.2    85  GLU85       0.2260
     65  O         -6.0070   27.1800  -30.8570 O.2    85  GLU85      -0.2867
     66  CB        -6.2730   29.4690  -28.6720 C.3    85  GLU85       0.0388
     67  CG        -6.1780   30.9730  -28.7730 C.3    85  GLU85       0.1160
     68  CD        -5.6320   31.6400  -27.4770 C.2    85  GLU85       0.3649
     69  OE1       -5.4890   30.9330  -26.4530 O.co2  85  GLU85      -0.2457
     70  OE2       -5.3940   32.8940  -27.4810 O.co2  85  GLU85      -0.2457
     71  N         -5.1000   25.7580  -33.5190 N.3    89  LEU89      -0.1245
     72  CA        -3.8410   24.9970  -33.5350 C.3    89  LEU89       0.1561
     73  C         -4.0550   23.6130  -34.1530 C.2    89  LEU89       0.2260
     74  O         -3.1950   23.0920  -34.9000 O.2    89  LEU89      -0.2867
     75  CB        -3.4040   24.8200  -32.1040 C.3    89  LEU89       0.0270
     76  CG        -2.0960   25.1580  -31.4110 C.3    89  LEU89       0.0019
     77  CD1       -1.2010   26.2090  -32.0520 C.3    89  LEU89       0.0001
     78  CD2       -2.4840   25.5640  -30.0260 C.3    89  LEU89       0.0001
     79  N         -5.3070   25.8470  -18.7260 N.3   107  TYR107     -0.1241
     80  CA        -4.6100   26.2470  -17.5450 C.3   107  TYR107      0.1605
     81  C         -5.0590   27.6090  -17.1230 C.2   107  TYR107      0.2264
     82  O         -5.5000   28.4150  -17.9370 O.2   107  TYR107     -0.2867
     83  CB        -3.0940   26.2720  -17.8570 C.3   107  TYR107      0.0534
     84  CG        -2.7690   26.6630  -19.2500 C.ar  107  TYR107     -0.0201
     85  CD1       -2.6970   25.6940  -20.2430 C.ar  107  TYR107     -0.0009
     86  CD2       -2.5620   27.9800  -19.6000 C.ar  107  TYR107     -0.0009
     87  CE1       -2.4310   26.0380  -21.5960 C.ar  107  TYR107      0.0417
     88  CE2       -2.2740   28.3600  -20.9400 C.ar  107  TYR107      0.0417
     89  CZ        -2.2110   27.3660  -21.9260 C.ar  107  TYR107      0.1957
     90  OH        -1.9590   27.6540  -23.2690 O.3   107  TYR107     -0.2866
@<TRIPOS>BOND
     1    74    73    2
     2    34    32    1
     3    30    29    2
     4    32    31    1
     5    29    28    1
     6    33    31    1
     7    73    72    1
     8    38    37    2
     9    37    36    1
    10    72    71    1
    11    72    75    1
    12    31    28    1
    13    35    36    1
    14    28    27    1
    15    36    39    1
    16    23    22    2
    17    27    22   am
    18    75    76    1
    19    77    76    1
    20    39    40    1
    21    22    21    1
    22    42    40   ar
    23    42    44   ar
    24    24    25    1
    25    24    21    1
    26    25    26    1
    27    76    78    1
    28    40    41   ar
    29    21    20    1
    30    65    64    2
    31    44    43   ar
    32    26    20    1
    33    20    14   am
    34    19    17    1
    35    41    43   ar
    36    64    63    1
    37    63    62    1
    38    63    66    1
    39    16    17    1
    40    16    13    1
    41    14    15    2
    42    14    13    1
    43    18    17    1
    44    13    12    1
    45    67    66    1
    46    67    68    1
    47    70    68   ar
    48    68    69   ar
    49    45    46    1
    50     4     3    2
    51    53    50    1
    52    48    47    2
    53     2     5    1
    54     2     3    1
    55     2     1    1
    56    46    47    1
    57    47    49   am
    58     5     6    1
    59     3     7   am
    60    49    50    1
    61    50    51    1
    62    10     9    2
    63     9     8    1
    64     7     8    1
    65    51    52    2
    66    51    54   am
    67     8    11    1
    68    54    55    1
    69    90    89    1
    70    56    55    1
    71    56    57    2
    72    60    59    2
    73    55    58    1
    74    89    87   ar
    75    89    88   ar
    76    87    85   ar
    77    59    58    1
    78    59    61   am
    79    88    86   ar
    80    85    84   ar
    81    86    84   ar
    82    84    83    1
    83    79    80    1
    84    82    81    2
    85    83    80    1
    86    80    81    1
