@<TRIPOS>MOLECULE
tmp/4pfpB00.pdb
 220 218 0 0 0
SMALL
GASTEIGER

@<TRIPOS>ATOM
      1  N         30.3330    0.2640  -64.0400 N.3    82  ILE82      -0.1231
      2  CA        29.6920    0.3430  -62.7210 C.3    82  ILE82       0.1692
      3  C         30.2470   -0.6330  -61.6810 C.2    82  ILE82       0.2592
      4  O         30.0120   -0.4420  -60.4810 O.2    82  ILE82      -0.2718
      5  CB        28.1530    0.2110  -62.8510 C.3    82  ILE82       0.0266
      6  CG1       27.7220   -1.2040  -63.3300 C.3    82  ILE82       0.0019
      7  CG2       27.6100    1.3590  -63.7530 C.3    82  ILE82       0.0020
      8  CD1       26.2360   -1.5240  -63.2330 C.3    82  ILE82       0.0001
      9  N         30.9880   -1.6680  -62.1350 N.am   83  TYR83      -0.1976
     10  CA        31.5640   -2.6800  -61.2660 C.3    83  TYR83       0.1639
     11  C         33.0700   -2.5290  -61.0580 C.2    83  TYR83       0.2290
     12  O         33.8150   -2.3240  -62.0130 O.2    83  TYR83      -0.2864
     13  CB        31.2290   -4.0730  -61.8080 C.3    83  TYR83       0.0560
     14  CG        29.7520   -4.3440  -61.9530 C.ar   83  TYR83      -0.0198
     15  CD1       28.9220   -4.4030  -60.8410 C.ar   83  TYR83      -0.0009
     16  CD2       29.1930   -4.6100  -63.1960 C.ar   83  TYR83      -0.0009
     17  CE1       27.5610   -4.6770  -60.9680 C.ar   83  TYR83       0.0417
     18  CE2       27.8420   -4.9330  -63.3300 C.ar   83  TYR83       0.0417
     19  CZ        27.0230   -4.9440  -62.2160 C.ar   83  TYR83       0.1957
     20  OH        25.6750   -5.2060  -62.3320 O.3    83  TYR83      -0.2866
     21  N         25.0540    2.2860  -59.0330 N.3    94  ASN94      -0.1226
     22  CA        23.8260    2.3440  -59.8300 C.3    94  ASN94       0.1770
     23  C         23.9860    3.2690  -61.0390 C.2    94  ASN94       0.2439
     24  O         24.1910    4.4600  -60.8520 O.2    94  ASN94      -0.2733
     25  CB        22.6390    2.7780  -58.9590 C.3    94  ASN94       0.1168
     26  CG        21.2940    2.6310  -59.6100 C.2    94  ASN94       0.2627
     27  OD1       21.1730    2.4390  -60.8160 O.2    94  ASN94      -0.2716
     28  ND2       20.2390    2.7070  -58.8300 N.am   94  ASN94      -0.0877
     29  N         23.8950    2.7530  -62.2870 N.am   95  PRO95      -0.2718
     30  CA        24.0430    3.6500  -63.4490 C.3    95  PRO95       0.1535
     31  C         22.8290    4.5600  -63.6770 C.2    95  PRO95       0.2599
     32  O         22.9890    5.6260  -64.2700 O.2    95  PRO95      -0.2715
     33  CB        24.2250    2.6830  -64.6290 C.3    95  PRO95       0.0310
     34  CG        23.5260    1.4350  -64.2090 C.3    95  PRO95       0.0237
     35  CD        23.6700    1.3460  -62.7070 C.3    95  PRO95       0.0939
     36  N         21.6250    4.1310  -63.2370 N.am   96  TYR96      -0.1960
     37  CA        20.3390    4.8180  -63.4690 C.3    96  TYR96       0.1771
     38  C         20.0040    4.9430  -64.9690 C.2    96  TYR96       0.2620
     39  O         19.3620    5.9060  -65.3870 O.2    96  TYR96      -0.2715
     40  CB        20.2100    6.1790  -62.7430 C.3    96  TYR96       0.0574
     41  CG        19.7700    6.0780  -61.2990 C.ar   96  TYR96      -0.0198
     42  CD1       18.5510    5.4870  -60.9560 C.ar   96  TYR96      -0.0009
     43  CD2       20.5360    6.6380  -60.2770 C.ar   96  TYR96      -0.0009
     44  CE1       18.1490    5.3800  -59.6250 C.ar   96  TYR96       0.0417
     45  CE2       20.1360    6.5530  -58.9410 C.ar   96  TYR96       0.0417
     46  CZ        18.9390    5.9270  -58.6190 C.ar   96  TYR96       0.1957
     47  OH        18.5300    5.9000  -57.3060 O.3    96  TYR96      -0.2866
     48  N         20.4780    3.9790  -65.7710 N.am   97  PHE97      -0.1960
     49  CA        20.1800    3.8220  -67.2070 C.3    97  PHE97       0.1771
     50  C         20.6840    2.4430  -67.6300 C.2    97  PHE97       0.2620
     51  O         21.5340    1.8530  -66.9450 O.2    97  PHE97      -0.2715
     52  CB        20.7470    4.9540  -68.1020 C.3    97  PHE97       0.0574
     53  CG        22.1800    4.7940  -68.5630 C.ar   97  PHE97      -0.0200
     54  CD1       23.2350    5.1660  -67.7430 C.ar   97  PHE97      -0.0042
     55  CD2       22.4670    4.2810  -69.8260 C.ar   97  PHE97      -0.0042
     56  CE1       24.5470    5.0210  -68.1650 C.ar   97  PHE97      -0.0003
     57  CE2       23.7820    4.1350  -70.2520 C.ar   97  PHE97      -0.0003
     58  CZ        24.8160    4.5280  -69.4290 C.ar   97  PHE97      -0.0000
     59  N         20.1270    1.9170  -68.7210 N.am   98  ASP98      -0.1957
     60  CA        20.4910    0.6090  -69.2540 C.3    98  ASP98       0.1840
     61  C         21.7600    0.6810  -70.0730 C.2    98  ASP98       0.2621
     62  O         21.7770    1.3110  -71.1190 O.2    98  ASP98      -0.2715
     63  CB        19.3110    0.0030  -70.0600 C.3    98  ASP98       0.1450
     64  CG        18.1640   -0.4090  -69.1670 C.2    98  ASP98       0.3671
     65  OD1       18.4030   -1.1980  -68.2240 O.co2  98  ASP98      -0.2456
     66  OD2       17.0280    0.1080  -69.3710 O.co2  98  ASP98      -0.2456
     67  N         22.8370    0.0770  -69.5790 N.am   99  ILE99      -0.1977
     68  CA        24.1070    0.0110  -70.2850 C.3    99  ILE99       0.1596
     69  C         23.9650   -1.1620  -71.2650 C.2    99  ILE99       0.2287
     70  O         23.6000   -2.2700  -70.8530 O.2    99  ILE99      -0.2864
     71  CB        25.3560   -0.1000  -69.3550 C.3    99  ILE99       0.0276
     72  CG1       25.4910    1.1520  -68.4610 C.3    99  ILE99       0.0022
     73  CG2       26.6560   -0.3270  -70.1700 C.3    99  ILE99       0.0022
     74  CD1       26.1960    0.8860  -67.1060 C.3    99  ILE99       0.0001
     75  N         24.4240   -7.4340  -69.7440 N.3   103  TYR103     -0.1241
     76  CA        23.6630   -8.5250  -69.1310 C.3   103  TYR103      0.1605
     77  C         23.1360   -9.5040  -70.1880 C.2   103  TYR103      0.2264
     78  O         22.3010  -10.3450  -69.8760 O.2   103  TYR103     -0.2867
     79  CB        22.5190   -7.9930  -68.2490 C.3   103  TYR103      0.0534
     80  CG        22.9970   -6.9780  -67.2460 C.ar  103  TYR103     -0.0201
     81  CD1       23.8610   -7.3430  -66.2100 C.ar  103  TYR103     -0.0009
     82  CD2       22.6310   -5.6370  -67.3510 C.ar  103  TYR103     -0.0009
     83  CE1       24.3370   -6.4050  -65.3010 C.ar  103  TYR103      0.0417
     84  CE2       23.0880   -4.6910  -66.4300 C.ar  103  TYR103      0.0417
     85  CZ        23.9490   -5.0820  -65.4130 C.ar  103  TYR103      0.1957
     86  OH        24.4140   -4.1690  -64.5060 O.3   103  TYR103     -0.2866
     87  N         18.4180    2.4010  -50.0030 N.3   149  SER149     -0.1202
     88  CA        17.2880    2.3790  -50.9180 C.3   149  SER149      0.2020
     89  C         17.6220    3.1070  -52.2230 C.2   149  SER149      0.2619
     90  O         18.0970    4.2450  -52.1790 O.2   149  SER149     -0.2717
     91  CB        16.0600    2.9740  -50.2420 C.3   149  SER149      0.2103
     92  OG        14.9260    2.7740  -51.0740 O.3   149  SER149     -0.2182
     93  N         17.4090    2.4270  -53.3570 N.am  150  GLY150     -0.1942
     94  CA        17.7240    2.9500  -54.6810 C.3   150  GLY150      0.2014
     95  C         19.1600    2.6670  -55.1220 C.2   150  GLY150      0.2639
     96  O         19.5710    3.1380  -56.1810 O.2   150  GLY150     -0.2714
     97  N         19.9470    1.9000  -54.3240 N.am  151  ALA151     -0.1963
     98  CA        21.3280    1.5810  -54.6570 C.3   151  ALA151      0.1728
     99  C         21.4850    0.5850  -55.8170 C.2   151  ALA151      0.2617
    100  O         22.5120    0.6140  -56.5000 O.2   151  ALA151     -0.2715
    101  CB        22.0680    1.0750  -53.4390 C.3   151  ALA151      0.0334
    102  N         20.5040   -0.2920  -56.0160 N.am  152  GLY152     -0.1940
    103  CA        20.5780   -1.3060  -57.0660 C.3   152  GLY152      0.2014
    104  C         20.5970   -2.7440  -56.5800 C.2   152  GLY152      0.2639
    105  O         20.9300   -3.6520  -57.3440 O.2   152  GLY152     -0.2714
    106  N         20.2100   -2.9820  -55.3390 N.am  153  LYS153     -0.1963
    107  CA        20.2060   -4.3410  -54.7710 C.3   153  LYS153      0.1728
    108  C         19.2750   -5.3090  -55.4980 C.2   153  LYS153      0.2617
    109  O         19.6480   -6.4550  -55.7020 O.2   153  LYS153     -0.2715
    110  CB        19.8140   -4.3420  -53.2900 C.3   153  LYS153      0.0311
    111  CG        20.7030   -3.5470  -52.3270 C.3   153  LYS153      0.0038
    112  CD        20.1560   -3.7080  -50.8800 C.3   153  LYS153      0.0206
    113  CE        18.8240   -3.0250  -50.6500 C.3   153  LYS153      0.1093
    114  NZ        18.9040   -1.5680  -51.0200 N.3   153  LYS153     -0.1314
    115  N         18.0310   -4.8850  -55.7810 N.am  154  THR154     -0.1937
    116  CA        17.0200   -5.7350  -56.4250 C.3   154  THR154      0.2028
    117  C         17.4490   -6.0600  -57.8510 C.2   154  THR154      0.2642
    118  O         17.3380   -7.2090  -58.2740 O.2   154  THR154     -0.2714
    119  CB        15.6340   -5.0980  -56.2940 C.3   154  THR154      0.1808
    120  OG1       15.3200   -5.0980  -54.9130 O.3   154  THR154     -0.2208
    121  CG2       14.5300   -5.8490  -57.0680 C.3   154  THR154      0.0379
    122  N         17.9790   -5.0590  -58.5710 N.am  155  GLU155     -0.1963
    123  CA        18.4420   -5.2810  -59.9420 C.3   155  GLU155      0.1733
    124  C         19.6240   -6.2650  -59.9930 C.2   155  GLU155      0.2616
    125  O         19.5630   -7.2150  -60.7650 O.2   155  GLU155     -0.2715
    126  CB        18.7360   -3.9580  -60.6340 C.3   155  GLU155      0.0429
    127  CG        17.4690   -3.1360  -60.8640 C.3   155  GLU155      0.1163
    128  CD        16.3180   -3.8540  -61.5430 C.2   155  GLU155      0.3649
    129  OE1       16.5000   -4.3120  -62.6940 O.co2 155  GLU155     -0.2457
    130  OE2       15.2440   -3.9930  -60.9090 O.co2 155  GLU155     -0.2457
    131  N         20.6250   -6.1150  -59.0960 N.am  156  ASN156     -0.1972
    132  CA        21.7800   -7.0180  -59.0610 C.3   156  ASN156      0.1688
    133  C         21.4100   -8.4420  -58.5930 C.2   156  ASN156      0.2292
    134  O         21.9570   -9.4100  -59.1320 O.2   156  ASN156     -0.2864
    135  CB        22.9330   -6.4160  -58.2920 C.3   156  ASN156      0.1181
    136  CG        23.6540   -5.3790  -59.1340 C.2   156  ASN156      0.2629
    137  OD1       24.4740   -5.7000  -59.9800 O.2   156  ASN156     -0.2716
    138  ND2       23.3390   -4.1060  -58.9590 N.am  156  ASN156     -0.0877
    139  N         20.1120  -10.0870  -61.6720 N.3   159  PHE159     -0.1241
    140  CA        21.2130  -10.4450  -62.5660 C.3   159  PHE159      0.1605
    141  C         21.8810  -11.7310  -62.1060 C.2   159  PHE159      0.2264
    142  O         22.1950  -12.5760  -62.9390 O.2   159  PHE159     -0.2867
    143  CB        22.2610   -9.3100  -62.6630 C.3   159  PHE159      0.0534
    144  CG        21.7050   -7.9720  -63.0870 C.ar  159  PHE159     -0.0203
    145  CD1       20.7390   -7.8870  -64.0920 C.ar  159  PHE159     -0.0042
    146  CD2       22.2060   -6.7900  -62.5420 C.ar  159  PHE159     -0.0042
    147  CE1       20.2290   -6.6470  -64.4800 C.ar  159  PHE159     -0.0003
    148  CE2       21.6960   -5.5460  -62.9310 C.ar  159  PHE159     -0.0003
    149  CZ        20.7120   -5.4800  -63.8940 C.ar  159  PHE159     -0.0000
    150  N         12.9230    5.4150  -54.2590 N.3   196  ASN196     -0.1225
    151  CA        12.9460    4.4240  -55.3320 C.3   196  ASN196      0.1785
    152  C         11.5280    4.2080  -55.8560 C.2   196  ASN196      0.2597
    153  O         10.6400    3.8880  -55.0900 O.2   196  ASN196     -0.2718
    154  CB        13.5730    3.1000  -54.7860 C.3   196  ASN196      0.1169
    155  CG        13.7700    1.9900  -55.7830 C.2   196  ASN196      0.2627
    156  OD1       13.4270    2.0820  -56.9580 O.2   196  ASN196     -0.2716
    157  ND2       14.2540    0.8720  -55.3150 N.am  196  ASN196     -0.0877
    158  N         11.3420    4.3270  -57.1610 N.am  197  ASN197     -0.1960
    159  CA        10.0640    4.1250  -57.8510 C.3   197  ASN197      0.1819
    160  C          9.6100    2.6780  -57.7650 C.2   197  ASN197      0.2621
    161  O          8.4080    2.4230  -57.8430 O.2   197  ASN197     -0.2715
    162  CB        10.1640    4.5570  -59.3170 C.3   197  ASN197      0.1195
    163  CG        10.2850    6.0460  -59.5380 C.2   197  ASN197      0.2630
    164  OD1        9.8240    6.8740  -58.7490 O.2   197  ASN197     -0.2716
    165  ND2       10.8530    6.4170  -60.6530 N.am  197  ASN197     -0.0877
    166  N         10.5640    1.7380  -57.5950 N.am  198  ASN198     -0.1958
    167  CA        10.3070    0.3060  -57.4600 C.3   198  ASN198      0.1819
    168  C         10.8790   -0.2210  -56.1270 C.2   198  ASN198      0.2622
    169  O         11.5530   -1.2570  -56.0840 O.2   198  ASN198     -0.2715
    170  CB        10.9040   -0.4350  -58.6520 C.3   198  ASN198      0.1195
    171  CG        10.4230   -1.8440  -58.8090 C.2   198  ASN198      0.2630
    172  OD1        9.2490   -2.1590  -58.5690 O.2   198  ASN198     -0.2716
    173  ND2       11.3430   -2.7230  -59.1890 N.am  198  ASN198     -0.0877
    174  N         10.6200    0.4860  -55.0350 N.am  199  SER199     -0.1936
    175  CA        11.1510    0.0470  -53.7480 C.3   199  SER199      0.2055
    176  C         10.5700   -1.3010  -53.3040 C.2   199  SER199      0.2643
    177  O          9.3700   -1.5290  -53.4440 O.2   199  SER199     -0.2714
    178  CB        10.8780    1.0930  -52.6730 C.3   199  SER199      0.2130
    179  OG        11.3460    0.6280  -51.4130 O.3   199  SER199     -0.2179
    180  N         11.4290   -2.1750  -52.7550 N.am  200  SER200     -0.1949
    181  CA        11.0600   -3.4800  -52.1980 C.3   200  SER200      0.1924
    182  C         10.5630   -3.2400  -50.7740 C.2   200  SER200      0.2314
    183  O         11.3400   -2.7820  -49.9420 O.2   200  SER200     -0.2863
    184  CB        12.2810   -4.3940  -52.1240 C.3   200  SER200      0.2116
    185  OG        13.0540   -4.3500  -53.3060 O.3   200  SER200     -0.2180
    186  N          9.6490    6.8240  -65.6330 N.3   304  ASP304     -0.1225
    187  CA        10.6090    5.8070  -65.2070 C.3   304  ASP304      0.1790
    188  C         11.1160    5.0750  -66.4410 C.2   304  ASP304      0.2440
    189  O         10.3230    4.8590  -67.3550 O.2   304  ASP304     -0.2733
    190  CB         9.9930    4.8300  -64.1810 C.3   304  ASP304      0.1423
    191  CG        11.0020    3.8820  -63.5540 C.2   304  ASP304      0.3668
    192  OD1       11.2940    2.8290  -64.1690 O.co2 304  ASP304     -0.2456
    193  OD2       11.5250    4.2030  -62.4640 O.co2 304  ASP304     -0.2456
    194  N         12.4170    4.7160  -66.5260 N.am  305  PRO305     -0.2718
    195  CA        12.9010    4.0030  -67.7220 C.3   305  PRO305      0.1535
    196  C         12.2420    2.6400  -67.9940 C.2   305  PRO305      0.2598
    197  O         12.1630    2.2540  -69.1530 O.2   305  PRO305     -0.2715
    198  CB        14.4090    3.8260  -67.4490 C.3   305  PRO305      0.0310
    199  CG        14.7490    4.8290  -66.4180 C.3   305  PRO305      0.0237
    200  CD        13.5190    4.9370  -65.5660 C.3   305  PRO305      0.0939
    201  N         11.8140    1.9090  -66.9530 N.am  306  LEU306     -0.1978
    202  CA        11.2210    0.5690  -67.1050 C.3   306  LEU306      0.1596
    203  C          9.7570    0.4270  -66.5900 C.2   306  LEU306      0.2287
    204  O          8.9440   -0.1690  -67.2930 O.2   306  LEU306     -0.2864
    205  CB        12.1240   -0.4980  -66.4530 C.3   306  LEU306      0.0297
    206  CG        13.4450   -0.7960  -67.1620 C.3   306  LEU306      0.0022
    207  CD1       14.2480   -1.7480  -66.3070 C.3   306  LEU306      0.0001
    208  CD2       13.2310   -1.4120  -68.5200 C.3   306  LEU306      0.0001
    209  N         18.4640  -10.2270  -50.6510 N.3   446  ASP446     -0.1239
    210  CA        18.0450   -8.8860  -51.0630 C.3   446  ASP446      0.1674
    211  C         17.1350   -8.3050  -49.9850 C.2   446  ASP446      0.2266
    212  O         15.9200   -8.4520  -50.0370 O.2   446  ASP446     -0.2867
    213  CB        17.3550   -8.9060  -52.4500 C.3   446  ASP446      0.1410
    214  CG        16.8760   -7.5500  -52.9500 C.2   446  ASP446      0.3668
    215  OD1       17.4240   -6.5120  -52.4950 O.co2 446  ASP446     -0.2456
    216  OD2       15.9800   -7.5250  -53.8190 O.co2 446  ASP446     -0.2456
    217  N         16.3450   -2.0160  -48.2730 N.3   449  GLY449     -0.1225
    218  CA        17.5030   -1.1750  -47.9980 C.3   449  GLY449      0.1811
    219  C         17.3130   -0.1190  -46.9440 C.2   449  GLY449      0.2280
    220  O         16.2210    0.4450  -46.8050 O.2   449  GLY449     -0.2866
@<TRIPOS>BOND
     1    69    70    2
     2    69    68    1
     3    62    61    2
     4    68    67    1
     5    68    71    1
     6    57    55   ar
     7    57    58   ar
     8    77    78    2
     9    77    76    1
    10    73    71    1
    11    61    67   am
    12    61    60    1
    13    63    60    1
    14    63    64    1
    15    55    53   ar
    16    75    76    1
    17    58    56   ar
    18    66    64   ar
    19    71    72    1
    20    60    59    1
    21    64    65   ar
    22   197   196    2
    23    76    79    1
    24    59    50   am
    25    53    52    1
    26    53    54   ar
    27   208   206    1
    28    72    74    1
    29    79    80    1
    30    56    54   ar
    31    52    49    1
    32   196   195    1
    33   196   201   am
    34   195   198    1
    35   195   194    1
    36    50    49    1
    37    50    51    2
    38   198   199    1
    39   189   188    2
    40    82    80   ar
    41    82    84   ar
    42   204   203    2
    43    80    81   ar
    44    49    48    1
    45   206   205    1
    46   206   207    1
    47   202   201    1
    48   202   203    1
    49   202   205    1
    50   194   188   am
    51   194   200    1
    52   188   187    1
    53    84    85   ar
    54   199   200    1
    55    81    83   ar
    56    48    38   am
    57   186   187    1
    58    85    83   ar
    59    85    86    1
    60    39    38    2
    61   187   190    1
    62    38    37    1
    63    33    34    1
    64    33    30    1
    65   147   145   ar
    66   147   149   ar
    67    32    31    2
    68    34    35    1
    69   190   191    1
    70   192   191   ar
    71   145   144   ar
    72     1     2    1
    73   149   148   ar
    74     7     5    1
    75    31    30    1
    76    31    36   am
    77   191   193   ar
    78    37    36    1
    79    37    40    1
    80    30    29    1
    81     6     8    1
    82     6     5    1
    83    18    16   ar
    84    18    19   ar
    85    16    14   ar
    86   144   143    1
    87   144   146   ar
    88   142   141    2
    89   148   146   ar
    90     5     2    1
    91    40    41    1
    92     2     3    1
    93    35    29    1
    94   129   128   ar
    95   143   140    1
    96   140   141    1
    97   140   139    1
    98    20    19    1
    99    29    23   am
   100    19    17   ar
   101     9     3   am
   102     9    10    1
   103    12    11    2
   104    14    13    1
   105    14    15   ar
   106    13    10    1
   107     3     4    2
   108   128   130   ar
   109   128   127    1
   110    41    42   ar
   111    41    43   ar
   112    10    11    1
   113    23    24    2
   114    23    22    1
   115    17    15   ar
   116    42    44   ar
   117   127   126    1
   118    27    26    2
   119   125   124    2
   120   165   163   am
   121   126   123    1
   122    43    45   ar
   123   124   123    1
   124   124   131   am
   125   137   136    2
   126   123   122    1
   127    22    21    1
   128    22    25    1
   129    44    46   ar
   130    26    25    1
   131    26    28   am
   132   163   162    1
   133   163   164    2
   134   162   159    1
   135   173   171   am
   136   136   138   am
   137   136   135    1
   138   134   133    2
   139   131   132    1
   140   132   133    1
   141   132   135    1
   142    45    46   ar
   143   171   170    1
   144   171   172    2
   145   170   167    1
   146    46    47    1
   147   122   117   am
   148   118   117    2
   149   117   116    1
   150   159   160    1
   151   159   158    1
   152   161   160    2
   153   160   166   am
   154   166   167    1
   155   167   168    1
   156   105   104    2
   157   158   152   am
   158   121   119    1
   159   103   104    1
   160   103   102    1
   161   156   155    2
   162   104   106   am
   163   100    99    2
   164   116   119    1
   165   116   115    1
   166   119   120    1
   167    96    95    2
   168   168   169    2
   169   168   174   am
   170   102    99   am
   171   152   151    1
   172   152   153    2
   173    99    98    1
   174   155   157   am
   175   155   154    1
   176   115   108   am
   177   109   108    2
   178   108   107    1
   179   106   107    1
   180   151   154    1
   181   151   150    1
   182    95    94    1
   183    95    97   am
   184   174   175    1
   185   107   110    1
   186    94    93    1
   187    98    97    1
   188    98   101    1
   189   216   214   ar
   190   175   176    1
   191   175   178    1
   192   177   176    2
   193    93    89   am
   194   185   184    1
   195   176   180   am
   196   110   111    1
   197   214   215   ar
   198   214   213    1
   199   180   181    1
   200   178   179    1
   201   213   210    1
   202   111   112    1
   203    89    90    2
   204    89    88    1
   205   181   184    1
   206   181   182    1
   207    92    91    1
   208   210   209    1
   209   210   211    1
   210   114   113    1
   211    88    91    1
   212    88    87    1
   213   112   113    1
   214   182   183    2
   215   212   211    2
   216   217   218    1
   217   218   219    1
   218   219   220    2
