@<TRIPOS>MOLECULE
tmp/4pftA00.pdb
 194 197 0 0 0
SMALL
GASTEIGER

@<TRIPOS>ATOM
      1  N        116.3650   97.1020   14.5060 N.3    11  GLY11      -0.1210
      2  CA       117.7980   97.3180   14.4620 C.3    11  GLY11       0.1956
      3  C        118.1130   98.7700   14.1430 C.2    11  GLY11       0.2611
      4  O        119.2380   99.2200   14.3630 O.2    11  GLY11      -0.2717
      5  N        117.1140   99.5070   13.6480 N.am   12  ALA12      -0.1979
      6  CA       117.3180  100.8720   13.1780 C.3    12  ALA12       0.1597
      7  C        116.5030  101.9480   13.9050 C.2    12  ALA12       0.2287
      8  O        116.6220  103.1290   13.5840 O.2    12  ALA12      -0.2864
      9  CB       117.0200  100.9390   11.6540 C.3    12  ALA12       0.0319
     10  N        115.7950  103.7550   17.3370 N.3    14  TRP14      -0.1241
     11  CA       116.4250  103.9330   18.6550 C.3    14  TRP14       0.1605
     12  C        115.9220  105.1930   19.3360 C.2    14  TRP14       0.2264
     13  O        116.5230  105.7000   20.2920 O.2    14  TRP14      -0.2867
     14  CB       117.9540  103.9500   18.5120 C.3    14  TRP14       0.0550
     15  CG       118.4770  102.6280   18.0090 C.ar   14  TRP14       0.0003
     16  CD1      118.7810  102.2950   16.7090 C.ar   14  TRP14       0.0946
     17  CD2      118.7070  101.4480   18.7850 C.ar   14  TRP14       0.0152
     18  NE1      119.2160  100.9840   16.6460 N.ar   14  TRP14      -0.2442
     19  CE2      119.1790  100.4480   17.9060 C.ar   14  TRP14       0.0810
     20  CE3      118.5820  101.1460   20.1470 C.ar   14  TRP14       0.0012
     21  CZ2      119.5190   99.1570   18.3440 C.ar   14  TRP14       0.0191
     22  CZ3      118.9280   99.8680   20.5840 C.ar   14  TRP14       0.0001
     23  CH2      119.3980   98.8900   19.6790 C.ar   14  TRP14       0.0015
     24  N        120.0730   95.9160   22.7580 N.3   210  ASN210     -0.1240
     25  CA       120.2560   94.7250   21.9230 C.3   210  ASN210      0.1653
     26  C        119.8310   93.4390   22.6430 C.2   210  ASN210      0.2266
     27  O        119.3480   92.4920   22.0200 O.2   210  ASN210     -0.2867
     28  CB       121.7170   94.5720   21.5050 C.3   210  ASN210      0.1155
     29  CG       122.1680   95.6350   20.5140 C.2   210  ASN210      0.2627
     30  OD1      121.3600   96.2540   19.8310 O.2   210  ASN210     -0.2716
     31  ND2      123.4680   95.8420   20.4430 N.am  210  ASN210     -0.0877
     32  N        118.4650   93.6770   12.3320 N.3   226  ASN226     -0.1225
     33  CA       119.6800   94.4330   12.0580 C.3   226  ASN226      0.1785
     34  C        120.2670   94.9700   13.3630 C.2   226  ASN226      0.2597
     35  O        120.9210   96.0210   13.3830 O.2   226  ASN226     -0.2718
     36  CB       119.4310   95.5970   11.0910 C.3   226  ASN226      0.1169
     37  CG       119.0530   95.1280    9.6930 C.2   226  ASN226      0.2627
     38  OD1      118.1410   95.6730    9.0780 O.2   226  ASN226     -0.2716
     39  ND2      119.7460   94.1140    9.1930 N.am  226  ASN226     -0.0877
     40  N        120.0260   94.2250   14.4400 N.am  227  PHE227     -0.1962
     41  CA       120.6820   94.4390   15.7250 C.3   227  PHE227      0.1771
     42  C        122.0070   93.7260   15.7390 C.2   227  PHE227      0.2619
     43  O        122.1200   92.6360   15.1760 O.2   227  PHE227     -0.2715
     44  CB       119.8460   93.8680   16.8710 C.3   227  PHE227      0.0574
     45  CG       118.5170   94.5260   17.0550 C.ar  227  PHE227     -0.0200
     46  CD1      118.4020   95.7160   17.7820 C.ar  227  PHE227     -0.0042
     47  CD2      117.3680   93.9330   16.5480 C.ar  227  PHE227     -0.0042
     48  CE1      117.1700   96.3060   17.9740 C.ar  227  PHE227     -0.0003
     49  CE2      116.1330   94.5020   16.7500 C.ar  227  PHE227     -0.0003
     50  CZ       116.0250   95.6960   17.4530 C.ar  227  PHE227     -0.0000
     51  N        122.9990   94.2810   16.4260 N.am  228  PHE228     -0.1974
     52  CA       124.0900   93.4130   16.8310 C.3   228  PHE228      0.1639
     53  C        123.5730   92.4200   17.8750 C.2   228  PHE228      0.2290
     54  O        123.0160   92.8120   18.9130 O.2   228  PHE228     -0.2864
     55  CB       125.2810   94.1700   17.4170 C.3   228  PHE228      0.0560
     56  CG       126.2660   93.2500   18.1020 C.ar  228  PHE228     -0.0200
     57  CD1      127.2700   92.6400   17.3820 C.ar  228  PHE228     -0.0042
     58  CD2      126.1430   92.9620   19.4580 C.ar  228  PHE228     -0.0042
     59  CE1      128.1530   91.7720   18.0070 C.ar  228  PHE228     -0.0003
     60  CE2      127.0210   92.0920   20.0810 C.ar  228  PHE228     -0.0003
     61  CZ       128.0160   91.5000   19.3590 C.ar  228  PHE228     -0.0000
     62  N        130.8680   99.3550    7.4060 N.3   255  ASN255     -0.1240
     63  CA       131.4080  100.7080    7.5420 C.3   255  ASN255      0.1653
     64  C        132.6620  100.7090    8.3890 C.2   255  ASN255      0.2266
     65  O        133.0690   99.6700    8.9140 O.2   255  ASN255     -0.2867
     66  CB       130.3780  101.6370    8.1770 C.3   255  ASN255      0.1155
     67  CG       129.7040  101.0050    9.3810 C.2   255  ASN255      0.2627
     68  OD1      130.3680  100.6490   10.3540 O.2   255  ASN255     -0.2716
     69  ND2      128.3870  100.8710    9.3250 N.am  255  ASN255     -0.0877
     70  N        123.5570   99.8170   22.9000 N.3   366  TRP366     -0.1241
     71  CA       124.3610   99.2840   21.7980 C.3   366  TRP366      0.1605
     72  C        125.4760   98.4630   22.4250 C.2   366  TRP366      0.2264
     73  O        126.6010   98.9410   22.6010 O.2   366  TRP366     -0.2867
     74  CB       124.9160  100.3960   20.9090 C.3   366  TRP366      0.0550
     75  CG       123.8540  101.0780   20.0580 C.ar  366  TRP366      0.0003
     76  CD1      122.4980  101.0590   20.2520 C.ar  366  TRP366      0.0946
     77  CD2      124.0770  101.8550   18.8730 C.ar  366  TRP366      0.0152
     78  NE1      121.8720  101.7860   19.2730 N.ar  366  TRP366     -0.2442
     79  CE2      122.8140  102.2770   18.4090 C.ar  366  TRP366      0.0810
     80  CE3      125.2190  102.2230   18.1520 C.ar  366  TRP366      0.0012
     81  CZ2      122.6600  103.0540   17.2660 C.ar  366  TRP366      0.0191
     82  CZ3      125.0650  102.9910   17.0140 C.ar  366  TRP366      0.0001
     83  CH2      123.7920  103.3950   16.5790 C.ar  366  TRP366      0.0015
     84  N        127.5720   95.9720   21.9590 N.3   368  ASP368     -0.1225
     85  CA       128.9090   95.7490   21.4120 C.3   368  ASP368      0.1805
     86  C        129.7550   97.0040   21.5150 C.2   368  ASP368      0.2597
     87  O        130.9660   96.9280   21.7270 O.2   368  ASP368     -0.2718
     88  CB       128.8540   95.3020   19.9480 C.3   368  ASP368      0.1424
     89  CG       127.9800   96.2000   19.0890 C.2   368  ASP368      0.3668
     90  OD1      126.8910   96.5860   19.5570 O.co2 368  ASP368     -0.2456
     91  OD2      128.3860   96.5270   17.9450 O.co2 368  ASP368     -0.2456
     92  N        129.1190   98.1570   21.3580 N.am  369  TRP369     -0.1976
     93  CA       129.8740   99.4000   21.3980 C.3   369  TRP369      0.1640
     94  C        130.1940   99.7860   22.8380 C.2   369  TRP369      0.2290
     95  O        131.2320  100.3980   23.1040 O.2   369  TRP369     -0.2864
     96  CB       129.1260  100.5150   20.6720 C.3   369  TRP369      0.0576
     97  CG       129.3940  100.4790   19.1810 C.ar  369  TRP369      0.0006
     98  CD1      129.8930   99.4310   18.4730 C.ar  369  TRP369      0.0946
     99  CD2      129.2110  101.5460   18.2430 C.ar  369  TRP369      0.0152
    100  NE1      130.0150   99.7670   17.1460 N.ar  369  TRP369     -0.2442
    101  CE2      129.5980  101.0610   16.9780 C.ar  369  TRP369      0.0810
    102  CE3      128.7400  102.8600   18.3470 C.ar  369  TRP369      0.0012
    103  CZ2      129.5450  101.8470   15.8200 C.ar  369  TRP369      0.0191
    104  CZ3      128.6740  103.6450   17.1770 C.ar  369  TRP369      0.0001
    105  CH2      129.0770  103.1320   15.9420 C.ar  369  TRP369      0.0015
    106  N        120.4110  107.0060   22.9410 N.3   394  TYR394     -0.1241
    107  CA       120.7070  107.2660   21.5410 C.3   394  TYR394      0.1605
    108  C        120.4760  108.7350   21.1820 C.2   394  TYR394      0.2264
    109  O        121.3170  109.3480   20.5330 O.2   394  TYR394     -0.2867
    110  CB       119.8730  106.3710   20.6150 C.3   394  TYR394      0.0534
    111  CG       120.1570  106.6570   19.1640 C.ar  394  TYR394     -0.0201
    112  CD1      121.2420  106.0740   18.5260 C.ar  394  TYR394     -0.0009
    113  CD2      119.3820  107.5680   18.4420 C.ar  394  TYR394     -0.0009
    114  CE1      121.5220  106.3390   17.2120 C.ar  394  TYR394      0.0417
    115  CE2      119.6710  107.8540   17.1130 C.ar  394  TYR394      0.0417
    116  CZ       120.7390  107.2340   16.5070 C.ar  394  TYR394      0.1957
    117  OH       121.0320  107.4920   15.1830 O.3   394  TYR394     -0.2866
    118  N        130.1690  105.5940   13.2580 N.3   412  ASN412     -0.1225
    119  CA       130.3440  104.9940   11.9380 C.3   412  ASN412      0.1785
    120  C        129.2640  105.4340   10.9220 C.2   412  ASN412      0.2597
    121  O        129.0220  104.7290    9.9540 O.2   412  ASN412     -0.2718
    122  CB       130.3010  103.4800   12.0650 C.3   412  ASN412      0.1169
    123  CG       128.9260  102.9940   12.4550 C.2   412  ASN412      0.2627
    124  OD1      128.0840  103.7940   12.8470 O.2   412  ASN412     -0.2716
    125  ND2      128.6840  101.6870   12.3390 N.am  412  ASN412     -0.0877
    126  N        128.6200  106.5760   11.1450 N.am  413  PHE413     -0.1976
    127  CA       127.4390  106.9590   10.3590 C.3   413  PHE413      0.1639
    128  C        127.7490  107.3120    8.9030 C.2   413  PHE413      0.2290
    129  O        126.9360  107.0770    8.0000 O.2   413  PHE413     -0.2864
    130  CB       126.7350  108.1710   10.9890 C.3   413  PHE413      0.0560
    131  CG       125.9480  107.8670   12.2330 C.ar  413  PHE413     -0.0200
    132  CD1      125.8400  106.5830   12.7270 C.ar  413  PHE413     -0.0042
    133  CD2      125.3030  108.8990   12.9150 C.ar  413  PHE413     -0.0042
    134  CE1      125.1100  106.3360   13.8810 C.ar  413  PHE413     -0.0003
    135  CE2      124.5610  108.6490   14.0820 C.ar  413  PHE413     -0.0003
    136  CZ       124.4670  107.3680   14.5580 C.ar  413  PHE413     -0.0000
    137  N        132.8250   97.8590   11.2790 N.3   491  ASN491     -0.1240
    138  CA       131.6410   97.4010   11.9990 C.3   491  ASN491      0.1653
    139  C        130.8440   96.4980   11.0730 C.2   491  ASN491      0.2266
    140  O        130.8990   96.6650    9.8670 O.2   491  ASN491     -0.2867
    141  CB       130.7760   98.5700   12.4820 C.3   491  ASN491      0.1155
    142  CG       130.1230   98.2880   13.8300 C.2   491  ASN491      0.2627
    143  OD1      130.7920   97.8600   14.7660 O.2   491  ASN491     -0.2716
    144  ND2      128.8070   98.4790   13.9170 N.am  491  ASN491     -0.0877
    145  N        125.0620   94.1050   10.4770 N.3   494  TRP494     -0.1241
    146  CA       124.3810   93.1230   11.3330 C.3   494  TRP494      0.1605
    147  C        123.1280   92.6390   10.6650 C.2   494  TRP494      0.2264
    148  O        122.2590   93.4280   10.3020 O.2   494  TRP494     -0.2867
    149  CB       124.0360   93.7070   12.7070 C.3   494  TRP494      0.0550
    150  CG       125.1990   94.4140   13.3330 C.ar  494  TRP494      0.0003
    151  CD1      125.2230   95.6980   13.7820 C.ar  494  TRP494      0.0946
    152  CD2      126.5140   93.8800   13.5590 C.ar  494  TRP494      0.0152
    153  NE1      126.4770   96.0000   14.2810 N.ar  494  TRP494     -0.2442
    154  CE2      127.2800   94.8990   14.1510 C.ar  494  TRP494      0.0810
    155  CE3      127.1150   92.6340   13.3210 C.ar  494  TRP494      0.0012
    156  CZ2      128.6250   94.7170   14.5070 C.ar  494  TRP494      0.0191
    157  CZ3      128.4420   92.4530   13.6710 C.ar  494  TRP494      0.0001
    158  CH2      129.1830   93.4900   14.2570 C.ar  494  TRP494      0.0015
    159  N        118.8230   99.7490    7.8200 N.3   518  TRP518     -0.1227
    160  CA       119.2510  101.0210    8.3960 C.3   518  TRP518      0.1737
    161  C        119.0150  102.1230    7.3760 C.2   518  TRP518      0.2595
    162  O        119.0980  101.8710    6.1720 O.2   518  TRP518     -0.2718
    163  CB       120.7380  100.9920    8.7680 C.3   518  TRP518      0.0564
    164  CG       121.1130  100.0090    9.8090 C.ar  518  TRP518      0.0003
    165  CD1      120.3600   99.6040   10.8830 C.ar  518  TRP518      0.0946
    166  CD2      122.3570   99.3080    9.8950 C.ar  518  TRP518      0.0152
    167  NE1      121.0680   98.6880   11.6330 N.ar  518  TRP518     -0.2442
    168  CE2      122.2900   98.4780   11.0430 C.ar  518  TRP518      0.0810
    169  CE3      123.5140   99.2860    9.1010 C.ar  518  TRP518      0.0012
    170  CZ2      123.3540   97.6540   11.4370 C.ar  518  TRP518      0.0191
    171  CZ3      124.5780   98.4620    9.4840 C.ar  518  TRP518      0.0001
    172  CH2      124.4780   97.6460   10.6470 C.ar  518  TRP518      0.0015
    173  N        118.7210  103.3370    7.8330 N.am  519  ASN519     -0.1974
    174  CA       118.6880  104.4520    6.8920 C.3   519  ASN519      0.1688
    175  C        119.9720  104.5120    6.0630 C.2   519  ASN519      0.2292
    176  O        121.0820  104.3820    6.6080 O.2   519  ASN519     -0.2864
    177  CB       118.4760  105.7900    7.5980 C.3   519  ASN519      0.1181
    178  CG       118.4890  106.9520    6.6160 C.2   519  ASN519      0.2629
    179  OD1      117.6890  106.9910    5.6840 O.2   519  ASN519     -0.2716
    180  ND2      119.4070  107.8850    6.8080 N.am  519  ASN519     -0.0877
    181  N        120.5260  102.3650    3.5870 N.3   521  TRP521     -0.1241
    182  CA       120.8050  101.0420    3.0370 C.3   521  TRP521      0.1605
    183  C        119.6810  100.4670    2.1710 C.2   521  TRP521      0.2264
    184  O        119.9100   99.5380    1.3860 O.2   521  TRP521     -0.2867
    185  CB       121.1500  100.0680    4.1750 C.3   521  TRP521      0.0550
    186  CG       122.5160  100.3060    4.7430 C.ar  521  TRP521      0.0003
    187  CD1      122.8710  101.2890    5.6270 C.ar  521  TRP521      0.0946
    188  CD2      123.7200   99.5650    4.4620 C.ar  521  TRP521      0.0152
    189  NE1      124.2080  101.2010    5.9210 N.ar  521  TRP521     -0.2442
    190  CE2      124.7570  100.1570    5.2140 C.ar  521  TRP521      0.0810
    191  CE3      124.0150   98.4570    3.6620 C.ar  521  TRP521      0.0012
    192  CZ2      126.0680   99.6610    5.2010 C.ar  521  TRP521      0.0191
    193  CZ3      125.3160   97.9720    3.6390 C.ar  521  TRP521      0.0001
    194  CH2      126.3250   98.5720    4.4020 C.ar  521  TRP521      0.0015
@<TRIPOS>BOND
     1   184   183    2
     2   183   182    1
     3   182   181    1
     4   182   185    1
     5   193   191   ar
     6   193   194   ar
     7   191   188   ar
     8   185   186    1
     9   194   192   ar
    10   188   186   ar
    11   188   190   ar
    12   186   187   ar
    13   192   190   ar
    14   190   189   ar
    15   187   189   ar
    16   179   178    2
    17   175   176    2
    18   175   174    1
    19   162   161    2
    20   178   180   am
    21   178   177    1
    22   174   177    1
    23   174   173    1
    24   161   173   am
    25   161   160    1
    26    62    63    1
    27    63    66    1
    28    63    64    1
    29   159   160    1
    30   129   128    2
    31    66    67    1
    32    64    65    2
    33   160   163    1
    34   163   164    1
    35   128   127    1
    36    38    37    2
    37   169   171   ar
    38   169   166   ar
    39    39    37   am
    40    69    67   am
    41    67    68    2
    42   171   172   ar
    43    37    36    1
    44   164   166   ar
    45   164   165   ar
    46   140   139    2
    47   166   168   ar
    48   121   120    2
    49   148   147    2
    50   127   130    1
    51   127   126    1
    52   145   146    1
    53   172   170   ar
    54   147   146    1
    55   165   167   ar
    56   120   126   am
    57   120   119    1
    58   130   131    1
    59   168   170   ar
    60   168   167   ar
    61   139   138    1
    62    36    33    1
    63   137   138    1
    64   146   149    1
    65     9     6    1
    66   119   122    1
    67   119   118    1
    68   138   141    1
    69    33    32    1
    70    33    34    1
    71   122   123    1
    72   131   132   ar
    73   131   133   ar
    74   125   123   am
    75   123   124    2
    76   141   142    1
    77   149   150    1
    78   132   134   ar
    79   133   135   ar
    80     6     5    1
    81     6     7    1
    82   155   152   ar
    83   155   157   ar
    84   150   152   ar
    85   150   151   ar
    86    34    35    2
    87    34    40   am
    88   152   154   ar
    89     8     7    2
    90     5     3   am
    91   157   158   ar
    92   151   153   ar
    93   142   144   am
    94   142   143    2
    95   134   136   ar
    96   135   136   ar
    97     3     4    2
    98     3     2    1
    99   154   153   ar
   100   154   156   ar
   101   158   156   ar
   102    40    41    1
   103     2     1    1
   104    43    42    2
   105   117   116    1
   106    41    42    1
   107    41    44    1
   108    42    51   am
   109   103   105   ar
   110   103   101   ar
   111   105   104   ar
   112    51    52    1
   113   116   115   ar
   114   116   114   ar
   115    47    49   ar
   116    47    45   ar
   117    83    82   ar
   118    83    81   ar
   119    18    16   ar
   120    18    19   ar
   121    16    15   ar
   122    49    50   ar
   123    52    55    1
   124    52    53    1
   125    44    45    1
   126   101   100   ar
   127   101    99   ar
   128    82    80   ar
   129    45    46   ar
   130   115   113   ar
   131   100    98   ar
   132   104   102   ar
   133   114   112   ar
   134    81    79   ar
   135    10    11    1
   136    57    59   ar
   137    57    56   ar
   138    55    56    1
   139    50    48   ar
   140    46    48   ar
   141    53    54    2
   142    19    21   ar
   143    19    17   ar
   144    91    89   ar
   145    59    61   ar
   146    15    14    1
   147    15    17   ar
   148    56    58   ar
   149    80    77   ar
   150    99   102   ar
   151    99    97   ar
   152    21    23   ar
   153    79    77   ar
   154    79    78   ar
   155   113   111   ar
   156    98    97   ar
   157    14    11    1
   158   112   111   ar
   159    11    12    1
   160    17    20   ar
   161    77    75   ar
   162    89    90   ar
   163    89    88    1
   164   111   110    1
   165    97    96    1
   166    78    76   ar
   167    12    13    2
   168    61    60   ar
   169    58    60   ar
   170    23    22   ar
   171    30    29    2
   172    88    85    1
   173    75    76   ar
   174    75    74    1
   175    20    22   ar
   176    31    29   am
   177    29    28    1
   178   109   108    2
   179   110   107    1
   180    96    93    1
   181    74    71    1
   182   108   107    1
   183    92    93    1
   184    92    86   am
   185    93    94    1
   186    85    86    1
   187    85    84    1
   188    28    25    1
   189    86    87    2
   190   107   106    1
   191    71    72    1
   192    71    70    1
   193    25    26    1
   194    25    24    1
   195    27    26    2
   196    72    73    2
   197    94    95    2
