@<TRIPOS>MOLECULE
tmp/4pfuB00.pdb
 167 166 0 0 0
SMALL
GASTEIGER

@<TRIPOS>ATOM
      1  N          0.7040  -29.5590   13.1110 N.3    13  GLY13      -0.1210
      2  CA        -0.1730  -29.2470   11.9980 C.3    13  GLY13       0.1956
      3  C         -0.7160  -27.8340   12.0510 C.2    13  GLY13       0.2612
      4  O         -1.1650  -27.3010   11.0370 O.2    13  GLY13      -0.2717
      5  N         -0.6690  -27.2200   13.2280 N.am   14  SER14      -0.1952
      6  CA        -1.3850  -25.9670   13.4510 C.3    14  SER14       0.1924
      7  C         -0.5150  -24.8170   13.9870 C.2    14  SER14       0.2314
      8  O         -1.0200  -23.7140   14.2440 O.2    14  SER14      -0.2863
      9  CB        -2.5310  -26.2180   14.4200 C.3    14  SER14       0.2116
     10  OG        -2.0230  -26.5840   15.6950 O.3    14  SER14      -0.2180
     11  N          2.4790  -22.4550   13.1030 N.3    16  TRP16      -0.1241
     12  CA         3.2830  -22.0260   11.9590 C.3    16  TRP16       0.1605
     13  C          4.0590  -20.7410   12.2270 C.2    16  TRP16       0.2264
     14  O          4.6610  -20.1790   11.3180 O.2    16  TRP16      -0.2867
     15  CB         2.3870  -21.8690   10.7300 C.3    16  TRP16       0.0550
     16  CG         1.7970  -23.2030   10.3210 C.ar   16  TRP16       0.0003
     17  CD1        0.5930  -23.7200   10.7110 C.ar   16  TRP16       0.0946
     18  CD2        2.4160  -24.1990    9.4990 C.ar   16  TRP16       0.0152
     19  NE1        0.4210  -24.9700   10.1690 N.ar   16  TRP16      -0.2442
     20  CE2        1.5210  -25.2900    9.4190 C.ar   16  TRP16       0.0810
     21  CE3        3.6380  -24.2730    8.8100 C.ar   16  TRP16       0.0012
     22  CZ2        1.8050  -26.4470    8.6860 C.ar   16  TRP16       0.0191
     23  CZ3        3.9160  -25.4220    8.0780 C.ar   16  TRP16       0.0001
     24  CH2        2.9980  -26.4960    8.0250 C.ar   16  TRP16       0.0015
     25  N          5.4030  -28.7570    5.0710 N.3   212  ASN212     -0.1240
     26  CA         4.8340  -30.1000    5.1420 C.3   212  ASN212      0.1653
     27  C          5.8780  -31.1810    4.8930 C.2   212  ASN212      0.2266
     28  O          5.7820  -32.2840    5.4300 O.2   212  ASN212     -0.2867
     29  CB         3.6830  -30.2410    4.1460 C.3   212  ASN212      0.1155
     30  CG         2.4650  -29.4420    4.5590 C.2   212  ASN212      0.2627
     31  OD1        2.2450  -29.2190    5.7390 O.2   212  ASN212     -0.2716
     32  ND2        1.6670  -29.0090    3.5840 N.am  212  ASN212     -0.0877
     33  N         -1.7610  -33.2480   11.9940 N.3   228  ASN228     -0.1225
     34  CA        -2.8090  -32.6200   11.1710 C.3   228  ASN228      0.1785
     35  C         -2.1890  -31.9940    9.9170 C.2   228  ASN228      0.2597
     36  O         -2.8290  -31.2110    9.2420 O.2   228  ASN228     -0.2718
     37  CB        -3.5720  -31.5120   11.9260 C.3   228  ASN228      0.1169
     38  CG        -4.6320  -32.0370   12.9070 C.2   228  ASN228      0.2627
     39  OD1       -4.8630  -31.4120   13.9420 O.2   228  ASN228     -0.2716
     40  ND2       -5.3000  -33.1490   12.5690 N.am  228  ASN228     -0.0877
     41  N         -0.9350  -32.3030    9.6210 N.am  229  PHE229     -0.1962
     42  CA        -0.3090  -31.8080    8.3860 C.3   229  PHE229      0.1771
     43  C         -0.9010  -32.4750    7.1500 C.2   229  PHE229      0.2619
     44  O         -1.1570  -33.6620    7.1650 O.2   229  PHE229     -0.2715
     45  CB         1.2060  -32.0880    8.3810 C.3   229  PHE229      0.0574
     46  CG         1.9780  -31.3820    9.4660 C.ar  229  PHE229     -0.0200
     47  CD1        2.3330  -30.0370    9.3240 C.ar  229  PHE229     -0.0042
     48  CD2        2.3840  -32.0660   10.6020 C.ar  229  PHE229     -0.0042
     49  CE1        3.0520  -29.3840   10.3080 C.ar  229  PHE229     -0.0003
     50  CE2        3.1240  -31.4320   11.5830 C.ar  229  PHE229     -0.0003
     51  CZ         3.4600  -30.0840   11.4450 C.ar  229  PHE229     -0.0000
     52  N         -1.0980  -31.7130    6.0810 N.am  230  MET230     -0.1977
     53  CA        -1.4760  -32.3190    4.8110 C.3   230  MET230      0.1605
     54  C         -0.2530  -32.9810    4.1880 C.2   230  MET230      0.2287
     55  O          0.6930  -32.3020    3.7910 O.2   230  MET230     -0.2864
     56  CB        -2.0670  -31.2870    3.8540 C.3   230  MET230      0.0413
     57  CG        -2.5680  -31.8930    2.5550 C.3   230  MET230      0.0598
     58  SD        -3.8630  -33.1140    2.8450 S.3   230  MET230     -0.1393
     59  CE        -5.1380  -32.0680    3.5490 C.3   230  MET230      0.0692
     60  N        -13.4550  -28.2380    6.4040 N.3   257  THR257     -0.1218
     61  CA       -13.5310  -26.8210    6.0280 C.3   257  THR257      0.1862
     62  C        -13.9360  -26.5880    4.5730 C.2   257  THR257      0.2287
     63  O        -13.8220  -27.4750    3.7230 O.2   257  THR257     -0.2866
     64  CB       -12.1570  -26.0900    6.2400 C.3   257  THR257      0.1770
     65  OG1      -11.1240  -26.7800    5.5230 O.3   257  THR257     -0.2211
     66  CG2      -11.7740  -26.0060    7.7160 C.3   257  THR257      0.0375
     67  N         -4.5610  -33.5720   -4.4540 N.3   293  TYR293     -0.1241
     68  CA        -5.0780  -34.4550   -3.4090 C.3   293  TYR293      0.1605
     69  C         -5.3470  -35.8940   -3.8510 C.2   293  TYR293      0.2264
     70  O         -5.8410  -36.7000   -3.0620 O.2   293  TYR293     -0.2867
     71  CB        -6.3560  -33.8470   -2.8160 C.3   293  TYR293      0.0534
     72  CG        -6.0840  -32.5140   -2.1730 C.ar  293  TYR293     -0.0201
     73  CD1       -5.4510  -32.4400   -0.9320 C.ar  293  TYR293     -0.0009
     74  CD2       -6.4340  -31.3290   -2.8080 C.ar  293  TYR293     -0.0009
     75  CE1       -5.1790  -31.2270   -0.3430 C.ar  293  TYR293      0.0417
     76  CE2       -6.1720  -30.1030   -2.2250 C.ar  293  TYR293      0.0417
     77  CZ        -5.5360  -30.0610   -0.9980 C.ar  293  TYR293      0.1957
     78  OH        -5.2780  -28.8500   -0.4280 O.3   293  TYR293     -0.2866
     79  N          2.8800  -24.5450    3.0500 N.3   368  TRP368     -0.1241
     80  CA         1.6090  -25.2570    2.9080 C.3   368  TRP368      0.1605
     81  C          1.5590  -25.8060    1.4850 C.2   368  TRP368      0.2264
     82  O          0.9150  -25.2310    0.5830 O.2   368  TRP368     -0.2867
     83  CB         0.4150  -24.3370    3.1990 C.3   368  TRP368      0.0550
     84  CG         0.3050  -23.9270    4.6610 C.ar  368  TRP368      0.0003
     85  CD1        1.2930  -23.9630    5.6070 C.ar  368  TRP368      0.0946
     86  CD2       -0.8660  -23.4290    5.3230 C.ar  368  TRP368      0.0152
     87  NE1        0.8120  -23.5060    6.8180 N.ar  368  TRP368     -0.2442
     88  CE2       -0.5120  -23.1740    6.6690 C.ar  368  TRP368      0.0810
     89  CE3       -2.1800  -23.1580    4.9010 C.ar  368  TRP368      0.0012
     90  CZ2       -1.4260  -22.6670    7.6040 C.ar  368  TRP368      0.0191
     91  CZ3       -3.0880  -22.6630    5.8240 C.ar  368  TRP368      0.0001
     92  CH2       -2.7040  -22.4230    7.1680 C.ar  368  TRP368      0.0015
     93  N          0.4260  -28.1990   -0.3910 N.3   370  ASP370     -0.1225
     94  CA        -0.7630  -28.5240   -1.1790 C.3   370  ASP370      0.1805
     95  C         -1.4200  -27.2440   -1.7030 C.2   370  ASP370      0.2597
     96  O         -1.8090  -27.1700   -2.8750 O.2   370  ASP370     -0.2718
     97  CB        -1.7670  -29.3650   -0.3580 C.3   370  ASP370      0.1424
     98  CG        -2.1430  -28.7140    0.9930 C.2   370  ASP370      0.3668
     99  OD1       -1.2680  -28.1010    1.6340 O.co2 370  ASP370     -0.2456
    100  OD2       -3.3180  -28.8200    1.4180 O.co2 370  ASP370     -0.2456
    101  N         -1.5310  -26.2240   -0.8570 N.am  371  TRP371     -0.1976
    102  CA        -2.1380  -24.9730   -1.3150 C.3   371  TRP371      0.1640
    103  C         -1.2210  -24.2390   -2.3030 C.2   371  TRP371      0.2290
    104  O         -1.6960  -23.6200   -3.2560 O.2   371  TRP371     -0.2864
    105  CB        -2.4910  -24.0570   -0.1360 C.3   371  TRP371      0.0576
    106  CG        -3.7660  -24.4380    0.5930 C.ar  371  TRP371      0.0006
    107  CD1       -4.4500  -25.6220    0.5040 C.ar  371  TRP371      0.0946
    108  CD2       -4.4970  -23.6210    1.5220 C.ar  371  TRP371      0.0152
    109  NE1       -5.5600  -25.5900    1.3250 N.ar  371  TRP371     -0.2442
    110  CE2       -5.6100  -24.3760    1.9600 C.ar  371  TRP371      0.0810
    111  CE3       -4.3130  -22.3250    2.0320 C.ar  371  TRP371      0.0012
    112  CZ2       -6.5350  -23.8800    2.8890 C.ar  371  TRP371      0.0191
    113  CZ3       -5.2410  -21.8250    2.9400 C.ar  371  TRP371      0.0001
    114  CH2       -6.3350  -22.5990    3.3570 C.ar  371  TRP371      0.0015
    115  N         -1.3590  -14.2660    7.7030 N.3   400  TYR400     -0.1241
    116  CA        -2.4760  -13.9150    8.5870 C.3   400  TYR400      0.1605
    117  C         -2.5870  -12.4090    8.7780 C.2   400  TYR400      0.2264
    118  O         -3.6940  -11.8750    8.8500 O.2   400  TYR400     -0.2867
    119  CB        -2.3510  -14.6340    9.9420 C.3   400  TYR400      0.0534
    120  CG        -2.7700  -16.0850    9.8300 C.ar  400  TYR400     -0.0201
    121  CD1       -4.1110  -16.4300    9.6710 C.ar  400  TYR400     -0.0009
    122  CD2       -1.8280  -17.1010    9.8190 C.ar  400  TYR400     -0.0009
    123  CE1       -4.4990  -17.7610    9.5370 C.ar  400  TYR400      0.0417
    124  CE2       -2.2000  -18.4220    9.6950 C.ar  400  TYR400      0.0417
    125  CZ        -3.5310  -18.7510    9.5520 C.ar  400  TYR400      0.1957
    126  OH        -3.8820  -20.0790    9.4170 O.3   400  TYR400     -0.2866
    127  N         -9.2630  -20.8920    4.3580 N.3   414  ALA414     -0.1231
    128  CA       -10.1920  -21.8140    5.0100 C.3   414  ALA414      0.1694
    129  C        -10.2870  -21.4280    6.4870 C.2   414  ALA414      0.2592
    130  O        -10.4460  -22.2770    7.3580 O.2   414  ALA414     -0.2718
    131  CB        -9.7330  -23.2540    4.8550 C.3   414  ALA414      0.0304
    132  N        -10.1850  -20.1290    6.7470 N.am  415  ASN415     -0.1960
    133  CA       -10.1510  -19.5840    8.1010 C.3   415  ASN415      0.1819
    134  C        -11.5350  -19.1210    8.5570 C.2   415  ASN415      0.2621
    135  O        -11.9510  -17.9960    8.2630 O.2   415  ASN415     -0.2715
    136  CB        -9.1660  -18.4060    8.1630 C.3   415  ASN415      0.1195
    137  CG        -8.6800  -18.1140    9.5870 C.2   415  ASN415      0.2630
    138  OD1       -9.0510  -17.1080   10.2050 O.2   415  ASN415     -0.2716
    139  ND2       -7.8530  -18.9930   10.1030 N.am  415  ASN415     -0.0877
    140  N        -12.2560  -19.9780    9.2640 N.am  416  GLY416     -0.1954
    141  CA       -13.5830  -19.6180    9.7300 C.3   416  GLY416      0.1869
    142  C        -14.6720  -20.3920    9.0220 C.2   416  GLY416      0.2309
    143  O        -15.8360  -20.3050    9.3920 O.2   416  GLY416     -0.2863
    144  N         -6.8520  -33.4620    7.5880 N.3   498  ALA498     -0.1245
    145  CA        -5.7340  -34.3930    7.5970 C.3   498  ALA498      0.1562
    146  C         -5.4700  -34.8600    9.0270 C.2   498  ALA498      0.2260
    147  O         -5.3280  -34.0470    9.9360 O.2   498  ALA498     -0.2867
    148  CB        -4.5030  -33.7540    7.0040 C.3   498  ALA498      0.0290
    149  N         -6.1420  -27.8640   15.6970 N.3   522  TRP522     -0.1227
    150  CA        -6.0290  -26.4470   15.3460 C.3   522  TRP522      0.1737
    151  C         -6.2910  -25.5890   16.5680 C.2   522  TRP522      0.2595
    152  O         -6.9950  -26.0200   17.4840 O.2   522  TRP522     -0.2718
    153  CB        -7.0190  -26.0690   14.2570 C.3   522  TRP522      0.0564
    154  CG        -6.8970  -26.8780   13.0160 C.ar  522  TRP522      0.0003
    155  CD1       -5.8760  -27.7080   12.6670 C.ar  522  TRP522      0.0946
    156  CD2       -7.8580  -26.9480   11.9590 C.ar  522  TRP522      0.0152
    157  NE1       -6.1420  -28.2880   11.4540 N.ar  522  TRP522     -0.2442
    158  CE2       -7.3550  -27.8390   11.0010 C.ar  522  TRP522      0.0810
    159  CE3       -9.0990  -26.3390   11.7360 C.ar  522  TRP522      0.0012
    160  CZ2       -8.0450  -28.1400    9.8260 C.ar  522  TRP522      0.0191
    161  CZ3       -9.7830  -26.6400   10.5730 C.ar  522  TRP522      0.0001
    162  CH2       -9.2540  -27.5300    9.6350 C.ar  522  TRP522      0.0015
    163  N         -5.7290  -24.3860   16.5940 N.am  523  ALA523     -0.1980
    164  CA        -6.0400  -23.4510   17.6640 C.3   523  ALA523      0.1597
    165  C         -7.5520  -23.2900   17.7600 C.2   523  ALA523      0.2287
    166  O         -8.2340  -23.1840   16.7350 O.2   523  ALA523     -0.2864
    167  CB        -5.3760  -22.0890   17.4190 C.3   523  ALA523      0.0319
@<TRIPOS>BOND
     1    67    68    1
     2    69    68    1
     3    69    70    2
     4    68    71    1
     5   104   103    2
     6    96    95    2
     7    71    72    1
     8    74    76   ar
     9    74    72   ar
    10   103   102    1
    11    76    77   ar
    12    72    73   ar
    13    95    94    1
    14    95   101   am
    15   102   101    1
    16   102   105    1
    17    94    93    1
    18    94    97    1
    19    77    78    1
    20    77    75   ar
    21    73    75   ar
    22    97    98    1
    23   105   106    1
    24   107   106   ar
    25   107   109   ar
    26    82    81    2
    27   106   108   ar
    28    98   100   ar
    29    98    99   ar
    30   109   110   ar
    31    81    80    1
    32   108   110   ar
    33   108   111   ar
    34   110   112   ar
    35   111   113   ar
    36    57    58    1
    37    57    56    1
    38    58    59    1
    39   112   114   ar
    40    80    79    1
    41    80    83    1
    42   113   114   ar
    43    83    84    1
    44    32    30   am
    45    63    62    2
    46    55    54    2
    47    56    53    1
    48    29    30    1
    49    29    26    1
    50    54    53    1
    51   127   128    1
    52    30    31    2
    53    62    61    1
    54    84    86   ar
    55    84    85   ar
    56    53    52    1
    57   131   128    1
    58    27    26    1
    59    27    28    2
    60    89    86   ar
    61    89    91   ar
    62   128   129    1
    63    25    26    1
    64    86    88   ar
    65    65    64    1
    66    85    87   ar
    67    91    92   ar
    68    61    64    1
    69    61    60    1
    70    52    43   am
    71    64    66    1
    72   129   132   am
    73   129   130    2
    74    88    87   ar
    75    88    90   ar
    76   132   133    1
    77   148   145    1
    78    43    44    2
    79    43    42    1
    80    92    90   ar
    81   144   145    1
    82   145   146    1
    83   115   116    1
    84    24    23   ar
    85    24    22   ar
    86    23    21   ar
    87   133   136    1
    88   133   134    1
    89   136   137    1
    90   135   134    2
    91    45    42    1
    92    45    46    1
    93    42    41    1
    94   134   140   am
    95   116   117    1
    96   116   119    1
    97    22    20   ar
    98   117   118    2
    99    21    18   ar
   100   142   143    2
   101   142   141    1
   102   146   147    2
   103    36    35    2
   104   140   141    1
   105    47    46   ar
   106    47    49   ar
   107   126   125    1
   108    20    18   ar
   109    20    19   ar
   110    46    48   ar
   111    18    16   ar
   112   123   125   ar
   113   123   121   ar
   114   125   124   ar
   115   137   139   am
   116   137   138    2
   117    41    35   am
   118   162   160   ar
   119   162   161   ar
   120   121   120   ar
   121   124   122   ar
   122   122   120   ar
   123   160   158   ar
   124   120   119    1
   125    35    34    1
   126    19    17   ar
   127    49    51   ar
   128    16    17   ar
   129    16    15    1
   130   161   159   ar
   131    48    50   ar
   132    15    12    1
   133   158   157   ar
   134   158   156   ar
   135     4     3    2
   136    34    37    1
   137    34    33    1
   138    14    13    2
   139    51    50   ar
   140   157   155   ar
   141   159   156   ar
   142    37    38    1
   143   156   154   ar
   144    12    13    1
   145    12    11    1
   146     2     3    1
   147     2     1    1
   148     3     5   am
   149    40    38   am
   150   155   154   ar
   151    38    39    2
   152   154   153    1
   153     5     6    1
   154     6     7    1
   155     6     9    1
   156     7     8    2
   157   153   150    1
   158     9    10    1
   159   150   149    1
   160   150   151    1
   161   151   163   am
   162   151   152    2
   163   163   164    1
   164   166   165    2
   165   167   164    1
   166   164   165    1
