@<TRIPOS>MOLECULE
tmp/4pfyB00.pdb
 235 240 0 0 0
SMALL
GASTEIGER

@<TRIPOS>ATOM
      1  N         19.9210   -9.5770   14.4500 N.3    11  GLY11      -0.1210
      2  CA        21.3610   -9.3180   14.3960 C.3    11  GLY11       0.1956
      3  C         21.7060   -7.8730   14.1430 C.2    11  GLY11       0.2611
      4  O         22.8380   -7.4530   14.3970 O.2    11  GLY11      -0.2717
      5  N         20.7320   -7.0900   13.6450 N.am   12  ALA12      -0.1979
      6  CA        20.9710   -5.7100   13.2810 C.3    12  ALA12       0.1597
      7  C         20.0980   -4.6960   14.0090 C.2    12  ALA12       0.2287
      8  O         20.1970   -3.4910   13.7550 O.2    12  ALA12      -0.2864
      9  CB        20.7900   -5.5720   11.7670 C.3    12  ALA12       0.0319
     10  N         19.3900   -3.0020   17.4300 N.3    14  TRP14      -0.1241
     11  CA        19.9930   -2.8490   18.7530 C.3    14  TRP14       0.1605
     12  C         19.4610   -1.6060   19.4510 C.2    14  TRP14       0.2264
     13  O         20.0310   -1.1320   20.4290 O.2    14  TRP14      -0.2867
     14  CB        21.5180   -2.8260   18.6360 C.3    14  TRP14       0.0550
     15  CG        22.0550   -4.1500   18.1310 C.ar   14  TRP14       0.0003
     16  CD1       22.3890   -4.4790   16.8400 C.ar   14  TRP14       0.0946
     17  CD2       22.2540   -5.3240   18.9100 C.ar   14  TRP14       0.0152
     18  NE1       22.8150   -5.7780   16.7760 N.ar   14  TRP14      -0.2442
     19  CE2       22.7340   -6.3410   18.0280 C.ar   14  TRP14       0.0810
     20  CE3       22.0730   -5.6350   20.2640 C.ar   14  TRP14       0.0012
     21  CZ2       23.0550   -7.6210   18.4720 C.ar   14  TRP14       0.0191
     22  CZ3       22.4090   -6.9080   20.7070 C.ar   14  TRP14       0.0001
     23  CH2       22.8990   -7.8920   19.8030 C.ar   14  TRP14       0.0015
     24  N         20.1110    6.4210    7.1610 N.3    25  PRO25      -0.2102
     25  CA        20.1530    4.9780    7.4230 C.3    25  PRO25       0.1504
     26  C         20.8680    4.6150    8.7230 C.2    25  PRO25       0.2575
     27  O         20.7230    3.4860    9.1850 O.2    25  PRO25      -0.2718
     28  CB        20.8880    4.4220    6.2060 C.3    25  PRO25       0.0282
     29  CG        21.6710    5.5900    5.6670 C.3    25  PRO25       0.0208
     30  CD        20.8250    6.7810    5.9230 C.3    25  PRO25       0.0893
     31  N         21.6130    5.5500    9.3080 N.am   26  TRP26      -0.1977
     32  CA        22.2500    5.3120   10.6050 C.3    26  TRP26       0.1640
     33  C         21.2240    5.1910   11.7410 C.2    26  TRP26       0.2290
     34  O         21.5070    4.5720   12.7760 O.2    26  TRP26      -0.2864
     35  CB        23.2820    6.4040   10.9290 C.3    26  TRP26       0.0576
     36  CG        22.7490    7.8030   10.7940 C.ar   26  TRP26       0.0006
     37  CD1       22.1400    8.5470   11.7630 C.ar   26  TRP26       0.0946
     38  CD2       22.8110    8.6310    9.6320 C.ar   26  TRP26       0.0152
     39  NE1       21.8060    9.7830   11.2700 N.ar   26  TRP26      -0.2442
     40  CE2       22.2100    9.8590    9.9610 C.ar   26  TRP26       0.0810
     41  CE3       23.3140    8.4470    8.3390 C.ar   26  TRP26       0.0012
     42  CZ2       22.1020   10.9040    9.0510 C.ar   26  TRP26       0.0191
     43  CZ3       23.2000    9.4900    7.4300 C.ar   26  TRP26       0.0001
     44  CH2       22.5940   10.6960    7.7920 C.ar   26  TRP26       0.0015
     45  N         23.6560  -10.9290   22.8080 N.3   210  ASN210     -0.1240
     46  CA        23.8080  -12.1000   21.9420 C.3   210  ASN210      0.1653
     47  C         23.3900  -13.3990   22.6290 C.2   210  ASN210      0.2266
     48  O         22.9010  -14.3180   21.9740 O.2   210  ASN210     -0.2867
     49  CB        25.2470  -12.2670   21.4910 C.3   210  ASN210      0.1155
     50  CG        25.7010  -11.1950   20.5290 C.2   210  ASN210      0.2627
     51  OD1       24.8940  -10.5600   19.8460 O.2   210  ASN210     -0.2716
     52  ND2       27.0060  -10.9980   20.4500 N.am  210  ASN210     -0.0877
     53  N         22.0520  -13.0670   12.2250 N.3   226  ASN226     -0.1225
     54  CA        23.2390  -12.2980   11.9360 C.3   226  ASN226      0.1785
     55  C         23.8300  -11.7760   13.2490 C.2   226  ASN226      0.2597
     56  O         24.4610  -10.7180   13.2730 O.2   226  ASN226     -0.2718
     57  CB        22.9580  -11.1420   10.9740 C.3   226  ASN226      0.1169
     58  CG        22.5700  -11.6010    9.5880 C.2   226  ASN226      0.2627
     59  OD1       21.6840  -11.0140    8.9590 O.2   226  ASN226     -0.2716
     60  ND2       23.2330  -12.6310    9.0900 N.am  226  ASN226     -0.0877
     61  N         23.5950  -12.5190   14.3310 N.am  227  PHE227     -0.1962
     62  CA        24.2600  -12.3020   15.6200 C.3   227  PHE227      0.1771
     63  C         25.5900  -13.0210   15.6370 C.2   227  PHE227      0.2619
     64  O         25.6990  -14.1170   15.0770 O.2   227  PHE227     -0.2715
     65  CB        23.4360  -12.8600   16.7700 C.3   227  PHE227      0.0574
     66  CG        22.1230  -12.1770   16.9890 C.ar  227  PHE227     -0.0200
     67  CD1       22.0530  -10.9970   17.7230 C.ar  227  PHE227     -0.0042
     68  CD2       20.9530  -12.7430   16.5010 C.ar  227  PHE227     -0.0042
     69  CE1       20.8260  -10.3720   17.9510 C.ar  227  PHE227     -0.0003
     70  CE2       19.7280  -12.1410   16.7380 C.ar  227  PHE227     -0.0003
     71  CZ        19.6650  -10.9340   17.4480 C.ar  227  PHE227     -0.0000
     72  N         26.5830  -12.4800   16.3300 N.am  228  PHE228     -0.1974
     73  CA        27.6610  -13.3470   16.7450 C.3   228  PHE228      0.1639
     74  C         27.1350  -14.3070   17.8070 C.2   228  PHE228      0.2290
     75  O         26.5950  -13.8710   18.8230 O.2   228  PHE228     -0.2864
     76  CB        28.8710  -12.5950   17.3010 C.3   228  PHE228      0.0560
     77  CG        29.9210  -13.5440   17.8440 C.ar  228  PHE228     -0.0200
     78  CD1       30.8330  -14.1090   16.9830 C.ar  228  PHE228     -0.0042
     79  CD2       29.9100  -13.9310   19.1690 C.ar  228  PHE228     -0.0042
     80  CE1       31.7670  -15.0240   17.4490 C.ar  228  PHE228     -0.0003
     81  CE2       30.8600  -14.8420   19.6370 C.ar  228  PHE228     -0.0003
     82  CZ        31.7600  -15.3770   18.7680 C.ar  228  PHE228     -0.0000
     83  N         34.5390   -7.3280    7.1980 N.3   255  ASN255     -0.1240
     84  CA        35.0260   -5.9580    7.3920 C.3   255  ASN255      0.1653
     85  C         36.2690   -5.9700    8.2460 C.2   255  ASN255      0.2266
     86  O         36.6630   -7.0170    8.7830 O.2   255  ASN255     -0.2867
     87  CB        33.9450   -5.0920    8.0580 C.3   255  ASN255      0.1155
     88  CG        33.3610   -5.7540    9.2840 C.2   255  ASN255      0.2627
     89  OD1       34.0530   -5.9820   10.2680 O.2   255  ASN255     -0.2716
     90  ND2       32.0490   -6.0480    9.2410 N.am  255  ASN255     -0.0877
     91  N         27.1570   -7.0300   22.8520 N.3   366  TRP366     -0.1241
     92  CA        27.9530   -7.5340   21.7410 C.3   366  TRP366      0.1605
     93  C         29.0870   -8.3290   22.3400 C.2   366  TRP366      0.2264
     94  O         30.2170   -7.8410   22.4810 O.2   366  TRP366     -0.2867
     95  CB        28.4600   -6.3920   20.8690 C.3   366  TRP366      0.0550
     96  CG        27.4030   -5.6820   20.0650 C.ar  366  TRP366      0.0003
     97  CD1       26.0500   -5.6790   20.3080 C.ar  366  TRP366      0.0946
     98  CD2       27.6030   -4.8740   18.8980 C.ar  366  TRP366      0.0152
     99  NE1       25.4160   -4.9210   19.3690 N.ar  366  TRP366     -0.2442
    100  CE2       26.3410   -4.4330   18.4690 C.ar  366  TRP366      0.0810
    101  CE3       28.7310   -4.5010   18.1440 C.ar  366  TRP366      0.0012
    102  CZ2       26.1720   -3.6210   17.3500 C.ar  366  TRP366      0.0191
    103  CZ3       28.5630   -3.7110   17.0300 C.ar  366  TRP366      0.0001
    104  CH2       27.2850   -3.2670   16.6430 C.ar  366  TRP366      0.0015
    105  N         31.1670  -10.7880   21.8860 N.3   368  ASP368     -0.1225
    106  CA        32.4960  -11.0060   21.3210 C.3   368  ASP368      0.1805
    107  C         33.3400   -9.7500   21.3970 C.2   368  ASP368      0.2597
    108  O         34.5540   -9.8370   21.6100 O.2   368  ASP368     -0.2718
    109  CB        32.4080  -11.4830   19.8690 C.3   368  ASP368      0.1424
    110  CG        31.5460  -10.6020   19.0030 C.2   368  ASP368      0.3668
    111  OD1       30.4590  -10.2210   19.4550 O.co2 368  ASP368     -0.2456
    112  OD2       31.9770  -10.2840   17.8680 O.co2 368  ASP368     -0.2456
    113  N         32.7140   -8.5880   21.2220 N.am  369  TRP369     -0.1976
    114  CA        33.4620   -7.3450   21.3040 C.3   369  TRP369      0.1640
    115  C         33.7790   -6.9820   22.7330 C.2   369  TRP369      0.2290
    116  O         34.8070   -6.3740   22.9880 O.2   369  TRP369     -0.2864
    117  CB        32.7250   -6.2060   20.5990 C.3   369  TRP369      0.0576
    118  CG        32.9600   -6.2470   19.0980 C.ar  369  TRP369      0.0006
    119  CD1       33.4620   -7.2990   18.3830 C.ar  369  TRP369      0.0946
    120  CD2       32.7480   -5.1780   18.1480 C.ar  369  TRP369      0.0152
    121  NE1       33.5640   -6.9490   17.0490 N.ar  369  TRP369     -0.2442
    122  CE2       33.1350   -5.6610   16.8850 C.ar  369  TRP369      0.0810
    123  CE3       32.2740   -3.8670   18.2490 C.ar  369  TRP369      0.0012
    124  CZ2       33.0440   -4.8730   15.7250 C.ar  369  TRP369      0.0191
    125  CZ3       32.1870   -3.0890   17.1020 C.ar  369  TRP369      0.0001
    126  CH2       32.5610   -3.5890   15.8690 C.ar  369  TRP369      0.0015
    127  N         24.0100    0.2420   23.1240 N.3   394  TYR394     -0.1241
    128  CA        24.2790    0.5410   21.7270 C.3   394  TYR394      0.1605
    129  C         24.0300    2.0070   21.3640 C.2   394  TYR394      0.2264
    130  O         24.8310    2.6250   20.6690 O.2   394  TYR394     -0.2867
    131  CB        23.4430   -0.3430   20.7790 C.3   394  TYR394      0.0534
    132  CG        23.7310    0.0150   19.3500 C.ar  394  TYR394     -0.0201
    133  CD1       24.8600   -0.4890   18.7070 C.ar  394  TYR394     -0.0009
    134  CD2       22.9380    0.9280   18.6600 C.ar  394  TYR394     -0.0009
    135  CE1       25.1570   -0.1240   17.4200 C.ar  394  TYR394      0.0417
    136  CE2       23.2460    1.2970   17.3660 C.ar  394  TYR394      0.0417
    137  CZ        24.3640    0.7690   16.7590 C.ar  394  TYR394      0.1957
    138  OH        24.6670    1.1430   15.4670 O.3   394  TYR394     -0.2866
    139  N         29.8250    8.4720   16.6010 N.3   402  TYR402     -0.1241
    140  CA        29.5470    9.4760   15.5870 C.3   402  TYR402      0.1605
    141  C         30.0260   10.8650   16.0030 C.2   402  TYR402      0.2264
    142  O         30.4750   11.6530   15.1580 O.2   402  TYR402     -0.2867
    143  CB        28.0410    9.5120   15.2800 C.3   402  TYR402      0.0534
    144  CG        27.4770    8.2120   14.7390 C.ar  402  TYR402     -0.0201
    145  CD1       28.2210    7.3630   13.9150 C.ar  402  TYR402     -0.0009
    146  CD2       26.1690    7.8360   15.0470 C.ar  402  TYR402     -0.0009
    147  CE1       27.6700    6.1790   13.4200 C.ar  402  TYR402      0.0417
    148  CE2       25.6210    6.6710   14.5550 C.ar  402  TYR402      0.0417
    149  CZ        26.3750    5.8460   13.7510 C.ar  402  TYR402      0.1957
    150  OH        25.8310    4.6720   13.2600 O.3   402  TYR402     -0.2866
    151  N         33.7500   -1.1060   13.1610 N.3   412  ASN412     -0.1225
    152  CA        33.9450   -1.6790   11.8320 C.3   412  ASN412      0.1785
    153  C         32.8550   -1.2380   10.8490 C.2   412  ASN412      0.2597
    154  O         32.6120   -1.9210    9.8620 O.2   412  ASN412     -0.2718
    155  CB        33.9260   -3.2030   11.9400 C.3   412  ASN412      0.1169
    156  CG        32.5630   -3.7200   12.3650 C.2   412  ASN412      0.2627
    157  OD1       31.7000   -2.9240   12.7690 O.2   412  ASN412     -0.2716
    158  ND2       32.3560   -5.0430   12.2870 N.am  412  ASN412     -0.0877
    159  N         32.2070   -0.1070   11.1250 N.am  413  PHE413     -0.1976
    160  CA        31.0170    0.2730   10.3440 C.3   413  PHE413      0.1639
    161  C         31.3210    0.6890    8.9210 C.2   413  PHE413      0.2290
    162  O         30.4440    0.5790    8.0370 O.2   413  PHE413     -0.2864
    163  CB        30.2580    1.4140   11.0120 C.3   413  PHE413      0.0560
    164  CG        29.4780    1.0360   12.2430 C.ar  413  PHE413     -0.0200
    165  CD1       29.4120   -0.2660   12.6920 C.ar  413  PHE413     -0.0042
    166  CD2       28.8020    2.0210   12.9630 C.ar  413  PHE413     -0.0042
    167  CE1       28.6860   -0.5900   13.8290 C.ar  413  PHE413     -0.0003
    168  CE2       28.0800    1.7030   14.1000 C.ar  413  PHE413     -0.0003
    169  CZ        28.0270    0.3840   14.5420 C.ar  413  PHE413     -0.0000
    170  N         33.7440   -2.0890    5.5800 N.3   416  GLY416     -0.1225
    171  CA        33.2200   -3.3060    5.0050 C.3   416  GLY416      0.1811
    172  C         33.5960   -3.5910    3.5690 C.2   416  GLY416      0.2280
    173  O         34.0200   -2.7040    2.8200 O.2   416  GLY416     -0.2866
    174  N         36.4030   -8.8570   11.1040 N.3   491  ASN491     -0.1240
    175  CA        35.2270   -9.3320   11.8130 C.3   491  ASN491      0.1653
    176  C         34.3990  -10.1560   10.8440 C.2   491  ASN491      0.2266
    177  O         34.3750   -9.8730    9.6390 O.2   491  ASN491     -0.2867
    178  CB        34.4230   -8.1460   12.3740 C.3   491  ASN491      0.1155
    179  CG        33.7560   -8.4590   13.7230 C.2   491  ASN491      0.2627
    180  OD1       34.4040   -8.9100   14.6680 O.2   491  ASN491     -0.2716
    181  ND2       32.4660   -8.2010   13.8090 N.am  491  ASN491     -0.0877
    182  N         28.6240  -12.5920   10.2800 N.3   494  TRP494     -0.1241
    183  CA        28.0020  -13.5920   11.1510 C.3   494  TRP494      0.1605
    184  C         26.7280  -14.0930   10.5350 C.2   494  TRP494      0.2264
    185  O         25.8330  -13.3120   10.2160 O.2   494  TRP494     -0.2867
    186  CB        27.7050  -13.0330   12.5440 C.3   494  TRP494      0.0550
    187  CG        28.8560  -12.3010   13.1820 C.ar  494  TRP494      0.0003
    188  CD1       28.8370  -11.0440   13.7050 C.ar  494  TRP494      0.0946
    189  CD2       30.2080  -12.7930   13.3780 C.ar  494  TRP494      0.0152
    190  NE1       30.0750  -10.7140   14.2050 N.ar  494  TRP494     -0.2442
    191  CE2       30.9280  -11.7670   14.0210 C.ar  494  TRP494      0.0810
    192  CE3       30.8590  -13.9940   13.0770 C.ar  494  TRP494      0.0012
    193  CZ2       32.2670  -11.9020   14.3670 C.ar  494  TRP494      0.0191
    194  CZ3       32.2020  -14.1330   13.4230 C.ar  494  TRP494      0.0001
    195  CH2       32.8910  -13.0880   14.0590 C.ar  494  TRP494      0.0015
    196  N         22.3560   -6.9020    7.8110 N.3   518  TRP518     -0.1227
    197  CA        22.7920   -5.6140    8.3430 C.3   518  TRP518      0.1737
    198  C         22.5390   -4.5200    7.3100 C.2   518  TRP518      0.2595
    199  O         22.5980   -4.7850    6.1090 O.2   518  TRP518     -0.2718
    200  CB        24.2730   -5.6490    8.7050 C.3   518  TRP518      0.0564
    201  CG        24.6790   -6.7040    9.7010 C.ar  518  TRP518      0.0003
    202  CD1       23.9280   -7.2090   10.7390 C.ar  518  TRP518      0.0946
    203  CD2       25.9410   -7.3640    9.7580 C.ar  518  TRP518      0.0152
    204  NE1       24.6620   -8.1520   11.4280 N.ar  518  TRP518     -0.2442
    205  CE2       25.8970   -8.2650   10.8360 C.ar  518  TRP518      0.0810
    206  CE3       27.1070   -7.2810    8.9890 C.ar  518  TRP518      0.0012
    207  CZ2       26.9900   -9.0820   11.1810 C.ar  518  TRP518      0.0191
    208  CZ3       28.2010   -8.1040    9.3230 C.ar  518  TRP518      0.0001
    209  CH2       28.1200   -8.9810   10.4090 C.ar  518  TRP518      0.0015
    210  N         22.2810   -3.3000    7.7460 N.am  519  ASN519     -0.1960
    211  CA        22.2130   -2.2190    6.7940 C.3   519  ASN519      0.1819
    212  C         23.4990   -2.1380    5.9900 C.2   519  ASN519      0.2622
    213  O         24.6060   -2.1670    6.5690 O.2   519  ASN519     -0.2715
    214  CB        21.9320   -0.8810    7.4800 C.3   519  ASN519      0.1195
    215  CG        21.9900    0.2630    6.5060 C.2   519  ASN519      0.2630
    216  OD1       21.1870    0.3210    5.5760 O.2   519  ASN519     -0.2716
    217  ND2       22.9540    1.1540    6.6890 N.am  519  ASN519     -0.0877
    218  N         23.3540   -2.0620    4.6810 N.am  520  GLY520     -0.1940
    219  CA        24.4870   -2.0480    3.7660 C.3   520  GLY520      0.2014
    220  C         24.6530   -3.3620    3.0300 C.2   520  GLY520      0.2638
    221  O         25.2210   -3.3860    1.9460 O.2   520  GLY520     -0.2714
    222  N         24.1190   -4.4400    3.5850 N.am  521  TRP521     -0.1973
    223  CA        24.3430   -5.7670    3.0080 C.3   521  TRP521      0.1640
    224  C         23.2240   -6.3050    2.1410 C.2   521  TRP521      0.2290
    225  O         23.4550   -7.2500    1.3730 O.2   521  TRP521     -0.2864
    226  CB        24.6510   -6.7730    4.1300 C.3   521  TRP521      0.0576
    227  CG        26.1110   -6.8270    4.4610 C.ar  521  TRP521      0.0006
    228  CD1       26.7760   -6.0820    5.3990 C.ar  521  TRP521      0.0946
    229  CD2       27.1010   -7.6750    3.8420 C.ar  521  TRP521      0.0152
    230  NE1       28.1170   -6.4200    5.3930 N.ar  521  TRP521     -0.2442
    231  CE2       28.3310   -7.3930    4.4530 C.ar  521  TRP521      0.0810
    232  CE3       27.0430   -8.6440    2.8480 C.ar  521  TRP521      0.0012
    233  CZ2       29.5060   -8.0510    4.0950 C.ar  521  TRP521      0.0191
    234  CZ3       28.2210   -9.2830    2.4680 C.ar  521  TRP521      0.0001
    235  CH2       29.4280   -8.9820    3.0910 C.ar  521  TRP521      0.0015
@<TRIPOS>BOND
     1   225   224    2
     2   221   220    2
     3   224   223    1
     4   234   232   ar
     5   234   235   ar
     6   173   172    2
     7   232   229   ar
     8   223   222    1
     9   223   226    1
    10   220   222   am
    11   220   219    1
    12   235   233   ar
    13   172   171    1
    14   219   218    1
    15   229   231   ar
    16   229   227   ar
    17   233   231   ar
    18   226   227    1
    19   231   230   ar
    20   227   228   ar
    21   218   212   am
    22   171   170    1
    23   230   228   ar
    24   216   215    2
    25    29    30    1
    26    29    28    1
    27    30    24    1
    28   212   213    2
    29   212   211    1
    30   199   198    2
    31    28    25    1
    32   215   217   am
    33   215   214    1
    34   211   214    1
    35   211   210    1
    36    24    25    1
    37    83    84    1
    38   198   210   am
    39   198   197    1
    40    84    87    1
    41    84    85    1
    42    25    26    1
    43    43    44   ar
    44    43    41   ar
    45    44    42   ar
    46   196   197    1
    47   162   161    2
    48    87    88    1
    49    85    86    2
    50    41    38   ar
    51   197   200    1
    52   200   201    1
    53    26    27    2
    54    26    31   am
    55   161   160    1
    56    59    58    2
    57   206   208   ar
    58   206   203   ar
    59    42    40   ar
    60    60    58   am
    61    90    88   am
    62    88    89    2
    63    31    32    1
    64   208   209   ar
    65    58    57    1
    66    38    40   ar
    67    38    36   ar
    68   177   176    2
    69   201   203   ar
    70   201   202   ar
    71   203   205   ar
    72   154   153    2
    73    40    39   ar
    74   185   184    2
    75   182   183    1
    76   160   163    1
    77   160   159    1
    78   209   207   ar
    79   184   183    1
    80    32    35    1
    81    32    33    1
    82   202   204   ar
    83    36    35    1
    84    36    37   ar
    85   205   207   ar
    86   205   204   ar
    87   176   175    1
    88   153   159   am
    89   153   152    1
    90    57    54    1
    91   163   164    1
    92   174   175    1
    93   183   186    1
    94    39    37   ar
    95    33    34    2
    96     9     6    1
    97   175   178    1
    98   152   155    1
    99   152   151    1
   100    54    53    1
   101    54    55    1
   102   155   156    1
   103   164   165   ar
   104   164   166   ar
   105   158   156   am
   106   156   157    2
   107   178   179    1
   108   186   187    1
   109   165   167   ar
   110   166   168   ar
   111   192   189   ar
   112   192   194   ar
   113   187   189   ar
   114   187   188   ar
   115    55    56    2
   116    55    61   am
   117   150   149    1
   118     6     5    1
   119     6     7    1
   120   189   191   ar
   121   147   149   ar
   122   147   145   ar
   123   194   195   ar
   124     5     3   am
   125   188   190   ar
   126   179   181   am
   127   179   180    2
   128   149   148   ar
   129     8     7    2
   130   167   169   ar
   131   145   144   ar
   132   191   190   ar
   133   191   193   ar
   134   195   193   ar
   135   168   169   ar
   136     3     2    1
   137     3     4    2
   138    61    62    1
   139     2     1    1
   140   148   146   ar
   141   144   146   ar
   142   144   143    1
   143    64    63    2
   144   142   141    2
   145   143   140    1
   146   138   137    1
   147   140   141    1
   148   140   139    1
   149    62    63    1
   150    62    65    1
   151    63    72   am
   152   124   126   ar
   153   124   122   ar
   154   126   125   ar
   155    72    73    1
   156    68    70   ar
   157    68    66   ar
   158   104   103   ar
   159   104   102   ar
   160    70    71   ar
   161    73    76    1
   162    73    74    1
   163   137   136   ar
   164   137   135   ar
   165    65    66    1
   166    18    16   ar
   167    18    19   ar
   168    16    15   ar
   169   122   121   ar
   170   122   120   ar
   171    78    80   ar
   172    78    77   ar
   173    66    67   ar
   174   103   101   ar
   175   121   119   ar
   176   125   123   ar
   177    76    77    1
   178   102   100   ar
   179   136   134   ar
   180   135   133   ar
   181    10    11    1
   182    71    69   ar
   183    80    82   ar
   184    67    69   ar
   185    74    75    2
   186    77    79   ar
   187   112   110   ar
   188    19    21   ar
   189    19    17   ar
   190    15    14    1
   191    15    17   ar
   192   101    98   ar
   193   120   123   ar
   194   120   118   ar
   195   119   118   ar
   196   100    98   ar
   197   100    99   ar
   198    21    23   ar
   199    14    11    1
   200   134   132   ar
   201   133   132   ar
   202    11    12    1
   203    82    81   ar
   204    98    96   ar
   205    17    20   ar
   206   110   111   ar
   207   110   109    1
   208   118   117    1
   209    79    81   ar
   210   132   131    1
   211    99    97   ar
   212    12    13    2
   213    23    22   ar
   214    51    50    2
   215   109   106    1
   216    96    97   ar
   217    96    95    1
   218    20    22   ar
   219    52    50   am
   220    50    49    1
   221   117   114    1
   222   130   129    2
   223   131   128    1
   224    95    92    1
   225   113   114    1
   226   113   107   am
   227   114   115    1
   228   106   107    1
   229   106   105    1
   230   129   128    1
   231   107   108    2
   232    49    46    1
   233   128   127    1
   234    92    93    1
   235    92    91    1
   236    46    47    1
   237    46    45    1
   238    48    47    2
   239    93    94    2
   240   115   116    2
