@<TRIPOS>MOLECULE
tmp/4pg0A00.pdb
 157 145 0 0 0
SMALL
GASTEIGER

@<TRIPOS>ATOM
      1  N         -7.1440  -26.0300   19.6670 N.3    17  ILE17      -0.1245
      2  CA        -6.2060  -24.9630   19.2530 C.3    17  ILE17       0.1561
      3  C         -4.7550  -25.3720   19.5800 C.2    17  ILE17       0.2260
      4  O         -3.8640  -25.2530   18.7310 O.2    17  ILE17      -0.2867
      5  CB        -6.5800  -23.5830   19.8740 C.3    17  ILE17       0.0252
      6  CG1       -7.9570  -23.0920   19.3640 C.3    17  ILE17       0.0019
      7  CG2       -5.4700  -22.5010   19.6500 C.3    17  ILE17       0.0019
      8  CD1       -8.0820  -22.8880   17.9620 C.3    17  ILE17       0.0001
      9  N         -3.4790  -27.9630   17.1350 N.3    20  ILE20      -0.1231
     10  CA        -3.1670  -27.3760   15.8150 C.3    20  ILE20       0.1692
     11  C         -1.8050  -26.6990   15.8520 C.2    20  ILE20       0.2591
     12  O         -1.0150  -26.8580   14.9260 O.2    20  ILE20      -0.2718
     13  CB        -4.3030  -26.4080   15.4150 C.3    20  ILE20       0.0266
     14  CG1       -5.5570  -27.2060   14.9730 C.3    20  ILE20       0.0019
     15  CG2       -3.8600  -25.3660   14.3920 C.3    20  ILE20       0.0020
     16  CD1       -6.8310  -26.3170   14.9410 C.3    20  ILE20       0.0001
     17  N         -1.5340  -25.9240   16.9090 N.am   21  VAL21      -0.1980
     18  CA        -0.2420  -25.2220   17.0490 C.3    21  VAL21       0.1595
     19  C          0.8960  -26.2780   17.1260 C.2    21  VAL21       0.2287
     20  O          1.8810  -26.1630   16.4020 O.2    21  VAL21      -0.2864
     21  CB        -0.2930  -24.2630   18.2780 C.3    21  VAL21       0.0276
     22  CG1        1.0860  -23.7350   18.6350 C.3    21  VAL21       0.0022
     23  CG2       -1.2510  -23.0930   18.0260 C.3    21  VAL21       0.0022
     24  N          1.3440  -27.8900   13.7730 N.3    24  GLY24      -0.1210
     25  CA         1.9090  -26.8990   12.8540 C.3    24  GLY24       0.1956
     26  C          3.4100  -26.7540   13.0230 C.2    24  GLY24       0.2611
     27  O          4.1520  -26.6770   12.0400 O.2    24  GLY24      -0.2717
     28  N          3.8690  -26.6690   14.2680 N.am   25  GLU25      -0.1979
     29  CA         5.3030  -26.5470   14.5670 C.3    25  GLU25       0.1602
     30  C          6.0550  -27.7980   14.0910 C.2    25  GLU25       0.2287
     31  O          7.1290  -27.6710   13.5150 O.2    25  GLU25      -0.2864
     32  CB         5.5380  -26.3330   16.0740 C.3    25  GLU25       0.0415
     33  CG         4.8740  -25.0800   16.6320 C.3    25  GLU25       0.1163
     34  CD         5.3980  -23.7400   16.1560 C.2    25  GLU25       0.3649
     35  OE1        6.4650  -23.7130   15.5100 O.co2  25  GLU25      -0.2457
     36  OE2        4.7810  -22.7050   16.4950 O.co2  25  GLU25      -0.2457
     37  N          6.2090  -27.5880   10.3390 N.3    28  ALA28      -0.1245
     38  CA         7.1780  -26.5350    9.9880 C.3    28  ALA28       0.1562
     39  C          8.6190  -27.0990   10.0530 C.2    28  ALA28       0.2260
     40  O          9.3990  -26.9060    9.1130 O.2    28  ALA28      -0.2867
     41  CB         7.0110  -25.3430   10.9210 C.3    28  ALA28       0.0290
     42  N         11.8020  -24.5990   15.2540 N.3    53  GLU53      -0.1245
     43  CA        10.4370  -25.1310   15.1940 C.3    53  GLU53       0.1567
     44  C         10.2200  -26.2010   16.2570 C.2    53  GLU53       0.2260
     45  O          9.1780  -26.2230   16.9010 O.2    53  GLU53      -0.2867
     46  CB        10.1240  -25.6780   13.7890 C.3    53  GLU53       0.0388
     47  CG        10.1920  -24.6260   12.6750 C.3    53  GLU53       0.1160
     48  CD         9.2200  -23.4520   12.7080 C.2    53  GLU53       0.3649
     49  OE1        8.6000  -23.1950   13.7620 O.co2  53  GLU53      -0.2457
     50  OE2        9.0470  -22.8010   11.6550 O.co2  53  GLU53      -0.2457
     51  N         -4.4570  -29.6390    9.0280 N.3    80  PHE80      -0.1241
     52  CA        -3.3110  -29.3350    8.1550 C.3    80  PHE80       0.1605
     53  C         -3.2400  -30.1630    6.8690 C.2    80  PHE80       0.2264
     54  O         -2.4470  -29.8140    5.9840 O.2    80  PHE80      -0.2867
     55  CB        -1.9810  -29.5080    8.9210 C.3    80  PHE80       0.0534
     56  CG        -1.6160  -28.2680    9.6880 C.ar   80  PHE80      -0.0203
     57  CD1       -1.1310  -27.1410    9.0310 C.ar   80  PHE80      -0.0042
     58  CD2       -1.8130  -28.2000   11.0640 C.ar   80  PHE80      -0.0042
     59  CE1       -0.8360  -25.9760    9.7450 C.ar   80  PHE80      -0.0003
     60  CE2       -1.4850  -27.0420   11.7720 C.ar   80  PHE80      -0.0003
     61  CZ        -1.0250  -25.9380   11.1090 C.ar   80  PHE80      -0.0000
     62  N          5.2990  -22.6960    3.1590 N.3   103  GLN103     -0.1245
     63  CA         5.8040  -22.6480    4.5200 C.3   103  GLN103      0.1566
     64  C          6.2710  -21.2910    4.9840 C.2   103  GLN103      0.2260
     65  O          5.7970  -20.8050    6.0300 O.2   103  GLN103     -0.2867
     66  CB         6.8760  -23.7440    4.7830 C.3   103  GLN103      0.0367
     67  CG         7.5340  -23.6850    6.2020 C.3   103  GLN103      0.0905
     68  CD         6.5310  -23.9220    7.3200 C.2   103  GLN103      0.2608
     69  OE1        5.7750  -24.8870    7.3100 O.2   103  GLN103     -0.2717
     70  NE2        6.4920  -23.0420    8.3070 N.am  103  GLN103     -0.0878
     71  N          2.2840  -19.9940    5.9220 N.3   107  ILE107     -0.1231
     72  CA         2.2240  -20.5900    7.2600 C.3   107  ILE107      0.1692
     73  C          2.8490  -19.6870    8.3220 C.2   107  ILE107      0.2591
     74  O          2.2490  -19.5070    9.3890 O.2   107  ILE107     -0.2718
     75  CB         2.7560  -22.0390    7.2780 C.3   107  ILE107      0.0266
     76  CG1        1.7790  -22.9620    6.4770 C.3   107  ILE107      0.0019
     77  CG2        2.8830  -22.5380    8.7210 C.3   107  ILE107      0.0020
     78  CD1        2.3320  -24.3340    6.1440 C.3   107  ILE107      0.0001
     79  N          4.0160  -19.0830    8.0270 N.am  108  GLU108     -0.1979
     80  CA         4.6390  -18.1730    9.0070 C.3   108  GLU108      0.1602
     81  C          3.7400  -16.9500    9.2740 C.2   108  GLU108      0.2287
     82  O          3.6220  -16.5280   10.4190 O.2   108  GLU108     -0.2864
     83  CB         6.0360  -17.6850    8.5420 C.3   108  GLU108      0.0415
     84  CG         7.0640  -18.8030    8.3790 C.3   108  GLU108      0.1163
     85  CD         7.4440  -19.5800    9.6290 C.2   108  GLU108      0.3649
     86  OE1        7.2300  -19.0480   10.7420 O.co2 108  GLU108     -0.2457
     87  OE2        8.0690  -20.6630    9.4960 O.co2 108  GLU108     -0.2457
     88  N          0.5490  -16.8730    9.0650 N.3   110  PHE110     -0.1227
     89  CA        -0.6070  -17.4000    9.8240 C.3   110  PHE110      0.1736
     90  C         -0.1890  -17.5370   11.2990 C.2   110  PHE110      0.2595
     91  O         -0.9450  -17.1510   12.1950 O.2   110  PHE110     -0.2718
     92  CB        -1.0280  -18.7610    9.2250 C.3   110  PHE110      0.0547
     93  CG        -2.2570  -19.4400    9.7860 C.ar  110  PHE110     -0.0202
     94  CD1       -3.4910  -18.8100    9.7670 C.ar  110  PHE110     -0.0042
     95  CD2       -2.1910  -20.7390   10.2730 C.ar  110  PHE110     -0.0042
     96  CE1       -4.6430  -19.4700   10.2350 C.ar  110  PHE110     -0.0003
     97  CE2       -3.3380  -21.3820   10.7700 C.ar  110  PHE110     -0.0003
     98  CZ        -4.5540  -20.7430   10.7360 C.ar  110  PHE110     -0.0000
     99  N          1.0270  -18.0380   11.5450 N.am  111  ALA111     -0.1980
    100  CA         1.5720  -18.2190   12.9070 C.3   111  ALA111      0.1597
    101  C          1.7190  -16.8420   13.5830 C.2   111  ALA111      0.2287
    102  O          1.2900  -16.6560   14.7210 O.2   111  ALA111     -0.2864
    103  CB         2.9460  -18.8880   12.8310 C.3   111  ALA111      0.0319
    104  N         -1.7250  -15.4630   14.4820 N.3   114  ALA114     -0.1231
    105  CA        -2.3170  -16.2400   15.5900 C.3   114  ALA114      0.1694
    106  C         -1.6330  -15.9160   16.8960 C.2   114  ALA114      0.2592
    107  O         -2.3030  -15.6530   17.8940 O.2   114  ALA114     -0.2718
    108  CB        -2.2090  -17.7420   15.3070 C.3   114  ALA114      0.0304
    109  N         -0.3000  -15.8700   16.8900 N.am  115  TYR115     -0.1976
    110  CA         0.4460  -15.6150   18.1200 C.3   115  TYR115      0.1639
    111  C          0.2920  -14.1870   18.6090 C.2   115  TYR115      0.2290
    112  O          0.1460  -14.0040   19.8140 O.2   115  TYR115     -0.2864
    113  CB         1.9100  -16.0770   17.9870 C.3   115  TYR115      0.0560
    114  CG         2.0840  -17.5520   17.6450 C.ar  115  TYR115     -0.0198
    115  CD1        1.0980  -18.4870   17.9570 C.ar  115  TYR115     -0.0009
    116  CD2        3.2270  -18.0060   16.9980 C.ar  115  TYR115     -0.0009
    117  CE1        1.2380  -19.8310   17.6100 C.ar  115  TYR115      0.0417
    118  CE2        3.3970  -19.3560   16.6880 C.ar  115  TYR115      0.0417
    119  CZ         2.3930  -20.2610   16.9800 C.ar  115  TYR115      0.1957
    120  OH         2.5380  -21.5800   16.6250 O.3   115  TYR115     -0.2866
    121  N          9.4940  -16.2430   14.2910 N.3   137  GLU137     -0.1245
    122  CA         8.6140  -16.2310   13.1000 C.3   137  GLU137      0.1567
    123  C          9.0790  -15.2090   12.0650 C.2   137  GLU137      0.2260
    124  O          9.0650  -15.4980   10.8690 O.2   137  GLU137     -0.2867
    125  CB         7.1480  -15.9470   13.4880 C.3   137  GLU137      0.0388
    126  CG         6.5730  -16.8990   14.5340 C.3   137  GLU137      0.1160
    127  CD         6.8120  -18.3770   14.1470 C.2   137  GLU137      0.3649
    128  OE1        6.0110  -18.8770   13.3270 O.co2 137  GLU137     -0.2457
    129  OE2        7.7580  -18.9980   14.6820 O.co2 137  GLU137     -0.2457
    130  N        -11.2180  -22.6170   12.4730 N.3   177  VAL177     -0.1245
    131  CA       -10.6660  -22.3550   13.7980 C.3   177  VAL177      0.1561
    132  C        -11.3950  -21.2280   14.5680 C.2   177  VAL177      0.2260
    133  O        -11.2330  -21.1080   15.7840 O.2   177  VAL177     -0.2867
    134  CB        -9.1450  -22.1090   13.6150 C.3   177  VAL177      0.0252
    135  CG1       -8.7850  -20.6280   13.4760 C.3   177  VAL177      0.0019
    136  CG2       -8.3390  -22.7850   14.6960 C.3   177  VAL177      0.0019
    137  N        -11.2760  -20.2720   18.4680 N.3   181  ALA181     -0.1245
    138  CA       -10.4830  -19.0620   18.7270 C.3   181  ALA181      0.1562
    139  C        -11.3040  -18.0380   19.5190 C.2   181  ALA181      0.2260
    140  O        -10.7560  -17.3750   20.3940 O.2   181  ALA181     -0.2867
    141  CB        -9.9990  -18.4490   17.4060 C.3   181  ALA181      0.0290
    142  N        -10.1620  -14.5140   21.0860 N.3   186  MET186     -0.1245
    143  CA        -9.4440  -14.0120   19.9110 C.3   186  MET186      0.1570
    144  C        -10.4930  -13.6840   18.8480 C.2   186  MET186      0.2261
    145  O        -11.3160  -14.5340   18.5370 O.2   186  MET186     -0.2867
    146  CB        -8.4840  -15.0930   19.3890 C.3   186  MET186      0.0387
    147  CG        -7.3400  -15.4330   20.3940 C.3   186  MET186      0.0595
    148  SD        -6.4590  -16.9690   19.9720 S.3   186  MET186     -0.1393
    149  CE        -5.6050  -16.4210   18.5660 C.3   186  MET186      0.0692
    150  N         -7.3560  -11.6920   13.4800 N.3   191  LEU191     -0.1245
    151  CA        -6.5430  -12.7700   12.8870 C.3   191  LEU191      0.1561
    152  C         -6.3910  -12.5100   11.3810 C.2   191  LEU191      0.2260
    153  O         -5.2830  -12.5670   10.8530 O.2   191  LEU191     -0.2867
    154  CB        -7.1980  -14.1620   13.1050 C.3   191  LEU191      0.0270
    155  CG        -7.1690  -14.7590   14.5360 C.3   191  LEU191      0.0019
    156  CD1       -8.1160  -15.9470   14.6440 C.3   191  LEU191      0.0001
    157  CD2       -5.7700  -15.2510   14.8720 C.3   191  LEU191      0.0001
@<TRIPOS>BOND
     1    62    63    1
     2    63    66    1
     3    63    64    1
     4    66    67    1
     5    64    65    2
     6    71    72    1
     7    54    53    2
     8    78    76    1
     9    67    68    1
    10    76    75    1
    11    53    52    1
    12    72    75    1
    13    72    73    1
    14    75    77    1
    15    69    68    2
    16    68    70   am
    17    79    73   am
    18    79    80    1
    19    52    55    1
    20    52    51    1
    21    73    74    2
    22    84    83    1
    23    84    85    1
    24    83    80    1
    25    55    56    1
    26    80    81    1
    27    57    56   ar
    28    57    59   ar
    29    88    89    1
    30    40    39    2
    31    92    93    1
    32    92    89    1
    33    81    82    2
    34    87    85   ar
    35    85    86   ar
    36    56    58   ar
    37    59    61   ar
    38    94    93   ar
    39    94    96   ar
    40    93    95   ar
    41    89    90    1
    42    38    39    1
    43    38    37    1
    44    38    41    1
    45    96    98   ar
    46    95    97   ar
    47    98    97   ar
    48   153   152    2
    49   124   123    2
    50    58    60   ar
    51    61    60   ar
    52    90    99   am
    53    90    91    2
    54   152   151    1
    55    99   100    1
    56    50    48   ar
    57    27    26    2
    58   123   122    1
    59   130   131    1
    60    47    48    1
    61    47    46    1
    62    48    49   ar
    63   103   100    1
    64    25    26    1
    65    25    24    1
    66   151   154    1
    67   151   150    1
    68   100   101    1
    69    26    28   am
    70   122   125    1
    71   122   121    1
    72   154   155    1
    73   128   127   ar
    74   135   134    1
    75   125   126    1
    76    31    30    2
    77   101   102    2
    78   134   131    1
    79   134   136    1
    80    46    43    1
    81   131   132    1
    82    30    29    1
    83   127   126    1
    84   127   129   ar
    85    28    29    1
    86    15    13    1
    87   104   105    1
    88   155   156    1
    89   155   157    1
    90    29    32    1
    91   132   133    2
    92    12    11    2
    93    16    14    1
    94    14    13    1
    95    43    42    1
    96    43    44    1
    97   108   105    1
    98    13    10    1
    99    35    34   ar
   100   105   106    1
   101    10    11    1
   102    10     9    1
   103    11    17   am
   104    32    33    1
   105    34    36   ar
   106    34    33    1
   107    44    45    2
   108    20    19    2
   109   120   119    1
   110   118   119   ar
   111   118   116   ar
   112   109   106   am
   113   109   110    1
   114   106   107    2
   115    17    18    1
   116   119   117   ar
   117   116   114   ar
   118    18    19    1
   119    18    21    1
   120   141   138    1
   121   117   115   ar
   122   114   115   ar
   123   114   113    1
   124     8     6    1
   125   113   110    1
   126    23    21    1
   127   110   111    1
   128    21    22    1
   129   137   138    1
   130   145   144    2
   131   149   148    1
   132   111   112    2
   133   138   139    1
   134     4     3    2
   135   144   143    1
   136     2     3    1
   137     2     1    1
   138     2     5    1
   139     6     5    1
   140   146   143    1
   141   146   147    1
   142   139   140    2
   143     7     5    1
   144   143   142    1
   145   148   147    1
