@<TRIPOS>MOLECULE
tmp/4pg1A01.pdb
 123 117 0 0 0
SMALL
GASTEIGER

@<TRIPOS>ATOM
      1  N          0.5300  -16.7560    9.2310 N.3   110  PHE110     -0.1241
      2  CA        -0.5980  -17.3250    9.9950 C.3   110  PHE110      0.1605
      3  C         -0.1570  -17.4750   11.4670 C.2   110  PHE110      0.2264
      4  O         -0.8910  -17.0570   12.3820 O.2   110  PHE110     -0.2867
      5  CB        -0.9950  -18.6810    9.3820 C.3   110  PHE110      0.0534
      6  CG        -2.2520  -19.3270    9.9130 C.ar  110  PHE110     -0.0203
      7  CD1       -3.3670  -18.5650   10.2250 C.ar  110  PHE110     -0.0042
      8  CD2       -2.3210  -20.7030   10.0910 C.ar  110  PHE110     -0.0042
      9  CE1       -4.5530  -19.1750   10.6890 C.ar  110  PHE110     -0.0003
     10  CE2       -3.4990  -21.3100   10.5700 C.ar  110  PHE110     -0.0003
     11  CZ        -4.6130  -20.5420   10.8320 C.ar  110  PHE110     -0.0000
     12  N          0.2170  -13.9080   13.1220 N.3   113  SER113     -0.1217
     13  CA        -1.1020  -13.3370   13.4190 C.3   113  SER113      0.1889
     14  C         -1.7440  -14.0560   14.5950 C.2   113  SER113      0.2288
     15  O         -2.2640  -13.3950   15.4910 O.2   113  SER113     -0.2866
     16  CB        -2.0180  -13.4420   12.2050 C.3   113  SER113      0.2089
     17  OG        -3.3520  -13.1320   12.5870 O.3   113  SER113     -0.2183
     18  N         -3.8020  -19.3820   -0.6870 N.3   167  LEU167     -0.1231
     19  CA        -4.4140  -18.3150    0.1080 C.3   167  LEU167      0.1678
     20  C         -5.8870  -18.6380    0.4790 C.2   167  LEU167      0.2434
     21  O         -6.2110  -18.5510    1.6630 O.2   167  LEU167     -0.2733
     22  CB        -4.2300  -16.9290   -0.5440 C.3   167  LEU167      0.0284
     23  CG        -4.6130  -15.6890    0.2800 C.3   167  LEU167      0.0019
     24  CD1       -3.8270  -15.6120    1.6000 C.3   167  LEU167      0.0001
     25  CD2       -4.3830  -14.4170   -0.5380 C.3   167  LEU167      0.0001
     26  N         -6.7590  -19.1390   -0.4480 N.am  168  PRO168     -0.2729
     27  CA        -8.1270  -19.5200   -0.0430 C.3   168  PRO168      0.1401
     28  C         -8.1480  -20.6610    0.9770 C.2   168  PRO168      0.2269
     29  O         -9.0920  -20.7240    1.7680 O.2   168  PRO168     -0.2865
     30  CB        -8.7930  -19.9190   -1.3660 C.3   168  PRO168      0.0296
     31  CG        -8.0080  -19.1930   -2.4100 C.3   168  PRO168      0.0237
     32  CD        -6.5940  -19.3000   -1.9080 C.3   168  PRO168      0.0939
     33  N         -5.8960  -21.0690    3.4490 N.3   170  ILE170     -0.1231
     34  CA        -5.6180  -20.4180    4.7350 C.3   170  ILE170      0.1692
     35  C         -6.9500  -19.7990    5.2350 C.2   170  ILE170      0.2592
     36  O         -7.2690  -19.9200    6.4150 O.2   170  ILE170     -0.2718
     37  CB        -4.4840  -19.3390    4.5950 C.3   170  ILE170      0.0266
     38  CG1       -3.0940  -19.9780    4.2690 C.3   170  ILE170      0.0019
     39  CG2       -4.3960  -18.4460    5.8510 C.3   170  ILE170      0.0020
     40  CD1       -2.4340  -20.7950    5.3780 C.3   170  ILE170      0.0001
     41  N         -7.7320  -19.1670    4.3390 N.am  171  ARG171     -0.1966
     42  CA        -9.0240  -18.5750    4.7260 C.3   171  ARG171      0.1729
     43  C         -9.9680  -19.6680    5.2680 C.2   171  ARG171      0.2616
     44  O        -10.6210  -19.4730    6.2960 O.2   171  ARG171     -0.2715
     45  CB        -9.7010  -17.8450    3.5580 C.3   171  ARG171      0.0348
     46  CG       -10.8760  -16.9970    4.0660 C.3   171  ARG171      0.0492
     47  CD       -11.8110  -16.4700    3.0050 C.3   171  ARG171      0.2205
     48  NE       -12.8660  -15.6530    3.6070 N.pl3 171  ARG171     -0.0865
     49  CZ       -13.8030  -15.0050    2.9210 C.cat 171  ARG171      0.5346
     50  NH1      -13.8210  -15.0580    1.5950 N.pl3 171  ARG171      0.1354
     51  NH2      -14.7190  -14.2830    3.5560 N.pl3 171  ARG171      0.1354
     52  N        -10.0130  -20.8240    4.5880 N.am  172  ARG172     -0.1977
     53  CA       -10.8860  -21.9250    5.0420 C.3   172  ARG172      0.1597
     54  C        -10.4260  -22.4580    6.3890 C.2   172  ARG172      0.2287
     55  O        -11.2700  -22.7540    7.2420 O.2   172  ARG172     -0.2864
     56  CB       -10.9560  -23.0410    3.9830 C.3   172  ARG172      0.0334
     57  CG       -11.7600  -22.5720    2.7620 C.3   172  ARG172      0.0492
     58  CD       -12.1880  -23.6980    1.8320 C.3   172  ARG172      0.2205
     59  NE       -11.0690  -24.3170    1.1130 N.pl3 172  ARG172     -0.0865
     60  CZ       -10.5510  -23.8520   -0.0210 C.cat 172  ARG172      0.5346
     61  NH1      -11.0160  -22.7320   -0.5640 N.pl3 172  ARG172      0.1354
     62  NH2       -9.5630  -24.5010   -0.6190 N.pl3 172  ARG172      0.1354
     63  N         -8.8650  -20.7360    8.7970 N.3   174  LEU174     -0.1245
     64  CA        -9.3550  -19.8100    9.8170 C.3   174  LEU174      0.1561
     65  C        -10.8410  -20.0390   10.1220 C.2   174  LEU174      0.2260
     66  O        -11.2000  -20.1570   11.2910 O.2   174  LEU174     -0.2867
     67  CB        -9.0980  -18.3410    9.4690 C.3   174  LEU174      0.0270
     68  CG        -9.5680  -17.3350   10.5750 C.3   174  LEU174      0.0019
     69  CD1       -9.0230  -17.6920   11.9640 C.3   174  LEU174      0.0001
     70  CD2       -9.1460  -15.9550   10.2580 C.3   174  LEU174      0.0001
     71  N         -7.3110  -11.4300   13.7290 N.3   191  LEU191     -0.1231
     72  CA        -6.4890  -12.5090   13.1450 C.3   191  LEU191      0.1693
     73  C         -6.3030  -12.2300   11.6330 C.2   191  LEU191      0.2591
     74  O         -5.1860  -12.2770   11.1100 O.2   191  LEU191     -0.2718
     75  CB        -7.1740  -13.8780   13.3210 C.3   191  LEU191      0.0284
     76  CG        -7.0360  -14.5440   14.7030 C.3   191  LEU191      0.0019
     77  CD1       -8.1160  -15.6230   14.9230 C.3   191  LEU191      0.0001
     78  CD2       -5.6820  -15.2180   14.8380 C.3   191  LEU191      0.0001
     79  N         -7.3830  -11.8730   10.9500 N.am  192  ILE192     -0.1980
     80  CA        -7.2700  -11.5790    9.5130 C.3   192  ILE192      0.1595
     81  C         -6.4300  -10.3380    9.2240 C.2   192  ILE192      0.2287
     82  O         -5.5730  -10.3680    8.3210 O.2   192  ILE192     -0.2864
     83  CB        -8.6710  -11.4990    8.8610 C.3   192  ILE192      0.0276
     84  CG1       -9.3610  -12.8850    8.9470 C.3   192  ILE192      0.0022
     85  CG2       -8.5640  -11.0290    7.3800 C.3   192  ILE192      0.0022
     86  CD1      -10.8340  -12.8790    8.5380 C.3   192  ILE192      0.0001
     87  N         -2.7100  -11.0260    9.7530 N.3   195  PHE195     -0.1227
     88  CA        -2.2010  -11.9370    8.7200 C.3   195  PHE195      0.1736
     89  C         -1.9850  -11.1500    7.4280 C.2   195  PHE195      0.2595
     90  O         -0.9520  -11.3140    6.7810 O.2   195  PHE195     -0.2718
     91  CB        -3.2010  -13.0880    8.4580 C.3   195  PHE195      0.0547
     92  CG        -2.8550  -13.8950    7.2310 C.ar  195  PHE195     -0.0202
     93  CD1       -1.9550  -14.9580    7.3090 C.ar  195  PHE195     -0.0042
     94  CD2       -3.3330  -13.5210    5.9740 C.ar  195  PHE195     -0.0042
     95  CE1       -1.5920  -15.6710    6.1610 C.ar  195  PHE195     -0.0003
     96  CE2       -2.9440  -14.2240    4.8250 C.ar  195  PHE195     -0.0003
     97  CZ        -2.0580  -15.2770    4.9300 C.ar  195  PHE195     -0.0000
     98  N         -2.9950  -10.3730    7.0100 N.am  196  LEU196     -0.1980
     99  CA        -2.8870   -9.6310    5.7400 C.3   196  LEU196      0.1596
    100  C         -1.7650   -8.6040    5.7730 C.2   196  LEU196      0.2287
    101  O         -1.1100   -8.3940    4.7480 O.2   196  LEU196     -0.2864
    102  CB        -4.2170   -8.9820    5.3460 C.3   196  LEU196      0.0297
    103  CG        -5.3230   -9.9710    4.9490 C.3   196  LEU196      0.0022
    104  CD1       -6.6840   -9.2200    4.7180 C.3   196  LEU196      0.0001
    105  CD2       -4.9270  -10.7650    3.6960 C.3   196  LEU196      0.0001
    106  N         -4.5450  -10.7320   -4.7740 N.3   217  ALA217     -0.1245
    107  CA        -5.8270  -10.7130   -4.0460 C.3   217  ALA217      0.1562
    108  C         -6.9480  -11.0810   -5.0320 C.2   217  ALA217      0.2260
    109  O         -7.7760  -11.9330   -4.7080 O.2   217  ALA217     -0.2867
    110  CB        -6.0810   -9.3270   -3.4520 C.3   217  ALA217      0.0290
    111  N         -6.9020  -14.8210   -5.9010 N.3   220  ALA220     -0.1231
    112  CA        -7.4310  -15.5910   -4.7770 C.3   220  ALA220      0.1694
    113  C         -8.9560  -15.4560   -4.6870 C.2   220  ALA220      0.2591
    114  O         -9.6350  -16.4430   -4.4000 O.2   220  ALA220     -0.2718
    115  CB        -6.7760  -15.1510   -3.4830 C.3   220  ALA220      0.0304
    116  N         -9.4960  -14.2470   -4.9930 N.am  221  LEU221     -0.1980
    117  CA       -10.9480  -14.0030   -4.9840 C.3   221  LEU221      0.1596
    118  C        -11.6840  -14.6780   -6.1490 C.2   221  LEU221      0.2287
    119  O        -12.8770  -14.9540   -6.0270 O.2   221  LEU221     -0.2864
    120  CB       -11.2610  -12.4880   -4.9780 C.3   221  LEU221      0.0297
    121  CG       -10.8840  -11.7230   -3.6940 C.3   221  LEU221      0.0022
    122  CD1      -10.8080  -10.2160   -3.9510 C.3   221  LEU221      0.0001
    123  CD2      -11.8400  -12.0430   -2.5320 C.3   221  LEU221      0.0001
@<TRIPOS>BOND
     1   118   119    2
     2   118   117    1
     3   111   112    1
     4   108   109    2
     5   108   107    1
     6   116   117    1
     7   116   113   am
     8   117   120    1
     9   120   121    1
    10   112   113    1
    11   112   115    1
    12   106   107    1
    13   113   114    2
    14   107   110    1
    15   122   121    1
    16   121   123    1
    17    31    32    1
    18    31    30    1
    19    32    26    1
    20    30    27    1
    21    18    19    1
    22    62    60    1
    23    61    60    1
    24    22    19    1
    25    22    23    1
    26    25    23    1
    27    26    27    1
    28    26    20   am
    29    27    28    1
    30    60    59    2
    31    19    20    1
    32    23    24    1
    33    20    21    2
    34    28    29    2
    35    59    58    1
    36    50    49    1
    37    58    57    1
    38    57    56    1
    39    49    51    1
    40    49    48    2
    41    47    48    1
    42    47    46    1
    43    33    34    1
    44    45    46    1
    45    45    42    1
    46   105   103    1
    47    56    53    1
    48    38    37    1
    49    38    40    1
    50    41    42    1
    51    41    35   am
    52    52    53    1
    53    52    43   am
    54    37    34    1
    55    37    39    1
    56   104   103    1
    57    42    43    1
    58    34    35    1
    59   101   100    2
    60    96    97   ar
    61    96    94   ar
    62    97    95   ar
    63   103   102    1
    64    53    54    1
    65    35    36    2
    66    43    44    2
    67   102    99    1
    68    99   100    1
    69    99    98    1
    70    94    92   ar
    71    95    93   ar
    72    54    55    2
    73    90    89    2
    74    98    89   am
    75    92    93   ar
    76    92    91    1
    77    85    83    1
    78    89    88    1
    79    82    81    2
    80    91    88    1
    81    86    84    1
    82    88    87    1
    83    63    64    1
    84    83    84    1
    85    83    80    1
    86    81    80    1
    87     1     2    1
    88     5     6    1
    89     5     2    1
    90    67    64    1
    91    67    68    1
    92    80    79    1
    93    64    65    1
    94     6     8   ar
    95     6     7   ar
    96     2     3    1
    97     8    10   ar
    98    65    66    2
    99     7     9   ar
   100    70    68    1
   101    10    11   ar
   102    68    69    1
   103     9    11   ar
   104    79    73   am
   105    74    73    2
   106     3     4    2
   107    73    72    1
   108    16    17    1
   109    16    13    1
   110    12    13    1
   111    72    75    1
   112    72    71    1
   113    75    76    1
   114    13    14    1
   115    14    15    2
   116    76    78    1
   117    76    77    1
