@<TRIPOS>MOLECULE
tmp/4pg3B01.pdb
 157 150 0 0 0
SMALL
GASTEIGER

@<TRIPOS>ATOM
      1  N        -25.2820   30.3740  -21.1840 N.3   251  ARG251     -0.1245
      2  CA       -23.8520   30.5110  -21.4230 C.3   251  ARG251      0.1563
      3  C        -23.5770   31.6170  -22.4380 C.2   251  ARG251      0.2260
      4  O        -23.9860   31.5390  -23.5970 O.2   251  ARG251     -0.2867
      5  CB       -23.2640   29.1710  -21.8740 C.3   251  ARG251      0.0307
      6  CG       -23.4510   28.0940  -20.8120 C.3   251  ARG251      0.0489
      7  CD       -22.7950   26.7640  -21.1480 C.3   251  ARG251      0.2205
      8  NE       -23.0670   25.7870  -20.0940 N.pl3 251  ARG251     -0.0865
      9  CZ       -22.6640   24.5210  -20.1090 C.cat 251  ARG251      0.5346
     10  NH1      -21.9560   24.0520  -21.1280 N.pl3 251  ARG251      0.1354
     11  NH2      -22.9720   23.7190  -19.0990 N.pl3 251  ARG251      0.1354
     12  N        -21.5590   32.7590  -24.7130 N.3   253  GLU253     -0.1231
     13  CA       -20.4700   32.3690  -25.5960 C.3   253  GLU253      0.1699
     14  C        -21.0000   32.5280  -27.0160 C.2   253  GLU253      0.2592
     15  O        -21.9520   33.2690  -27.2610 O.2   253  GLU253     -0.2718
     16  CB       -20.1830   30.8720  -25.4580 C.3   253  GLU253      0.0402
     17  CG       -19.8010   30.4410  -24.0520 C.3   253  GLU253      0.1161
     18  CD       -19.6390   28.9360  -23.9190 C.2   253  GLU253      0.3649
     19  OE1      -20.5090   28.1910  -24.4160 O.co2 253  GLU253     -0.2457
     20  OE2      -18.6370   28.4980  -23.3150 O.co2 253  GLU253     -0.2457
     21  N        -20.3780   31.8180  -27.9510 N.am  254  GLY254     -0.1957
     22  CA       -20.6330   32.0010  -29.3660 C.3   254  GLY254      0.1869
     23  C        -21.8120   31.2250  -29.9100 C.2   254  GLY254      0.2309
     24  O        -22.1550   30.1590  -29.4020 O.2   254  GLY254     -0.2863
     25  N        -24.7400   24.4570  -33.2330 N.3   258  THR258     -0.1203
     26  CA       -24.8560   23.5880  -32.0690 C.3   258  THR258      0.1994
     27  C        -24.7300   24.3770  -30.7740 C.2   258  THR258      0.2618
     28  O        -24.5180   23.8010  -29.7050 O.2   258  THR258     -0.2717
     29  CB       -23.7930   22.4750  -32.0820 C.3   258  THR258      0.1784
     30  OG1      -22.5140   23.0380  -32.3940 O.3   258  THR258     -0.2211
     31  CG2      -24.1370   21.4280  -33.1200 C.3   258  THR258      0.0376
     32  N        -24.8680   25.6960  -30.8710 N.am  259  HIS259     -0.1961
     33  CA       -24.7630   26.5560  -29.7000 C.3   259  HIS259      0.1787
     34  C        -25.8280   27.6480  -29.6870 C.2   259  HIS259      0.2620
     35  O        -25.9290   28.4470  -30.6180 O.2   259  HIS259     -0.2715
     36  CB       -23.3700   27.1880  -29.6250 C.3   259  HIS259      0.0785
     37  CG       -22.2840   26.2200  -29.2670 C.ar  259  HIS259      0.0821
     38  ND1      -21.6630   25.4160  -30.1990 N.ar  259  HIS259     -0.2267
     39  CD2      -21.7070   25.9290  -28.0770 C.ar  259  HIS259      0.1154
     40  CE1      -20.7510   24.6720  -29.5990 C.ar  259  HIS259      0.1986
     41  NE2      -20.7570   24.9640  -28.3100 N.ar  259  HIS259     -0.2212
     42  N        -26.6250   27.6660  -28.6230 N.am  260  ASN260     -0.1959
     43  CA       -27.5720   28.7450  -28.3770 C.3   260  ASN260      0.1804
     44  C        -27.3630   29.2620  -26.9560 C.2   260  ASN260      0.2463
     45  O        -27.2290   28.4700  -26.0270 O.2   260  ASN260     -0.2730
     46  CB       -29.0090   28.2650  -28.5830 C.3   260  ASN260      0.1195
     47  CG       -30.0060   29.4060  -28.6250 C.2   260  ASN260      0.2630
     48  OD1      -30.2350   30.0050  -29.6740 O.2   260  ASN260     -0.2716
     49  ND2      -30.6080   29.7110  -27.4820 N.am  260  ASN260     -0.0877
     50  N        -27.3210   30.5940  -26.7880 N.am  261  PRO261     -0.2727
     51  CA       -26.9560   31.2340  -25.5170 C.3   261  PRO261      0.1402
     52  C        -27.7150   30.6450  -24.3290 C.2   261  PRO261      0.2269
     53  O        -27.1280   30.3740  -23.2820 O.2   261  PRO261     -0.2865
     54  CB       -27.3330   32.6990  -25.7460 C.3   261  PRO261      0.0296
     55  CG       -27.2120   32.8800  -27.2170 C.3   261  PRO261      0.0237
     56  CD       -27.6870   31.5840  -27.8140 C.3   261  PRO261      0.0939
     57  N        -30.0050   27.2560  -23.4480 N.3   263  PHE263     -0.1241
     58  CA       -30.3880   25.9510  -23.9560 C.3   263  PHE263      0.1605
     59  C        -30.8790   25.0860  -22.8110 C.2   263  PHE263      0.2264
     60  O        -30.6330   25.3820  -21.6410 O.2   263  PHE263     -0.2867
     61  CB       -29.2240   25.2810  -24.6890 C.3   263  PHE263      0.0534
     62  CG       -28.0500   24.9630  -23.8100 C.ar  263  PHE263     -0.0203
     63  CD1      -27.1850   25.9650  -23.3960 C.ar  263  PHE263     -0.0042
     64  CD2      -27.8020   23.6610  -23.4100 C.ar  263  PHE263     -0.0042
     65  CE1      -26.0950   25.6730  -22.5860 C.ar  263  PHE263     -0.0003
     66  CE2      -26.7160   23.3620  -22.6040 C.ar  263  PHE263     -0.0003
     67  CZ       -25.8610   24.3690  -22.1920 C.ar  263  PHE263     -0.0000
     68  N        -30.9480   21.8580  -20.5470 N.3   265  SER265     -0.1217
     69  CA       -30.1380   20.7350  -20.1100 C.3   265  SER265      0.1889
     70  C        -30.8670   19.9090  -19.0670 C.2   265  SER265      0.2288
     71  O        -31.7930   20.3810  -18.4070 O.2   265  SER265     -0.2866
     72  CB       -28.8030   21.2100  -19.5390 C.3   265  SER265      0.2089
     73  OG       -28.9430   21.5880  -18.1810 O.3   265  SER265     -0.2183
     74  N        -29.6570   17.5750  -15.7900 N.3   267  GLU267     -0.1245
     75  CA       -28.6190   17.0350  -14.9250 C.3   267  GLU267      0.1567
     76  C        -29.2580   16.2540  -13.7840 C.2   267  GLU267      0.2260
     77  O        -30.1380   16.7660  -13.0900 O.2   267  GLU267     -0.2867
     78  CB       -27.7240   18.1500  -14.3740 C.3   267  GLU267      0.0388
     79  CG       -26.8410   18.8370  -15.4140 C.3   267  GLU267      0.1160
     80  CD       -25.9110   19.8820  -14.8030 C.2   267  GLU267      0.3649
     81  OE1      -25.4050   19.6480  -13.6840 O.co2 267  GLU267     -0.2457
     82  OE2      -25.6910   20.9390  -15.4370 O.co2 267  GLU267     -0.2457
     83  N        -20.8740   16.5000  -28.7400 N.3   421  GLU421     -0.1231
     84  CA       -21.1250   16.0760  -27.3650 C.3   421  GLU421      0.1699
     85  C        -22.5850   16.2950  -26.9570 C.2   421  GLU421      0.2592
     86  O        -23.1220   17.3960  -27.0930 O.2   421  GLU421     -0.2718
     87  CB       -20.1940   16.8210  -26.4090 C.3   421  GLU421      0.0402
     88  CG       -20.3590   16.4400  -24.9510 C.3   421  GLU421      0.1161
     89  CD       -19.6940   17.4310  -24.0140 C.2   421  GLU421      0.3649
     90  OE1      -19.3520   18.5450  -24.4720 O.co2 421  GLU421     -0.2457
     91  OE2      -19.5180   17.0980  -22.8200 O.co2 421  GLU421     -0.2457
     92  N        -23.2240   15.2420  -26.4560 N.am  422  VAL422     -0.1966
     93  CA       -24.6120   15.3290  -26.0110 C.3   422  VAL422      0.1727
     94  C        -24.7500   14.9700  -24.5370 C.2   422  VAL422      0.2616
     95  O        -25.8110   15.1680  -23.9390 O.2   422  VAL422     -0.2715
     96  CB       -25.5370   14.3960  -26.8180 C.3   422  VAL422      0.0290
     97  CG1      -25.5680   14.8010  -28.2830 C.3   422  VAL422      0.0023
     98  CG2      -25.0960   12.9490  -26.6590 C.3   422  VAL422      0.0023
     99  N        -23.6770   14.4400  -23.9550 N.am  423  LEU423     -0.1963
    100  CA       -23.7280   13.9510  -22.5830 C.3   423  LEU423      0.1728
    101  C        -22.3820   14.0890  -21.8770 C.2   423  LEU423      0.2616
    102  O        -21.3290   13.8230  -22.4530 O.2   423  LEU423     -0.2715
    103  CB       -24.1960   12.4930  -22.5720 C.3   423  LEU423      0.0311
    104  CG       -24.2190   11.7000  -21.2650 C.3   423  LEU423      0.0022
    105  CD1      -25.1230   10.4880  -21.4240 C.3   423  LEU423      0.0001
    106  CD2      -22.8200   11.2590  -20.8650 C.3   423  LEU423      0.0001
    107  N        -22.4320   14.5080  -20.6200 N.am  424  ASN424     -0.1972
    108  CA       -21.2330   14.6890  -19.8140 C.3   424  ASN424      0.1688
    109  C        -21.4740   14.1940  -18.3960 C.2   424  ASN424      0.2292
    110  O        -22.2120   14.8140  -17.6330 O.2   424  ASN424     -0.2864
    111  CB       -20.8110   16.1620  -19.8000 C.3   424  ASN424      0.1181
    112  CG       -19.5660   16.4100  -18.9610 C.2   424  ASN424      0.2629
    113  OD1      -18.6940   15.5480  -18.8520 O.2   424  ASN424     -0.2716
    114  ND2      -19.4800   17.5970  -18.3630 N.am  424  ASN424     -0.0877
    115  N        -25.0740   15.0060  -17.2510 N.3   459  GLY459     -0.1210
    116  CA       -25.7520   16.1160  -17.8970 C.3   459  GLY459      0.1956
    117  C        -26.0830   15.8170  -19.3470 C.2   459  GLY459      0.2612
    118  O        -25.2390   15.3270  -20.1050 O.2   459  GLY459     -0.2717
    119  N        -27.3190   16.1130  -19.7370 N.am  460  LEU460     -0.1965
    120  CA       -27.7620   15.8820  -21.1080 C.3   460  LEU460      0.1728
    121  C        -27.9890   17.1820  -21.8720 C.2   460  LEU460      0.2616
    122  O        -28.6250   18.1110  -21.3690 O.2   460  LEU460     -0.2715
    123  CB       -29.0490   15.0560  -21.1200 C.3   460  LEU460      0.0311
    124  CG       -28.9430   13.6100  -20.6460 C.3   460  LEU460      0.0022
    125  CD1      -30.3100   12.9440  -20.6950 C.3   460  LEU460      0.0001
    126  CD2      -27.9420   12.8540  -21.5010 C.3   460  LEU460      0.0001
    127  N        -27.4650   17.2420  -23.0920 N.am  461  GLY461     -0.1955
    128  CA       -27.7910   18.3210  -24.0040 C.3   461  GLY461      0.1869
    129  C        -29.0630   17.9620  -24.7490 C.2   461  GLY461      0.2309
    130  O        -29.0200   17.3090  -25.7910 O.2   461  GLY461     -0.2863
    131  N        -31.3020   19.7470  -26.4440 N.3   463  ASP463     -0.1225
    132  CA       -31.4940   20.3400  -27.7630 C.3   463  ASP463      0.1805
    133  C        -30.7540   19.5570  -28.8430 C.2   463  ASP463      0.2597
    134  O        -31.3350   19.1880  -29.8660 O.2   463  ASP463     -0.2718
    135  CB       -31.0270   21.7940  -27.7730 C.3   463  ASP463      0.1424
    136  CG       -31.5480   22.5760  -26.5920 C.2   463  ASP463      0.3668
    137  OD1      -32.6570   23.1470  -26.7000 O.co2 463  ASP463     -0.2456
    138  OD2      -30.8450   22.6160  -25.5570 O.co2 463  ASP463     -0.2456
    139  N        -29.4680   19.3160  -28.6070 N.am  464  ARG464     -0.1979
    140  CA       -28.6330   18.5900  -29.5530 C.3   464  ARG464      0.1597
    141  C        -29.1690   17.1920  -29.8100 C.2   464  ARG464      0.2287
    142  O        -29.1640   16.7140  -30.9450 O.2   464  ARG464     -0.2864
    143  CB       -27.1980   18.5130  -29.0430 C.3   464  ARG464      0.0334
    144  CG       -26.5120   19.8560  -28.9630 C.3   464  ARG464      0.0492
    145  CD       -25.0720   19.7010  -28.5330 C.3   464  ARG464      0.2205
    146  NE       -24.3740   20.9780  -28.5580 N.pl3 464  ARG464     -0.0865
    147  CZ       -23.1430   21.1600  -28.1000 C.cat 464  ARG464      0.5346
    148  NH1      -22.4770   20.1370  -27.5780 N.pl3 464  ARG464      0.1354
    149  NH2      -22.5820   22.3630  -28.1600 N.pl3 464  ARG464      0.1354
    150  N        -29.2880   23.7810  -34.2560 N.3   475  ILE475     -0.1245
    151  CA       -30.0490   23.8430  -33.0170 C.3   475  ILE475      0.1561
    152  C        -31.1870   24.8620  -33.1240 C.2   475  ILE475      0.2260
    153  O        -32.1500   24.8130  -32.3580 O.2   475  ILE475     -0.2867
    154  CB       -29.1430   24.2100  -31.8280 C.3   475  ILE475      0.0252
    155  CG1      -29.5850   23.4760  -30.5610 C.3   475  ILE475      0.0019
    156  CG2      -29.1250   25.7140  -31.6140 C.3   475  ILE475      0.0019
    157  CD1      -28.7710   23.8420  -29.3420 C.3   475  ILE475      0.0001
@<TRIPOS>BOND
     1   150   151    1
     2    25    26    1
     3   152   151    1
     4   152   153    2
     5    31    29    1
     6   151   154    1
     7    30    29    1
     8    29    26    1
     9    26    27    1
    10   154   156    1
    11   154   155    1
    12   142   141    2
    13    32    27   am
    14    32    33    1
    15    27    28    2
    16    35    34    2
    17   155   157    1
    18    38    40   ar
    19    38    37   ar
    20    23    24    2
    21    23    22    1
    22   134   133    2
    23   141   140    1
    24    33    34    1
    25    33    36    1
    26    34    42   am
    27    48    47    2
    28    36    37    1
    29    40    41   ar
    30   140   143    1
    31   140   139    1
    32    22    21    1
    33    37    39   ar
    34   143   144    1
    35   144   145    1
    36   133   139   am
    37   133   132    1
    38    83    84    1
    39    47    46    1
    40    47    49   am
    41    42    43    1
    42    46    43    1
    43   146   145    1
    44   146   147    2
    45    43    44    1
    46    41    39   ar
    47    97    96    1
    48   149   147    1
    49   147   148    1
    50    21    14   am
    51    56    55    1
    52    56    50    1
    53   135   132    1
    54   135   136    1
    55   132   131    1
    56    84    85    1
    57    84    87    1
    58    15    14    2
    59    55    54    1
    60    86    85    2
    61    14    13    1
    62    85    92   am
    63    44    50   am
    64    44    45    2
    65    96    98    1
    66    96    93    1
    67    50    51    1
    68   137   136   ar
    69   136   138   ar
    70    92    93    1
    71    87    88    1
    72    93    94    1
    73   130   129    2
    74    54    51    1
    75    13    16    1
    76    13    12    1
    77    51    52    1
    78    16    17    1
    79    88    89    1
    80   129   128    1
    81    61    58    1
    82    61    62    1
    83    94    99   am
    84    94    95    2
    85    90    89   ar
    86    19    18   ar
    87    52    53    2
    88    17    18    1
    89    89    91   ar
    90   128   127    1
    91    58    57    1
    92    58    59    1
    93    99   100    1
    94    18    20   ar
    95    62    64   ar
    96    62    63   ar
    97     4     3    2
    98    64    66   ar
    99    63    65   ar
   100   127   121   am
   101    59    60    2
   102    66    67   ar
   103    65    67   ar
   104   100   103    1
   105   100   101    1
   106   103   104    1
   107   102   101    2
   108     3     2    1
   109   101   107   am
   110     5     2    1
   111     5     6    1
   112   121   122    2
   113   121   120    1
   114   126   124    1
   115   105   104    1
   116     2     1    1
   117   104   106    1
   118     7     6    1
   119     7     8    1
   120    10     9    1
   121   123   120    1
   122   123   124    1
   123   120   119    1
   124   125   124    1
   125   107   108    1
   126    68    69    1
   127    69    72    1
   128    69    70    1
   129     9     8    2
   130     9    11    1
   131   118   117    2
   132   108   111    1
   133   108   109    1
   134   111   112    1
   135   119   117   am
   136    72    73    1
   137   117   116    1
   138    70    71    2
   139   112   113    2
   140   112   114   am
   141   109   110    2
   142   116   115    1
   143    74    75    1
   144    82    80   ar
   145    79    80    1
   146    79    78    1
   147    75    78    1
   148    75    76    1
   149    80    81   ar
   150    76    77    2
