@<TRIPOS>MOLECULE
tmp/4pg7B00.pdb
 86 85 0 0 0
SMALL
GASTEIGER

@<TRIPOS>ATOM
      1  N          4.7120   -4.9850   -3.9210 N.3   323  ASN323     -0.1225
      2  CA         4.3790   -6.2740   -3.3100 C.3   323  ASN323      0.1785
      3  C          5.5690   -6.8150   -2.5180 C.2   323  ASN323      0.2597
      4  O          6.6500   -6.2140   -2.5130 O.2   323  ASN323     -0.2718
      5  CB         3.7970   -7.2640   -4.3320 C.3   323  ASN323      0.1169
      6  CG         4.6430   -7.3990   -5.5690 C.2   323  ASN323      0.2627
      7  OD1        5.8050   -7.0530   -5.5500 O.2   323  ASN323     -0.2716
      8  ND2        4.0670   -7.9020   -6.6470 N.am  323  ASN323     -0.0877
      9  N          5.3440   -7.9190   -1.8150 N.am  324  HIS324     -0.1961
     10  CA         6.3550   -8.5560   -0.9530 C.3   324  HIS324      0.1787
     11  C          6.9230   -7.5790    0.0600 C.2   324  HIS324      0.2620
     12  O          8.1100   -7.6010    0.3680 O.2   324  HIS324     -0.2715
     13  CB         7.4930   -9.1470   -1.7810 C.3   324  HIS324      0.0785
     14  CG         7.0380   -9.9820   -2.9250 C.ar  324  HIS324      0.0821
     15  ND1        6.5090  -11.2440   -2.7620 N.ar  324  HIS324     -0.2267
     16  CD2        7.0380   -9.7440   -4.2580 C.ar  324  HIS324      0.1154
     17  CE1        6.1980  -11.7450   -3.9430 C.ar  324  HIS324      0.1986
     18  NE2        6.5050  -10.8540   -4.8690 N.ar  324  HIS324     -0.2212
     19  N          6.0720   -6.7220    0.5950 N.am  325  VAL325     -0.1963
     20  CA         6.5040   -5.7790    1.6030 C.3   325  VAL325      0.1727
     21  C          6.3160   -6.4110    2.9820 C.2   325  VAL325      0.2616
     22  O          5.2170   -6.8150    3.3290 O.2   325  VAL325     -0.2715
     23  CB         5.7040   -4.4750    1.5410 C.3   325  VAL325      0.0290
     24  CG1        6.2370   -3.4830    2.5710 C.3   325  VAL325      0.0023
     25  CG2        5.7370   -3.8940    0.1320 C.3   325  VAL325      0.0023
     26  N          7.3960   -6.5020    3.7530 N.am  326  LYS326     -0.1974
     27  CA         7.3100   -6.9360    5.1410 C.3   326  LYS326      0.1639
     28  C          7.0570   -5.7010    5.9880 C.2   326  LYS326      0.2290
     29  O          7.5290   -4.6070    5.6670 O.2   326  LYS326     -0.2864
     30  CB         8.6050   -7.6250    5.5860 C.3   326  LYS326      0.0554
     31  CG         8.9690   -8.8310    4.7160 C.2   326  LYS326     -0.0270
     32  CD         9.7110   -8.5330    3.3860 C.2   326  LYS326     -0.0102
     33  CE         9.9450   -9.7440    2.4620 C.3   326  LYS326      0.1350
     34  NZ         8.6910  -10.2750    1.9540 N.3   326  LYS326     -0.1262
     35  N          9.1840    4.6300    5.2380 N.3   335  GLU335     -0.1245
     36  CA        10.2670    4.2890    4.3140 C.3   335  GLU335      0.1567
     37  C         10.1670    5.0550    2.9730 C.2   335  GLU335      0.2260
     38  O         11.1420    5.6230    2.4740 O.2   335  GLU335     -0.2867
     39  CB        10.2760    2.7780    4.0780 C.3   335  GLU335      0.0388
     40  CG        11.0030    1.9950    5.1730 C.3   335  GLU335      0.1160
     41  CD        10.6970    0.4990    5.1740 C.2   335  GLU335      0.3649
     42  OE1       10.3150   -0.0550    4.1220 O.co2 335  GLU335     -0.2457
     43  OE2       10.8550   -0.1410    6.2390 O.co2 335  GLU335     -0.2457
     44  N         12.7060    7.7200    1.1650 N.3   339  ILE339     -0.1245
     45  CA        13.3210    7.3770   -0.1250 C.3   339  ILE339      0.1561
     46  C         13.0280    8.3620   -1.2520 C.2   339  ILE339      0.2260
     47  O         13.8620    8.6000   -2.1440 O.2   339  ILE339     -0.2867
     48  CB        12.8090    5.9770   -0.5200 C.3   339  ILE339      0.0252
     49  CG1       13.6130    4.9190    0.2220 C.3   339  ILE339      0.0019
     50  CG2       12.8500    5.7400   -2.0100 C.3   339  ILE339      0.0019
     51  CD1       12.8380    3.6310    0.3500 C.3   339  ILE339      0.0001
     52  N         16.0590    0.6250   -4.2360 N.3   374  HIS374     -0.1226
     53  CA        16.0570    0.4870   -2.7920 C.3   374  HIS374      0.1752
     54  C         15.6150   -0.9120   -2.2960 C.2   374  HIS374      0.2597
     55  O         15.5190   -1.1260   -1.0900 O.2   374  HIS374     -0.2718
     56  CB        15.1880    1.5640   -2.1450 C.3   374  HIS374      0.0759
     57  CG        15.8850    2.8730   -1.9510 C.ar  374  HIS374      0.0818
     58  ND1       16.7190    3.1260   -0.8840 N.ar  374  HIS374     -0.2268
     59  CD2       15.8690    4.0040   -2.6880 C.ar  374  HIS374      0.1154
     60  CE1       17.1860    4.3580   -0.9690 C.ar  374  HIS374      0.1986
     61  NE2       16.6690    4.9180   -2.0460 N.ar  374  HIS374     -0.2212
     62  N         15.3390   -1.8490   -3.2010 N.am  375  GLY375     -0.1942
     63  CA        15.0640   -3.2550   -2.8260 C.3   375  GLY375      0.2014
     64  C         13.6020   -3.6860   -2.7640 C.2   375  GLY375      0.2639
     65  O         13.3300   -4.7870   -2.3260 O.2   375  GLY375     -0.2714
     66  N         12.6620   -2.8360   -3.1930 N.am  376  TYR376     -0.1959
     67  CA        11.2370   -3.1970   -3.2310 C.3   376  TYR376      0.1771
     68  C         10.8550   -3.7690   -4.5750 C.2   376  TYR376      0.2619
     69  O         11.4640   -3.4560   -5.5970 O.2   376  TYR376     -0.2715
     70  CB        10.3480   -1.9890   -2.9740 C.3   376  TYR376      0.0574
     71  CG        10.6000   -1.3990   -1.6400 C.ar  376  TYR376     -0.0198
     72  CD1        9.9030   -1.8260   -0.5230 C.ar  376  TYR376     -0.0009
     73  CD2       11.5780   -0.4340   -1.4760 C.ar  376  TYR376     -0.0009
     74  CE1       10.1710   -1.2890    0.7260 C.ar  376  TYR376      0.0417
     75  CE2       11.8580    0.1120   -0.2430 C.ar  376  TYR376      0.0417
     76  CZ        11.1520   -0.3200    0.8570 C.ar  376  TYR376      0.1957
     77  OH        11.4560    0.2090    2.0790 O.3   376  TYR376     -0.2866
     78  N          9.8340   -4.6070   -4.5530 N.am  377  GLU377     -0.1977
     79  CA         9.2430   -5.1640   -5.7370 C.3   377  GLU377      0.1602
     80  C          8.0670   -4.2850   -6.1660 C.2   377  GLU377      0.2287
     81  O          7.0140   -4.2850   -5.5510 O.2   377  GLU377     -0.2864
     82  CB         8.7880   -6.6040   -5.4620 C.3   377  GLU377      0.0415
     83  CG         9.8690   -7.5100   -4.8610 C.3   377  GLU377      0.1163
     84  CD        11.0520   -7.7860   -5.7900 C.2   377  GLU377      0.3649
     85  OE1       10.8370   -8.0590   -6.9850 O.co2 377  GLU377     -0.2457
     86  OE2       12.2090   -7.7390   -5.3170 O.co2 377  GLU377     -0.2457
@<TRIPOS>BOND
     1    85    84   ar
     2     8     6   am
     3    80    79    1
     4    80    81    2
     5    84    86   ar
     6    84    83    1
     7    79    82    1
     8    79    78    1
     9    69    68    2
    10     6     7    2
    11     6     5    1
    12    82    83    1
    13    18    16   ar
    14    18    17   ar
    15    68    78   am
    16    68    67    1
    17     5     2    1
    18    16    14   ar
    19    52    53    1
    20    17    15   ar
    21     1     2    1
    22     2     3    1
    23    67    66    1
    24    67    70    1
    25    62    63    1
    26    62    54   am
    27    66    64   am
    28    70    71    1
    29    14    15   ar
    30    14    13    1
    31    63    64    1
    32    53    54    1
    33    53    56    1
    34    64    65    2
    35    59    61   ar
    36    59    57   ar
    37     3     4    2
    38     3     9   am
    39    54    55    2
    40    56    57    1
    41    47    46    2
    42    61    60   ar
    43    50    48    1
    44    57    58   ar
    45     9    10    1
    46    13    10    1
    47    71    73   ar
    48    71    72   ar
    49    73    75   ar
    50    46    45    1
    51    60    58   ar
    52    10    11    1
    53    72    74   ar
    54    48    45    1
    55    48    49    1
    56    75    76   ar
    57    45    44    1
    58    11    12    2
    59    11    19   am
    60    25    23    1
    61    49    51    1
    62    19    20    1
    63    74    76   ar
    64    76    77    1
    65    23    20    1
    66    23    24    1
    67    20    21    1
    68    34    33    1
    69    33    32    1
    70    38    37    2
    71    37    36    1
    72    21    22    2
    73    21    26   am
    74    32    31    2
    75    26    27    1
    76    39    36    1
    77    39    40    1
    78    42    41   ar
    79    36    35    1
    80    31    30    1
    81    27    30    1
    82    27    28    1
    83    40    41    1
    84    41    43   ar
    85    29    28    2
