@<TRIPOS>MOLECULE
tmp/4pg8B00.pdb
 77 72 0 0 0
SMALL
GASTEIGER

@<TRIPOS>ATOM
      1  N         22.0040  -55.6480  -52.7370 N.3    10  GLY10      -0.1210
      2  CA        21.4320  -56.5010  -51.7030 C.3    10  GLY10       0.1956
      3  C         19.9260  -56.3360  -51.5600 C.2    10  GLY10       0.2612
      4  O         19.3890  -55.2640  -51.7920 O.2    10  GLY10      -0.2717
      5  N         19.2510  -57.3870  -51.1180 N.am   11  LEU11      -0.1965
      6  CA        17.7960  -57.3730  -50.9820 C.3    11  LEU11       0.1728
      7  C         17.3160  -58.2630  -49.8360 C.2    11  LEU11       0.2616
      8  O         16.4990  -59.1760  -50.0050 O.2    11  LEU11      -0.2715
      9  CB        17.1630  -57.8400  -52.2900 C.3    11  LEU11       0.0311
     10  CG        15.6760  -57.5610  -52.4850 C.3    11  LEU11       0.0022
     11  CD1       15.3680  -56.0710  -52.4630 C.3    11  LEU11       0.0001
     12  CD2       15.2070  -58.1810  -53.7850 C.3    11  LEU11       0.0001
     13  N         17.8210  -58.0040  -48.6530 N.am   12  GLY12      -0.1955
     14  CA        17.3200  -58.7050  -47.4810 C.3    12  GLY12       0.1869
     15  C         16.1360  -57.9450  -46.9410 C.2    12  GLY12       0.2309
     16  O         15.3850  -57.3200  -47.6810 O.2    12  GLY12      -0.2863
     17  N         21.5790  -59.1950  -56.1940 N.3    44  VAL44      -0.1231
     18  CA        21.3470  -60.2260  -55.1950 C.3    44  VAL44       0.1692
     19  C         22.4020  -61.3020  -55.3890 C.2    44  VAL44       0.2592
     20  O         22.9550  -61.4440  -56.4680 O.2    44  VAL44      -0.2718
     21  CB        19.9230  -60.8140  -55.2900 C.3    44  VAL44       0.0266
     22  CG1       18.8770  -59.7140  -55.1270 C.3    44  VAL44       0.0020
     23  CG2       19.6880  -61.5370  -56.6170 C.3    44  VAL44       0.0020
     24  N         22.6780  -62.0670  -54.3480 N.am   45  ARG45      -0.1966
     25  CA        23.6060  -63.2040  -54.4500 C.3    45  ARG45       0.1729
     26  C         22.9680  -64.3330  -55.2410 C.2    45  ARG45       0.2616
     27  O         23.6170  -64.9560  -56.0690 O.2    45  ARG45      -0.2715
     28  CB        24.0010  -63.7360  -53.0680 C.3    45  ARG45       0.0348
     29  CG        24.6390  -62.7350  -52.1380 C.3    45  ARG45       0.0492
     30  CD        24.9100  -63.3240  -50.7550 C.3    45  ARG45       0.2205
     31  NE        25.3420  -62.3180  -49.7800 N.pl3  45  ARG45      -0.0865
     32  CZ        26.4830  -61.6270  -49.8440 C.cat  45  ARG45       0.5346
     33  NH1       27.3300  -61.7850  -50.8540 N.pl3  45  ARG45       0.1354
     34  NH2       26.7840  -60.7540  -48.8890 N.pl3  45  ARG45       0.1354
     35  N         21.6910  -64.5870  -54.9850 N.am   46  ASP46      -0.1971
     36  CA        20.9810  -65.6840  -55.6310 C.3    46  ASP46       0.1709
     37  C         19.6080  -65.2480  -56.1190 C.2    46  ASP46       0.2293
     38  O         18.6940  -65.0030  -55.3290 O.2    46  ASP46      -0.2864
     39  CB        20.8330  -66.8720  -54.6730 C.3    46  ASP46       0.1436
     40  CG        20.1330  -68.0570  -55.3200 C.2    46  ASP46       0.3671
     41  OD1       20.4000  -68.3310  -56.5090 O.co2  46  ASP46      -0.2456
     42  OD2       19.3010  -68.6940  -54.6420 O.co2  46  ASP46      -0.2456
     43  N         16.1120  -67.1710  -54.8770 N.3    49  LYS49      -0.1245
     44  CA        15.5480  -67.1440  -53.5070 C.3    49  LYS49       0.1561
     45  C         14.1870  -66.4040  -53.3590 C.2    49  LYS49       0.2260
     46  O         13.9930  -65.3430  -53.9500 O.2    49  LYS49      -0.2867
     47  CB        16.5790  -66.5490  -52.5330 C.3    49  LYS49       0.0271
     48  CG        16.1600  -66.3450  -51.1190 C.3    49  LYS49       0.0035
     49  CD        17.4040  -65.8980  -50.3440 C.3    49  LYS49       0.0206
     50  CE        17.1040  -65.3960  -48.9700 C.3    49  LYS49       0.1093
     51  NZ        15.6900  -65.3910  -48.5150 N.3    49  LYS49      -0.1314
     52  N         11.2810  -64.1450  -51.2660 N.3    51  ARG51      -0.1245
     53  CA        11.5550  -62.8920  -50.5320 C.3    51  ARG51       0.1563
     54  C         10.3470  -62.1620  -49.9460 C.2    51  ARG51       0.2260
     55  O          9.2080  -62.5080  -50.2280 O.2    51  ARG51      -0.2867
     56  CB        12.2600  -61.9180  -51.4740 C.3    51  ARG51       0.0307
     57  CG        13.6240  -62.4070  -51.8970 C.3    51  ARG51       0.0489
     58  CD        14.3170  -61.4620  -52.8510 C.3    51  ARG51       0.2205
     59  NE        15.4340  -62.1480  -53.4970 N.pl3  51  ARG51      -0.0865
     60  CZ        16.6150  -62.3830  -52.9290 C.cat  51  ARG51       0.5346
     61  NH1       16.8720  -61.9710  -51.6850 N.pl3  51  ARG51       0.1354
     62  NH2       17.5590  -63.0300  -53.6100 N.pl3  51  ARG51       0.1354
     63  N         23.1770  -52.2080  -49.2000 N.3    79  VAL79      -0.1231
     64  CA        22.5850  -52.8040  -48.0190 C.3    79  VAL79       0.1692
     65  C         22.9600  -54.2800  -47.9800 C.2    79  VAL79       0.2591
     66  O         22.2010  -55.1080  -47.4970 O.2    79  VAL79      -0.2718
     67  CB        21.0450  -52.6630  -48.0310 C.3    79  VAL79       0.0266
     68  CG1       20.6280  -51.2110  -47.8840 C.3    79  VAL79       0.0020
     69  CG2       20.4480  -53.2470  -49.3090 C.3    79  VAL79       0.0020
     70  N         24.1490  -54.6020  -48.4620 N.am   80  MET80      -0.1979
     71  CA        24.5860  -55.9870  -48.6230 C.3    80  MET80       0.1605
     72  C         25.3530  -56.5110  -47.4110 C.2    80  MET80       0.2287
     73  O         25.2880  -57.7000  -47.0990 O.2    80  MET80      -0.2864
     74  CB        25.4780  -56.1030  -49.8650 C.3    80  MET80       0.0413
     75  CG        26.0130  -57.4980  -50.1480 C.3    80  MET80       0.0598
     76  SD        24.7420  -58.6650  -50.6550 S.3    80  MET80      -0.1393
     77  CE        24.8110  -58.4110  -52.4240 C.3    80  MET80       0.0692
@<TRIPOS>BOND
     1    23    21    1
     2    41    40   ar
     3    20    19    2
     4    17    18    1
     5    37    36    1
     6    37    38    2
     7    27    26    2
     8    36    35    1
     9    36    39    1
    10    19    18    1
    11    19    24   am
    12    40    39    1
    13    40    42   ar
    14    21    18    1
    15    21    22    1
    16    26    35   am
    17    26    25    1
    18    43    44    1
    19    25    24    1
    20    25    28    1
    21    46    45    2
    22    12    10    1
    23    62    60    1
    24    44    45    1
    25    44    47    1
    26    59    60    2
    27    59    58    1
    28    28    29    1
    29    60    61    1
    30    58    57    1
    31     1     2    1
    32    47    48    1
    33    10    11    1
    34    10     9    1
    35    77    76    1
    36     9     6    1
    37    29    30    1
    38    57    56    1
    39     4     3    2
    40     2     3    1
    41     3     5   am
    42    56    53    1
    43    52    53    1
    44    48    49    1
    45     5     6    1
    46     6     7    1
    47    33    32    1
    48    30    31    1
    49    76    75    1
    50    53    54    1
    51    49    50    1
    52    55    54    2
    53    75    74    1
    54     8     7    2
    55    74    71    1
    56    32    31    2
    57    32    34    1
    58     7    13   am
    59    69    67    1
    60    63    64    1
    61    50    51    1
    62    13    14    1
    63    71    70    1
    64    71    72    1
    65    70    65   am
    66    67    64    1
    67    67    68    1
    68    64    65    1
    69    65    66    2
    70    16    15    2
    71    14    15    1
    72    72    73    2
