@<TRIPOS>MOLECULE
tmp/4pgbD00.pdb
 173 164 0 0 0
SMALL
GASTEIGER

@<TRIPOS>ATOM
      1  N         22.8350   -0.6840   47.4460 N.3     5  LEU5       -0.1245
      2  CA        24.0340   -0.9850   48.2290 C.3     5  LEU5        0.1561
      3  C         24.5060    0.3030   48.8900 C.2     5  LEU5        0.2260
      4  O         25.1110    1.1500   48.2370 O.2     5  LEU5       -0.2867
      5  CB        25.1450   -1.5650   47.3470 C.3     5  LEU5        0.0270
      6  CG        26.5180   -1.7830   48.0010 C.3     5  LEU5        0.0019
      7  CD1       26.4210   -2.7630   49.1590 C.3     5  LEU5        0.0001
      8  CD2       27.5370   -2.2640   46.9810 C.3     5  LEU5        0.0001
      9  N         26.5420    2.2240   52.2600 N.3     7  TYR7       -0.1241
     10  CA        27.5300    2.0820   53.3270 C.3     7  TYR7        0.1605
     11  C         27.3830    3.2290   54.3220 C.2     7  TYR7        0.2264
     12  O         27.5670    4.3980   53.9720 O.2     7  TYR7       -0.2867
     13  CB        28.9490    2.0430   52.7550 C.3     7  TYR7        0.0534
     14  CG        29.3440    0.6840   52.2300 C.ar    7  TYR7       -0.0201
     15  CD1       29.8100   -0.3020   53.0920 C.ar    7  TYR7       -0.0009
     16  CD2       29.2440    0.3780   50.8750 C.ar    7  TYR7       -0.0009
     17  CE1       30.1670   -1.5530   52.6240 C.ar    7  TYR7        0.0417
     18  CE2       29.6020   -0.8700   50.3970 C.ar    7  TYR7        0.0417
     19  CZ        30.0630   -1.8320   51.2750 C.ar    7  TYR7        0.1957
     20  OH        30.4260   -3.0750   50.8090 O.3     7  TYR7       -0.2866
     21  N         31.9290    1.3140   60.0410 N.3    24  GLU24      -0.1245
     22  CA        31.3240    1.2130   58.7190 C.3    24  GLU24       0.1567
     23  C         30.3120    0.0740   58.7760 C.2    24  GLU24       0.2260
     24  O         30.5760   -0.9610   59.3870 O.2    24  GLU24      -0.2867
     25  CB        32.3700    0.9150   57.6460 C.3    24  GLU24       0.0388
     26  CG        33.5150    1.9130   57.5750 C.3    24  GLU24       0.1160
     27  CD        34.5020    1.6140   56.4550 C.2    24  GLU24       0.3649
     28  OE1       34.2170    0.7420   55.6050 O.co2  24  GLU24      -0.2457
     29  OE2       35.5720    2.2590   56.4200 O.co2  24  GLU24      -0.2457
     30  N         36.7470   -6.2990   59.2210 N.3    45  TYR45      -0.1241
     31  CA        35.4540   -6.4490   58.5530 C.3    45  TYR45       0.1605
     32  C         34.9200   -7.8680   58.7540 C.2    45  TYR45       0.2264
     33  O         35.6210   -8.8470   58.4920 O.2    45  TYR45      -0.2867
     34  CB        35.5530   -6.1260   57.0570 C.3    45  TYR45       0.0534
     35  CG        34.8200   -4.8660   56.6560 C.ar   45  TYR45      -0.0201
     36  CD1       33.4430   -4.8790   56.4670 C.ar   45  TYR45      -0.0009
     37  CD2       35.4990   -3.6670   56.4600 C.ar   45  TYR45      -0.0009
     38  CE1       32.7600   -3.7330   56.0970 C.ar   45  TYR45       0.0417
     39  CE2       34.8260   -2.5140   56.0910 C.ar   45  TYR45       0.0417
     40  CZ        33.4560   -2.5530   55.9110 C.ar   45  TYR45       0.1957
     41  OH        32.7770   -1.4170   55.5440 O.3    45  TYR45      -0.2866
     42  N         39.1960  -11.0140   50.0340 N.3    59  TYR59      -0.1241
     43  CA        38.1300  -10.0240   50.1610 C.3    59  TYR59       0.1605
     44  C         38.1500   -9.3660   51.5380 C.2    59  TYR59       0.2264
     45  O         38.1190   -8.1370   51.6450 O.2    59  TYR59      -0.2867
     46  CB        36.7590  -10.6650   49.9240 C.3    59  TYR59       0.0534
     47  CG        35.6040   -9.7140   50.1530 C.ar   59  TYR59      -0.0201
     48  CD1       34.8300   -9.7840   51.3130 C.ar   59  TYR59      -0.0009
     49  CD2       35.2970   -8.7320   49.2200 C.ar   59  TYR59      -0.0009
     50  CE1       33.7780   -8.9090   51.5260 C.ar   59  TYR59       0.0417
     51  CE2       34.2490   -7.8520   49.4250 C.ar   59  TYR59       0.0417
     52  CZ        33.4920   -7.9450   50.5770 C.ar   59  TYR59       0.1957
     53  OH        32.4500   -7.0700   50.7760 O.3    59  TYR59      -0.2866
     54  N         41.2760   -7.2170   52.2260 N.3    62  ARG62      -0.1231
     55  CA        41.1830   -5.9830   51.4440 C.3    62  ARG62       0.1694
     56  C         40.2320   -4.9750   52.0850 C.2    62  ARG62       0.2591
     57  O         40.5630   -3.7940   52.2040 O.2    62  ARG62      -0.2718
     58  CB        40.7320   -6.2810   50.0090 C.3    62  ARG62       0.0321
     59  CG        40.8900   -5.1050   49.0540 C.3    62  ARG62       0.0489
     60  CD        40.2820   -5.3810   47.6850 C.3    62  ARG62       0.2205
     61  NE        40.8180   -6.5950   47.0620 N.pl3  62  ARG62      -0.0865
     62  CZ        40.1390   -7.7250   46.8450 C.cat  62  ARG62       0.5346
     63  NH1       38.8570   -7.8490   47.1850 N.pl3  62  ARG62       0.1354
     64  NH2       40.7530   -8.7520   46.2660 N.pl3  62  ARG62       0.1354
     65  N         39.0570   -5.4480   52.4940 N.am   63  GLU63      -0.1979
     66  CA        38.0590   -4.5880   53.1290 C.3    63  GLU63       0.1602
     67  C         38.5000   -4.1470   54.5230 C.2    63  GLU63       0.2287
     68  O         38.2400   -3.0140   54.9270 O.2    63  GLU63      -0.2864
     69  CB        36.7000   -5.2940   53.2050 C.3    63  GLU63       0.0415
     70  CG        36.0740   -5.6030   51.8500 C.3    63  GLU63       0.1163
     71  CD        35.8110   -4.3590   51.0150 C.2    63  GLU63       0.3649
     72  OE1       35.1260   -3.4360   51.5060 O.co2  63  GLU63      -0.2457
     73  OE2       36.2870   -4.3050   49.8610 O.co2  63  GLU63      -0.2457
     74  N         41.2820   -1.5170   54.2440 N.3    66  LYS66      -0.1245
     75  CA        40.6440   -0.3130   53.7290 C.3    66  LYS66       0.1561
     76  C         39.9680    0.4800   54.8490 C.2    66  LYS66       0.2260
     77  O         40.0660    1.7040   54.8900 O.2    66  LYS66      -0.2867
     78  CB        39.6210   -0.6940   52.6580 C.3    66  LYS66       0.0271
     79  CG        39.1030    0.4640   51.8230 C.3    66  LYS66       0.0035
     80  CD        37.8610    0.0630   51.0400 C.3    66  LYS66       0.0206
     81  CE        38.1340   -1.0560   50.0430 C.3    66  LYS66       0.1093
     82  NZ        36.8830   -1.5160   49.3830 N.3    66  LYS66      -0.1314
     83  N         40.4730    4.2890   56.2550 N.3    70  ASN70      -0.1240
     84  CA        39.3400    5.2080   56.3350 C.3    70  ASN70       0.1653
     85  C         39.2230    5.8250   57.7240 C.2    70  ASN70       0.2266
     86  O         38.9340    7.0120   57.8510 O.2    70  ASN70      -0.2867
     87  CB        38.0290    4.4960   55.9780 C.3    70  ASN70       0.1155
     88  CG        38.0250    3.9380   54.5670 C.2    70  ASN70       0.2627
     89  OD1       38.9120    4.2290   53.7660 O.2    70  ASN70      -0.2716
     90  ND2       37.0210    3.1280   54.2580 N.am   70  ASN70      -0.0877
     91  N         41.6060    8.6980   58.0750 N.3    73  SER73      -0.1217
     92  CA        41.1280    9.8460   57.3110 C.3    73  SER73       0.1889
     93  C         40.0710   10.6230   58.0880 C.2    73  SER73       0.2288
     94  O         40.1400   11.8480   58.1770 O.2    73  SER73      -0.2866
     95  CB        40.5580    9.4010   55.9650 C.3    73  SER73       0.2089
     96  OG        41.5670    8.8150   55.1650 O.3    73  SER73      -0.2183
     97  N         26.8730    6.5540   51.8450 N.3    99  SER99      -0.1217
     98  CA        27.4010    6.5210   50.4830 C.3    99  SER99       0.1889
     99  C         26.9900    5.2160   49.8110 C.2    99  SER99       0.2288
    100  O         27.3500    4.1330   50.2770 O.2    99  SER99      -0.2866
    101  CB        28.9270    6.6410   50.5070 C.3    99  SER99       0.2089
    102  OG        29.4740    6.5790   49.2010 O.3    99  SER99      -0.2183
    103  N         26.1520   10.3050   47.8280 N.3   114  GLN114     -0.1245
    104  CA        27.0400   10.3360   48.9840 C.3   114  GLN114      0.1566
    105  C         26.8360   11.6610   49.7040 C.2   114  GLN114      0.2260
    106  O         26.9340   12.7250   49.0900 O.2   114  GLN114     -0.2867
    107  CB        28.5030   10.1850   48.5710 C.3   114  GLN114      0.0367
    108  CG        29.4740   10.3530   49.7290 C.3   114  GLN114      0.0905
    109  CD        30.8910    9.9520   49.3790 C.2   114  GLN114      0.2608
    110  OE1       31.8010   10.7780   49.4010 O.2   114  GLN114     -0.2717
    111  NE2       31.0860    8.6800   49.0520 N.am  114  GLN114     -0.0878
    112  N         36.0400   11.2560   40.4530 N.3   155  ARG155     -0.1245
    113  CA        36.5960   10.0160   40.9970 C.3   155  ARG155      0.1563
    114  C         35.5370    9.2220   41.7720 C.2   155  ARG155      0.2260
    115  O         35.5470    7.9900   41.7520 O.2   155  ARG155     -0.2867
    116  CB        37.8050   10.3050   41.8940 C.3   155  ARG155      0.0307
    117  CG        38.6490    9.0750   42.2010 C.3   155  ARG155      0.0489
    118  CD        39.9740    9.4400   42.8590 C.3   155  ARG155      0.2205
    119  NE        39.8000    9.9300   44.2290 N.pl3 155  ARG155     -0.0865
    120  CZ        39.5800    9.1610   45.2970 C.cat 155  ARG155      0.5346
    121  NH1       39.4980    7.8350   45.1830 N.pl3 155  ARG155      0.1354
    122  NH2       39.4380    9.7250   46.4940 N.pl3 155  ARG155      0.1354
    123  N         33.4390    5.1560   41.0860 N.3   159  TYR159     -0.1241
    124  CA        33.0690    4.1710   42.1020 C.3   159  TYR159      0.1605
    125  C         31.5710    3.8790   42.0740 C.2   159  TYR159      0.2264
    126  O         31.1590    2.7200   41.9970 O.2   159  TYR159     -0.2867
    127  CB        33.4740    4.6540   43.5040 C.3   159  TYR159      0.0534
    128  CG        32.8660    3.8370   44.6310 C.ar  159  TYR159     -0.0201
    129  CD1       33.3640    2.5740   44.9520 C.ar  159  TYR159     -0.0009
    130  CD2       31.7860    4.3240   45.3710 C.ar  159  TYR159     -0.0009
    131  CE1       32.8100    1.8230   45.9760 C.ar  159  TYR159      0.0417
    132  CE2       31.2230    3.5790   46.3960 C.ar  159  TYR159      0.0417
    133  CZ        31.7390    2.3290   46.6940 C.ar  159  TYR159      0.1957
    134  OH        31.1860    1.5850   47.7090 O.3   159  TYR159     -0.2866
    135  N         31.9570    0.4360   40.2170 N.3   163  THR163     -0.1203
    136  CA        32.2800   -0.4820   41.3090 C.3   163  THR163      0.1994
    137  C         31.0640   -0.8400   42.1570 C.2   163  THR163      0.2618
    138  O         30.7410   -2.0160   42.3210 O.2   163  THR163     -0.2717
    139  CB        33.3600    0.1200   42.2310 C.3   163  THR163      0.1784
    140  OG1       34.3830    0.7350   41.4380 O.3   163  THR163     -0.2211
    141  CG2       33.9820   -0.9510   43.1170 C.3   163  THR163      0.0376
    142  N         30.3940    0.1800   42.6850 N.am  164  CYS164     -0.1969
    143  CA        29.2510   -0.0140   43.5740 C.3   164  CYS164      0.1712
    144  C         28.1670   -0.8700   42.9270 C.2   164  CYS164      0.2296
    145  O         27.6270   -1.7820   43.5550 O.2   164  CYS164     -0.2864
    146  CB        28.6600    1.3350   43.9820 C.3   164  CYS164      0.0983
    147  SG        27.2990    1.2190   45.1670 S.3   164  CYS164     -0.0798
    148  N         29.5110   -4.6040   42.2680 N.3   167  TRP167     -0.1241
    149  CA        29.5550   -5.3710   43.5160 C.3   167  TRP167      0.1605
    150  C         28.1540   -5.6420   44.0670 C.2   167  TRP167      0.2264
    151  O         27.8710   -6.7530   44.5100 O.2   167  TRP167     -0.2867
    152  CB        30.4360   -4.6820   44.5660 C.3   167  TRP167      0.0550
    153  CG        31.8920   -4.9910   44.3850 C.ar  167  TRP167      0.0003
    154  CD1       32.8190   -4.2340   43.7320 C.ar  167  TRP167      0.0946
    155  CD2       32.5820   -6.1570   44.8480 C.ar  167  TRP167      0.0152
    156  NE1       34.0450   -4.8490   43.7650 N.ar  167  TRP167     -0.2442
    157  CE2       33.9290   -6.0310   44.4450 C.ar  167  TRP167      0.0810
    158  CE3       32.1960   -7.2910   45.5710 C.ar  167  TRP167      0.0012
    159  CZ2       34.8920   -6.9960   44.7380 C.ar  167  TRP167      0.0191
    160  CZ3       33.1550   -8.2510   45.8620 C.ar  167  TRP167      0.0001
    161  CH2       34.4880   -8.0950   45.4470 C.ar  167  TRP167      0.0015
    162  N         26.5760   -9.2650   45.0460 N.3   171  TYR171     -0.1241
    163  CA        25.9820   -9.6380   46.3390 C.3   171  TYR171      0.1605
    164  C         24.5800  -10.2200   46.1910 C.2   171  TYR171      0.2264
    165  O         24.2320  -11.1920   46.8650 O.2   171  TYR171     -0.2867
    166  CB        25.9200   -8.4340   47.2880 C.3   171  TYR171      0.0534
    167  CG        27.2680   -7.8520   47.6590 C.ar  171  TYR171     -0.0201
    168  CD1       28.3090   -8.6700   48.0900 C.ar  171  TYR171     -0.0009
    169  CD2       27.4960   -6.4810   47.5970 C.ar  171  TYR171     -0.0009
    170  CE1       29.5400   -8.1430   48.4320 C.ar  171  TYR171      0.0417
    171  CE2       28.7250   -5.9450   47.9380 C.ar  171  TYR171      0.0417
    172  CZ        29.7420   -6.7810   48.3550 C.ar  171  TYR171      0.1957
    173  OH        30.9660   -6.2600   48.6970 O.3   171  TYR171     -0.2866
@<TRIPOS>BOND
     1   135   136    1
     2   112   113    1
     3   113   114    1
     4   113   116    1
     5   123   124    1
     6   136   137    1
     7   136   139    1
     8   140   139    1
     9   115   114    2
    10   116   117    1
    11   126   125    2
    12   125   124    1
    13   124   127    1
    14   137   138    2
    15   137   142   am
    16   117   118    1
    17   139   141    1
    18   148   149    1
    19   142   143    1
    20   118   119    1
    21   144   145    2
    22   144   143    1
    23   127   128    1
    24   149   150    1
    25   149   152    1
    26   143   146    1
    27   154   156   ar
    28   154   153   ar
    29   156   157   ar
    30   146   147    1
    31   150   151    2
    32   119   120    2
    33   153   152    1
    34   153   155   ar
    35   157   159   ar
    36   157   155   ar
    37   128   129   ar
    38   128   130   ar
    39   159   161   ar
    40   155   158   ar
    41   129   131   ar
    42   162   163    1
    43   121   120    1
    44   120   122    1
    45   130   132   ar
    46   161   160   ar
    47   158   160   ar
    48   131   133   ar
    49   164   163    1
    50   164   165    2
    51    64    62    1
    52   163   166    1
    53   132   133   ar
    54   133   134    1
    55    62    61    2
    56    62    63    1
    57     8     6    1
    58    61    60    1
    59   166   167    1
    60     5     6    1
    61     5     2    1
    62     1     2    1
    63   169   167   ar
    64   169   171   ar
    65   167   168   ar
    66    60    59    1
    67   103   104    1
    68   171   172   ar
    69     6     7    1
    70   168   170   ar
    71     2     3    1
    72     4     3    2
    73   172   170   ar
    74   172   173    1
    75   107   104    1
    76   107   108    1
    77   104   105    1
    78   111   109   am
    79    59    58    1
    80   106   105    2
    81   102   101    1
    82    49    51   ar
    83    49    47   ar
    84   109   110    2
    85   109   108    1
    86    82    81    1
    87    51    52   ar
    88    99   100    2
    89    99    98    1
    90    73    71   ar
    91    46    47    1
    92    46    43    1
    93    58    55    1
    94    42    43    1
    95    81    80    1
    96    47    48   ar
    97    43    44    1
    98    18    16   ar
    99    18    19   ar
   100    98   101    1
   101    98    97    1
   102    52    53    1
   103    52    50   ar
   104    20    19    1
   105    16    14   ar
   106    71    72   ar
   107    71    70    1
   108    80    79    1
   109    19    17   ar
   110    48    50   ar
   111    55    56    1
   112    55    54    1
   113    44    45    2
   114    79    78    1
   115    70    69    1
   116    56    57    2
   117    56    65   am
   118    14    13    1
   119    14    15   ar
   120     9    10    1
   121    65    66    1
   122    17    15   ar
   123    78    75    1
   124    13    10    1
   125    66    69    1
   126    66    67    1
   127    10    11    1
   128    75    74    1
   129    75    76    1
   130    89    88    2
   131    12    11    2
   132    90    88   am
   133    67    68    2
   134    88    87    1
   135    76    77    2
   136    96    95    1
   137    41    40    1
   138    28    27   ar
   139    40    39   ar
   140    40    38   ar
   141    95    92    1
   142    87    84    1
   143    39    37   ar
   144    38    36   ar
   145    83    84    1
   146    84    85    1
   147    29    27   ar
   148    27    26    1
   149    37    35   ar
   150    36    35   ar
   151    35    34    1
   152    34    31    1
   153    92    91    1
   154    92    93    1
   155    26    25    1
   156    25    22    1
   157    85    86    2
   158    93    94    2
   159    33    32    2
   160    31    32    1
   161    31    30    1
   162    22    23    1
   163    22    21    1
   164    23    24    2
