@<TRIPOS>MOLECULE
tmp/4pgkA00.pdb
 227 211 0 0 0
SMALL
GASTEIGER

@<TRIPOS>ATOM
      1  N        -25.6990   -7.2450  -19.6620 N.3    17  ILE17      -0.1245
      2  CA       -24.5870   -6.3380  -19.3270 C.3    17  ILE17       0.1561
      3  C        -24.9790   -4.8770  -19.6310 C.2    17  ILE17       0.2260
      4  O        -24.8380   -4.0130  -18.7610 O.2    17  ILE17      -0.2867
      5  CB       -23.2680   -6.7530  -20.0550 C.3    17  ILE17       0.0252
      6  CG1      -22.7530   -8.1550  -19.6050 C.3    17  ILE17       0.0019
      7  CG2      -22.1780   -5.6570  -19.9720 C.3    17  ILE17       0.0019
      8  CD1      -21.9390   -8.2420  -18.3030 C.3    17  ILE17       0.0001
      9  N        -27.6340   -3.5330  -17.2510 N.3    20  ILE20      -0.1231
     10  CA       -27.0320   -3.2460  -15.9440 C.3    20  ILE20       0.1692
     11  C        -26.3430   -1.8750  -15.9600 C.2    20  ILE20       0.2591
     12  O        -26.5280   -1.0850  -15.0330 O.2    20  ILE20      -0.2718
     13  CB       -26.1000   -4.4110  -15.5050 C.3    20  ILE20       0.0266
     14  CG1      -26.9330   -5.5690  -14.9320 C.3    20  ILE20       0.0019
     15  CG2      -25.0240   -3.9550  -14.5090 C.3    20  ILE20       0.0020
     16  CD1      -26.2190   -6.8830  -14.8740 C.3    20  ILE20       0.0001
     17  N        -25.5890   -1.5870  -17.0300 N.am   21  VAL21      -0.1980
     18  CA       -24.8970   -0.3090  -17.1910 C.3    21  VAL21       0.1595
     19  C        -25.9210    0.8400  -17.3190 C.2    21  VAL21       0.2287
     20  O        -25.7570    1.8550  -16.6410 O.2    21  VAL21      -0.2864
     21  CB       -23.8410   -0.3510  -18.3280 C.3    21  VAL21       0.0276
     22  CG1      -23.1820    1.0030  -18.5180 C.3    21  VAL21       0.0022
     23  CG2      -22.7730   -1.4030  -18.0350 C.3    21  VAL21       0.0022
     24  N        -27.5980    1.3050  -13.8990 N.3    24  GLY24      -0.1210
     25  CA       -26.5830    1.8710  -13.0160 C.3    24  GLY24       0.1956
     26  C        -26.5130    3.3780  -13.1450 C.2    24  GLY24       0.2611
     27  O        -26.4520    4.0850  -12.1370 O.2    24  GLY24      -0.2717
     28  N        -26.5800    3.8740  -14.3970 N.am   25  GLU25      -0.1979
     29  CA       -26.5560    5.3000  -14.7320 C.3    25  GLU25       0.1602
     30  C        -27.8240    6.0120  -14.2660 C.2    25  GLU25       0.2287
     31  O        -27.7270    7.1120  -13.7240 O.2    25  GLU25      -0.2864
     32  CB       -26.3250    5.5180  -16.2410 C.3    25  GLU25       0.0415
     33  CG       -24.9640    5.0600  -16.7520 C.3    25  GLU25       0.1163
     34  CD       -23.7190    5.7280  -16.1910 C.2    25  GLU25       0.3649
     35  OE1      -23.8270    6.8260  -15.5980 O.co2  25  GLU25      -0.2457
     36  OE2      -22.6210    5.1590  -16.3780 O.co2  25  GLU25      -0.2457
     37  N        -27.6730    6.1890  -10.5170 N.3    28  ALA28      -0.1245
     38  CA       -26.6660    7.1870  -10.1440 C.3    28  ALA28       0.1562
     39  C        -27.2950    8.5860  -10.1870 C.2    28  ALA28       0.2260
     40  O        -27.1380    9.3370   -9.2260 O.2    28  ALA28      -0.2867
     41  CB       -25.4660    7.1060  -11.0660 C.3    28  ALA28       0.0290
     42  N        -24.6680   11.6390  -15.8090 N.3    53  GLU53      -0.1245
     43  CA       -25.0950   10.2400  -15.8150 C.3    53  GLU53       0.1567
     44  C        -26.1630    9.9590  -16.8420 C.2    53  GLU53       0.2260
     45  O        -26.1280    8.8970  -17.4630 O.2    53  GLU53      -0.2867
     46  CB       -25.5400    9.7750  -14.4240 C.3    53  GLU53       0.0388
     47  CG       -24.4910    9.9770  -13.3460 C.3    53  GLU53       0.1160
     48  CD       -23.2180    9.1500  -13.3990 C.2    53  GLU53       0.3649
     49  OE1      -22.4960    9.2160  -14.4220 O.co2  53  GLU53      -0.2457
     50  OE2      -22.8570    8.5810  -12.3450 O.co2  53  GLU53      -0.2457
     51  N        -29.7190   -4.6870   -9.1350 N.3    80  PHE80      -0.1241
     52  CA       -29.4310   -3.5240   -8.2970 C.3    80  PHE80       0.1605
     53  C        -30.2730   -3.4220   -7.0270 C.2    80  PHE80       0.2264
     54  O        -29.9390   -2.6080   -6.1620 O.2    80  PHE80      -0.2867
     55  CB       -29.5610   -2.2290   -9.1150 C.3    80  PHE80       0.0534
     56  CG       -28.3070   -1.8350   -9.8580 C.ar   80  PHE80      -0.0203
     57  CD1      -27.2470   -1.2280   -9.1930 C.ar   80  PHE80      -0.0042
     58  CD2      -28.1900   -2.0600  -11.2240 C.ar   80  PHE80      -0.0042
     59  CE1      -26.0830   -0.8740   -9.8790 C.ar   80  PHE80      -0.0003
     60  CE2      -27.0270   -1.7020  -11.9090 C.ar   80  PHE80      -0.0003
     61  CZ       -25.9780   -1.1230  -11.2310 C.ar   80  PHE80      -0.0000
     62  N        -22.8070    5.1190   -3.3830 N.3   103  GLN103     -0.1245
     63  CA       -22.8020    5.7090   -4.7200 C.3   103  GLN103      0.1566
     64  C        -21.4550    6.2710   -5.1630 C.2   103  GLN103      0.2260
     65  O        -20.9260    5.8360   -6.1860 O.2   103  GLN103     -0.2867
     66  CB       -23.9350    6.7480   -4.8740 C.3   103  GLN103      0.0367
     67  CG       -24.0270    7.4020   -6.2630 C.3   103  GLN103      0.0905
     68  CD       -24.2550    6.4080   -7.3800 C.2   103  GLN103      0.2608
     69  OE1      -25.2390    5.6650   -7.3960 O.2   103  GLN103     -0.2717
     70  NE2      -23.3420    6.3760   -8.3370 N.am  103  GLN103     -0.0878
     71  N        -20.0440    2.1730   -6.0400 N.3   107  ILE107     -0.1231
     72  CA       -20.6220    2.1450   -7.3920 C.3   107  ILE107      0.1692
     73  C        -19.6720    2.7620   -8.4330 C.2   107  ILE107      0.2591
     74  O        -19.5190    2.1850   -9.5140 O.2   107  ILE107     -0.2718
     75  CB       -22.0830    2.6910   -7.4360 C.3   107  ILE107      0.0266
     76  CG1      -23.0520    1.6940   -6.7550 C.3   107  ILE107      0.0019
     77  CG2      -22.5530    2.9800   -8.8730 C.3   107  ILE107      0.0020
     78  CD1      -24.4020    2.3040   -6.2750 C.3   107  ILE107      0.0001
     79  N        -19.0160    3.9000   -8.0930 N.am  108  GLU108     -0.1979
     80  CA       -18.0800    4.5550   -9.0070 C.3   108  GLU108      0.1602
     81  C        -16.8550    3.6890   -9.2990 C.2   108  GLU108      0.2287
     82  O        -16.4720    3.5730  -10.4580 O.2   108  GLU108     -0.2864
     83  CB       -17.6880    5.9650   -8.5290 C.3   108  GLU108      0.0415
     84  CG       -18.8350    6.9710   -8.5040 C.3   108  GLU108      0.1163
     85  CD       -19.5930    7.2500   -9.7920 C.2   108  GLU108      0.3649
     86  OE1      -18.9980    7.1210  -10.8870 O.co2 108  GLU108     -0.2457
     87  OE2      -20.7640    7.6830   -9.6970 O.co2 108  GLU108     -0.2457
     88  N        -16.7300    0.4010   -9.0220 N.3   110  PHE110     -0.1227
     89  CA       -17.3220   -0.7380   -9.7360 C.3   110  PHE110      0.1736
     90  C        -17.4390   -0.3880  -11.2330 C.2   110  PHE110      0.2595
     91  O        -17.0130   -1.1760  -12.0780 O.2   110  PHE110     -0.2718
     92  CB       -18.7060   -1.0540   -9.1310 C.3   110  PHE110      0.0547
     93  CG       -19.4770   -2.2380   -9.6710 C.ar  110  PHE110     -0.0202
     94  CD1      -19.2340   -3.5200   -9.1960 C.ar  110  PHE110     -0.0042
     95  CD2      -20.5270   -2.0560  -10.5620 C.ar  110  PHE110     -0.0042
     96  CE1      -19.9770   -4.6120   -9.6630 C.ar  110  PHE110     -0.0003
     97  CE2      -21.2790   -3.1460  -11.0180 C.ar  110  PHE110     -0.0003
     98  CZ       -20.9970   -4.4170  -10.5650 C.ar  110  PHE110     -0.0000
     99  N        -17.9660    0.8210  -11.5420 N.am  111  ALA111     -0.1980
    100  CA       -18.1410    1.3480  -12.9000 C.3   111  ALA111      0.1597
    101  C        -16.7940    1.5640  -13.6050 C.2   111  ALA111      0.2287
    102  O        -16.6350    1.1270  -14.7420 O.2   111  ALA111     -0.2864
    103  CB       -18.9290    2.6510  -12.8600 C.3   111  ALA111      0.0319
    104  N        -13.8010    0.1730  -12.9910 N.3   113  SER113     -0.1202
    105  CA       -13.2070   -1.1400  -13.2290 C.3   113  SER113      0.2020
    106  C        -13.8570   -1.8060  -14.4440 C.2   113  SER113      0.2619
    107  O        -13.1450   -2.2880  -15.3220 O.2   113  SER113     -0.2717
    108  CB       -13.3720   -2.0200  -11.9950 C.3   113  SER113      0.2103
    109  OG       -12.9910   -3.3540  -12.2810 O.3   113  SER113     -0.2182
    110  N        -15.2050   -1.8110  -14.4920 N.am  114  ALA114     -0.1965
    111  CA       -15.9920   -2.3770  -15.5880 C.3   114  ALA114      0.1728
    112  C        -15.6380   -1.7190  -16.9190 C.2   114  ALA114      0.2616
    113  O        -15.3410   -2.4260  -17.8790 O.2   114  ALA114     -0.2715
    114  CB       -17.4770   -2.2230  -15.3020 C.3   114  ALA114      0.0334
    115  N        -15.6040   -0.3730  -16.9500 N.am  115  TYR115     -0.1974
    116  CA       -15.2990    0.4150  -18.1480 C.3   115  TYR115      0.1639
    117  C        -13.8670    0.2260  -18.6410 C.2   115  TYR115      0.2290
    118  O        -13.6750    0.0470  -19.8420 O.2   115  TYR115     -0.2864
    119  CB       -15.6590    1.9010  -17.9650 C.3   115  TYR115      0.0560
    120  CG       -17.1130    2.1870  -17.6250 C.ar  115  TYR115     -0.0198
    121  CD1      -18.1150    1.2620  -17.9110 C.ar  115  TYR115     -0.0009
    122  CD2      -17.4850    3.3850  -17.0220 C.ar  115  TYR115     -0.0009
    123  CE1      -19.4460    1.5090  -17.5770 C.ar  115  TYR115      0.0417
    124  CE2      -18.8150    3.6470  -16.6920 C.ar  115  TYR115      0.0417
    125  CZ       -19.7920    2.7080  -16.9750 C.ar  115  TYR115      0.1957
    126  OH       -21.1040    2.9580  -16.6530 O.3   115  TYR115     -0.2866
    127  N        -15.8000   10.7030  -14.6090 N.3   137  GLU137     -0.1245
    128  CA       -16.1980    9.7110  -13.6210 C.3   137  GLU137      0.1567
    129  C        -15.2370    9.7640  -12.4380 C.2   137  GLU137      0.2260
    130  O        -15.6280    9.5380  -11.2930 O.2   137  GLU137     -0.2867
    131  CB       -16.2030    8.3100  -14.2360 C.3   137  GLU137      0.0388
    132  CG       -17.5240    7.9200  -14.8790 C.3   137  GLU137      0.1160
    133  CD       -19.0110    8.2030  -14.9560 C.2   137  GLU137      0.3649
    134  OE1      -19.4040    9.3780  -14.7960 O.co2 137  GLU137     -0.2457
    135  OE2      -19.7890    7.2500  -15.1750 O.co2 137  GLU137     -0.2457
    136  N        -19.9400   -3.7300    0.7410 N.3   167  LEU167     -0.1245
    137  CA       -18.8620   -4.3410   -0.0570 C.3   167  LEU167      0.1561
    138  C        -19.1920   -5.8070   -0.4630 C.2   167  LEU167      0.2260
    139  O        -18.9980   -6.1220   -1.6410 O.2   167  LEU167     -0.2867
    140  CB       -17.4720   -4.2130    0.6140 C.3   167  LEU167      0.0270
    141  CG       -16.2480   -4.7510   -0.1520 C.3   167  LEU167      0.0019
    142  CD1      -16.0890   -4.0810   -1.5060 C.3   167  LEU167      0.0001
    143  CD2      -14.9870   -4.5510    0.6410 C.3   167  LEU167      0.0001
    144  N        -21.4300   -5.8590   -3.5960 N.3   170  ILE170     -0.1231
    145  CA       -20.6650   -5.5620   -4.8150 C.3   170  ILE170      0.1692
    146  C        -20.0130   -6.8550   -5.3360 C.2   170  ILE170      0.2591
    147  O        -20.0690   -7.1200   -6.5360 O.2   170  ILE170     -0.2718
    148  CB       -19.6410   -4.4110   -4.5560 C.3   170  ILE170      0.0266
    149  CG1      -20.3460   -3.0370   -4.3710 C.3   170  ILE170      0.0019
    150  CG2      -18.5090   -4.3510   -5.6080 C.3   170  ILE170      0.0020
    151  CD1      -20.9830   -2.3770   -5.6480 C.3   170  ILE170      0.0001
    152  N        -19.4420   -7.6700   -4.4210 N.am  171  LEU171     -0.1980
    153  CA       -18.8150   -8.9630   -4.7300 C.3   171  LEU171      0.1596
    154  C        -19.8510   -9.9200   -5.3440 C.2   171  LEU171      0.2287
    155  O        -19.5780  -10.5180   -6.3880 O.2   171  LEU171     -0.2864
    156  CB       -18.1890   -9.5790   -3.4610 C.3   171  LEU171      0.0297
    157  CG       -17.6640  -11.0140   -3.5870 C.3   171  LEU171      0.0022
    158  CD1      -16.1580  -11.0410   -3.6300 C.3   171  LEU171      0.0001
    159  CD2      -18.1780  -11.8890   -2.4580 C.3   171  LEU171      0.0001
    160  N        -20.8190   -8.9320   -8.9320 N.3   174  LEU174     -0.1245
    161  CA       -19.8230   -9.3930   -9.9040 C.3   174  LEU174      0.1561
    162  C        -19.9580  -10.8960  -10.1890 C.2   174  LEU174      0.2260
    163  O        -19.9170  -11.2830  -11.3590 O.2   174  LEU174     -0.2867
    164  CB       -18.3880   -9.0400   -9.4720 C.3   174  LEU174      0.0270
    165  CG       -17.2460   -9.5400  -10.3830 C.3   174  LEU174      0.0019
    166  CD1      -17.3850   -9.0340  -11.8130 C.3   174  LEU174      0.0001
    167  CD2      -15.9280   -9.1250   -9.8470 C.3   174  LEU174      0.0001
    168  N        -22.7530  -11.6900  -12.5730 N.3   177  VAL177     -0.1245
    169  CA       -22.5220  -11.2410  -13.9400 C.3   177  VAL177      0.1561
    170  C        -21.1820  -11.6860  -14.5900 C.2   177  VAL177      0.2260
    171  O        -20.9350  -11.3640  -15.7540 O.2   177  VAL177     -0.2867
    172  CB       -22.8380   -9.7240  -14.0350 C.3   177  VAL177      0.0252
    173  CG1      -21.6110   -8.8470  -13.7840 C.3   177  VAL177      0.0019
    174  CG2      -23.5260   -9.3840  -15.3460 C.3   177  VAL177      0.0019
    175  N        -19.8620  -11.4680  -18.5510 N.3   181  ALA181     -0.1245
    176  CA       -18.6460  -10.6650  -18.7180 C.3   181  ALA181      0.1562
    177  C        -17.5850  -11.4570  -19.4880 C.2   181  ALA181      0.2260
    178  O        -16.9000  -10.8890  -20.3370 O.2   181  ALA181     -0.2867
    179  CB       -18.0990  -10.2460  -17.3570 C.3   181  ALA181      0.0290
    180  N        -14.0860  -10.4170  -20.9990 N.3   186  MET186     -0.1245
    181  CA       -13.5850   -9.7360  -19.8010 C.3   186  MET186      0.1570
    182  C        -13.2190  -10.7550  -18.7210 C.2   186  MET186      0.2261
    183  O        -14.0190  -11.6400  -18.4010 O.2   186  MET186     -0.2867
    184  CB       -14.6180   -8.7320  -19.2580 C.3   186  MET186      0.0387
    185  CG       -14.8430   -7.5270  -20.1550 C.3   186  MET186      0.0595
    186  SD       -16.4180   -6.6960  -19.8100 S.3   186  MET186     -0.1393
    187  CE       -15.9900   -5.7790  -18.3670 C.3   186  MET186      0.0692
    188  N        -11.3290   -7.4170  -13.2920 N.3   191  LEU191     -0.1231
    189  CA       -12.4110   -6.6150  -12.7130 C.3   191  LEU191      0.1693
    190  C        -12.2120   -6.4450  -11.1990 C.2   191  LEU191      0.2591
    191  O        -12.2980   -5.3210  -10.7030 O.2   191  LEU191     -0.2718
    192  CB       -13.7970   -7.2230  -13.0170 C.3   191  LEU191      0.0284
    193  CG       -14.2960   -7.1000  -14.4590 C.3   191  LEU191      0.0019
    194  CD1      -15.2790   -8.1990  -14.7930 C.3   191  LEU191      0.0001
    195  CD2      -14.9270   -5.7550  -14.7070 C.3   191  LEU191      0.0001
    196  N        -11.9080   -7.5470  -10.4800 N.am  192  ILE192     -0.1980
    197  CA       -11.6600   -7.5260   -9.0320 C.3   192  ILE192      0.1595
    198  C        -10.4540   -6.6330   -8.7060 C.2   192  ILE192      0.2287
    199  O        -10.5740   -5.7430   -7.8610 O.2   192  ILE192     -0.2864
    200  CB       -11.5330   -8.9510   -8.4200 C.3   192  ILE192      0.0276
    201  CG1      -12.8450   -9.7450   -8.5950 C.3   192  ILE192      0.0022
    202  CG2      -11.1370   -8.8790   -6.9320 C.3   192  ILE192      0.0022
    203  CD1      -12.7640  -11.2980   -8.4230 C.3   192  ILE192      0.0001
    204  N        -11.1650   -2.8350   -9.4020 N.3   195  PHE195     -0.1227
    205  CA       -12.1060   -2.3190   -8.4040 C.3   195  PHE195      0.1736
    206  C        -11.3960   -2.0660   -7.0670 C.2   195  PHE195      0.2595
    207  O        -11.5870   -1.0040   -6.4740 O.2   195  PHE195     -0.2718
    208  CB       -13.3120   -3.2650   -8.2060 C.3   195  PHE195      0.0547
    209  CG       -14.1360   -2.9230   -6.9840 C.ar  195  PHE195     -0.0202
    210  CD1      -15.1200   -1.9410   -7.0410 C.ar  195  PHE195     -0.0042
    211  CD2      -13.8850   -3.5360   -5.7600 C.ar  195  PHE195     -0.0042
    212  CE1      -15.8490   -1.5920   -5.9020 C.ar  195  PHE195     -0.0003
    213  CE2      -14.5980   -3.1700   -4.6190 C.ar  195  PHE195     -0.0003
    214  CZ       -15.5860   -2.2110   -4.7000 C.ar  195  PHE195     -0.0000
    215  N        -10.6120   -3.0540   -6.5840 N.am  196  LEU196     -0.1980
    216  CA        -9.8980   -2.9430   -5.3090 C.3   196  LEU196      0.1596
    217  C         -8.8730   -1.8180   -5.3060 C.2   196  LEU196      0.2287
    218  O         -8.7900   -1.1070   -4.3130 O.2   196  LEU196     -0.2864
    219  CB        -9.2830   -4.2760   -4.8530 C.3   196  LEU196      0.0297
    220  CG       -10.2640   -5.3960   -4.4600 C.3   196  LEU196      0.0022
    221  CD1       -9.5220   -6.6950   -4.2100 C.3   196  LEU196      0.0001
    222  CD2      -11.0920   -5.0250   -3.2310 C.3   196  LEU196      0.0001
    223  N        -15.2710   -8.0280    2.2570 N.3   220  ALA220     -0.1245
    224  CA       -15.8180   -8.6270    1.0300 C.3   220  ALA220      0.1562
    225  C        -16.1170  -10.1310    1.1650 C.2   220  ALA220      0.2260
    226  O        -17.0010  -10.6370    0.4700 O.2   220  ALA220     -0.2867
    227  CB       -14.8760   -8.3820   -0.1400 C.3   220  ALA220      0.0290
@<TRIPOS>BOND
     1   180   181    1
     2   178   177    2
     3   185   186    1
     4   185   184    1
     5     5     7    1
     6     5     6    1
     7     5     2    1
     8   118   117    2
     9   186   187    1
    10   181   184    1
    11   181   182    1
    12     1     2    1
    13     3     2    1
    14     3     4    2
    15     6     8    1
    16   177   176    1
    17   182   183    2
    18   176   175    1
    19   176   179    1
    20   117   116    1
    21    22    21    1
    22    21    23    1
    23    21    18    1
    24   116   119    1
    25   116   115    1
    26   119   120    1
    27   121   120   ar
    28   121   123   ar
    29   113   112    2
    30   120   122   ar
    31   123   125   ar
    32    45    44    2
    33    19    18    1
    34    19    20    2
    35     9    10    1
    36    18    17    1
    37    17    11   am
    38   122   124   ar
    39   125   124   ar
    40   125   126    1
    41   115   112   am
    42   112   111    1
    43    44    43    1
    44    33    32    1
    45    33    34    1
    46    36    34   ar
    47    32    29    1
    48    34    35   ar
    49    11    10    1
    50    11    12    2
    51    10    13    1
    52    43    42    1
    53    43    46    1
    54   171   170    2
    55   111   114    1
    56   111   110    1
    57    13    14    1
    58    13    15    1
    59   174   172    1
    60   107   106    2
    61   135   133   ar
    62   133   132    1
    63   133   134   ar
    64    14    16    1
    65   132   131    1
    66   194   193    1
    67   102   101    2
    68    29    28    1
    69    29    30    1
    70   195   193    1
    71   127   128    1
    72   170   169    1
    73   110   106   am
    74   193   192    1
    75   106   105    1
    76    46    47    1
    77    49    48   ar
    78    28    26   am
    79    30    31    2
    80   131   128    1
    81   172   169    1
    82   172   173    1
    83   169   168    1
    84    24    25    1
    85   128   129    1
    86   101   100    1
    87    48    47    1
    88    48    50   ar
    89   188   189    1
    90   105   104    1
    91   105   108    1
    92    26    25    1
    93    26    27    2
    94   192   189    1
    95   100   103    1
    96   100    99    1
    97   189   190    1
    98   129   130    2
    99   109   108    1
   100    91    90    2
   101    60    61   ar
   102    60    58   ar
   103   166   165    1
   104    99    90   am
   105   163   162    2
   106    90    89    1
   107    61    59   ar
   108    58    56   ar
   109   190   191    2
   110   190   196   am
   111    41    38    1
   112    97    98   ar
   113    97    95   ar
   114    86    85   ar
   115    98    96   ar
   116    95    93   ar
   117    37    38    1
   118   196   197    1
   119    82    81    2
   120   165   167    1
   121   165   164    1
   122   162   161    1
   123    39    38    1
   124    39    40    2
   125   161   164    1
   126   161   160    1
   127    59    57   ar
   128    56    57   ar
   129    56    55    1
   130    85    87   ar
   131    85    84    1
   132    89    92    1
   133    89    88    1
   134    93    94   ar
   135    93    92    1
   136    96    94   ar
   137    74    73    2
   138   204   205    1
   139    81    80    1
   140    51    52    1
   141    55    52    1
   142   197   198    1
   143   197   200    1
   144    80    83    1
   145    80    79    1
   146    77    75    1
   147   198   199    2
   148   201   203    1
   149   201   200    1
   150    83    84    1
   151    73    79   am
   152    73    72    1
   153   200   202    1
   154   205   208    1
   155   205   206    1
   156    70    68   am
   157    52    53    1
   158   208   209    1
   159    75    72    1
   160    75    76    1
   161    69    68    2
   162    72    71    1
   163    68    67    1
   164   206   215   am
   165   206   207    2
   166   210   209   ar
   167   210   212   ar
   168    53    54    2
   169   209   211   ar
   170    76    78    1
   171   215   216    1
   172   147   146    2
   173   155   154    2
   174    67    66    1
   175    65    64    2
   176   212   214   ar
   177   211   213   ar
   178   151   149    1
   179   150   148    1
   180   154   153    1
   181   146   145    1
   182   146   152   am
   183   216   217    1
   184   216   219    1
   185   217   218    2
   186    64    63    1
   187    66    63    1
   188   219   220    1
   189   145   148    1
   190   145   144    1
   191   153   152    1
   192   153   156    1
   193    63    62    1
   194   214   213   ar
   195   148   149    1
   196   220   221    1
   197   220   222    1
   198   158   157    1
   199   157   156    1
   200   157   159    1
   201   139   138    2
   202   142   141    1
   203   138   137    1
   204   141   140    1
   205   141   143    1
   206   227   224    1
   207   137   140    1
   208   137   136    1
   209   226   225    2
   210   224   225    1
   211   224   223    1
