@<TRIPOS>MOLECULE
tmp/4pgnC00.pdb
 145 140 0 0 0
SMALL
GASTEIGER

@<TRIPOS>ATOM
      1  N         39.8880   31.0110   46.0460 N.3     9  PHE9       -0.1228
      2  CA        40.9810   30.6580   46.9420 C.3     9  PHE9        0.1721
      3  C         40.7210   30.7650   48.4630 C.2     9  PHE9        0.2437
      4  O         41.1950   29.9080   49.2120 O.2     9  PHE9       -0.2733
      5  CB        42.2730   31.3770   46.5240 C.3     9  PHE9        0.0547
      6  CG        42.2540   32.8740   46.6980 C.ar    9  PHE9       -0.0202
      7  CD1       41.8150   33.7020   45.6680 C.ar    9  PHE9       -0.0042
      8  CD2       42.6990   33.4550   47.8650 C.ar    9  PHE9       -0.0042
      9  CE1       41.8060   35.0720   45.8220 C.ar    9  PHE9       -0.0003
     10  CE2       42.7090   34.8570   48.0150 C.ar    9  PHE9       -0.0003
     11  CZ        42.2610   35.6470   47.0080 C.ar    9  PHE9       -0.0000
     12  N         39.9740   31.7750   48.9300 N.am   10  PRO10      -0.2729
     13  CA        39.7680   31.8870   50.3780 C.3    10  PRO10       0.1401
     14  C         38.5560   31.1120   50.8820 C.2    10  PRO10       0.2269
     15  O         37.8210   30.5290   50.0700 O.2    10  PRO10      -0.2865
     16  CB        39.5630   33.3820   50.5740 C.3    10  PRO10       0.0296
     17  CG        38.8290   33.7870   49.3440 C.3    10  PRO10       0.0237
     18  CD        39.3270   32.8970   48.2210 C.3    10  PRO10       0.0939
     19  N         34.4150   34.3610   53.4480 N.3    14  THR14      -0.1203
     20  CA        35.0420   35.6230   53.0620 C.3    14  THR14       0.1994
     21  C         34.4100   36.2820   51.8180 C.2    14  THR14       0.2618
     22  O         33.7080   35.6370   51.0010 O.2    14  THR14      -0.2717
     23  CB        36.5720   35.4850   52.8750 C.3    14  THR14       0.1784
     24  OG1       36.8410   34.6830   51.7170 O.3    14  THR14      -0.2211
     25  CG2       37.1990   34.8670   54.1040 C.3    14  THR14       0.0376
     26  N         34.6490   37.5750   51.6940 N.am   15  PHE15      -0.1962
     27  CA        33.9280   38.3670   50.7180 C.3    15  PHE15       0.1756
     28  C         34.2160   37.9670   49.2720 C.2    15  PHE15       0.2461
     29  O         33.3320   38.0390   48.4470 O.2    15  PHE15      -0.2730
     30  CB        34.0560   39.8810   50.9910 C.3    15  PHE15       0.0574
     31  CG        35.1560   40.5650   50.2200 C.ar   15  PHE15      -0.0200
     32  CD1       36.4340   40.6660   50.7480 C.ar   15  PHE15      -0.0042
     33  CD2       34.9020   41.1100   48.9690 C.ar   15  PHE15      -0.0042
     34  CE1       37.4550   41.2830   50.0300 C.ar   15  PHE15      -0.0003
     35  CE2       35.9020   41.7390   48.2510 C.ar   15  PHE15      -0.0003
     36  CZ        37.1860   41.8300   48.7790 C.ar   15  PHE15      -0.0000
     37  N         35.4180   37.4530   48.9630 N.am   16  PRO16      -0.2727
     38  CA        35.5440   37.0790   47.5500 C.3    16  PRO16       0.1402
     39  C         34.7030   35.8470   47.1960 C.2    16  PRO16       0.2269
     40  O         34.3420   35.6680   46.0430 O.2    16  PRO16      -0.2865
     41  CB        37.0590   36.8250   47.3770 C.3    16  PRO16       0.0296
     42  CG        37.6950   37.5980   48.4680 C.3    16  PRO16       0.0237
     43  CD        36.7270   37.5420   49.6310 C.3    16  PRO16       0.0939
     44  N         43.5410   37.8660   43.0950 N.3    66  SER66      -0.1217
     45  CA        43.9120   39.1170   43.7270 C.3    66  SER66       0.1889
     46  C         45.1520   39.6130   42.9750 C.2    66  SER66       0.2288
     47  O         46.1700   38.9530   42.9650 O.2    66  SER66      -0.2866
     48  CB        44.1800   38.8900   45.2210 C.3    66  SER66       0.2089
     49  OG        44.7240   40.0410   45.8280 O.3    66  SER66      -0.2183
     50  N         48.9080   39.4180   44.0790 N.3    69  TYR69      -0.1241
     51  CA        49.6280   38.1470   44.1680 C.3    69  TYR69       0.1605
     52  C         50.4580   37.8590   42.9190 C.2    69  TYR69       0.2264
     53  O         51.0840   36.7990   42.8360 O.2    69  TYR69      -0.2867
     54  CB        48.6520   36.9750   44.3580 C.3    69  TYR69       0.0534
     55  CG        47.7910   36.9880   45.5900 C.ar   69  TYR69      -0.0201
     56  CD1       47.9770   37.8990   46.6120 C.ar   69  TYR69      -0.0009
     57  CD2       46.7730   36.0550   45.7280 C.ar   69  TYR69      -0.0009
     58  CE1       47.1580   37.8770   47.7320 C.ar   69  TYR69       0.0417
     59  CE2       45.9670   36.0250   46.8270 C.ar   69  TYR69       0.0417
     60  CZ        46.1610   36.9310   47.8320 C.ar   69  TYR69       0.1957
     61  OH        45.3170   36.8730   48.9260 O.3    69  TYR69      -0.2866
     62  N         38.8820   45.2260   47.9330 N.3   119  SER119     -0.1217
     63  CA        38.6450   45.1520   49.3600 C.3   119  SER119      0.1889
     64  C         38.2320   46.5440   49.8590 C.2   119  SER119      0.2288
     65  O         38.1630   47.5070   49.0910 O.2   119  SER119     -0.2866
     66  CB        39.9280   44.7030   50.0520 C.3   119  SER119      0.2089
     67  OG        40.9570   45.6690   49.9030 O.3   119  SER119     -0.2183
     68  N         52.0570   41.4660   57.6560 N.3   142  ARG142     -0.1245
     69  CA        51.7140   40.8360   56.3900 C.3   142  ARG142      0.1563
     70  C         51.1290   41.8240   55.3960 C.2   142  ARG142      0.2260
     71  O         50.2690   42.6250   55.7520 O.2   142  ARG142     -0.2867
     72  CB        50.6950   39.7130   56.6180 C.3   142  ARG142      0.0307
     73  CG        50.1950   39.0320   55.3580 C.3   142  ARG142      0.0489
     74  CD        48.9400   39.7090   54.7440 C.3   142  ARG142      0.2205
     75  NE        48.6290   39.1180   53.4470 N.pl3 142  ARG142     -0.0865
     76  CZ        47.5930   39.4460   52.6900 C.cat 142  ARG142      0.5346
     77  NH1       46.7090   40.3560   53.1050 N.pl3 142  ARG142      0.1354
     78  NH2       47.4270   38.8330   51.5260 N.pl3 142  ARG142      0.1354
     79  N         46.2350   35.4820   51.3500 N.3   163  MET163     -0.1245
     80  CA        45.3830   35.5240   52.5490 C.3   163  MET163      0.1570
     81  C         45.2290   34.1760   53.2770 C.2   163  MET163      0.2261
     82  O         45.2270   34.1330   54.4970 O.2   163  MET163     -0.2867
     83  CB        43.9940   36.1160   52.2170 C.3   163  MET163      0.0387
     84  CG        43.0720   36.2490   53.4450 C.3   163  MET163      0.0595
     85  SD        43.6910   37.3780   54.7370 S.3   163  MET163     -0.1393
     86  CE        43.7360   38.8850   53.8080 C.3   163  MET163      0.0692
     87  N         45.2490   44.8200   55.8800 N.3   180  THR180     -0.1203
     88  CA        44.1810   44.6160   54.9060 C.3   180  THR180      0.1994
     89  C         42.8570   45.0980   55.5130 C.2   180  THR180      0.2618
     90  O         42.8440   45.7420   56.5620 O.2   180  THR180     -0.2717
     91  CB        44.0760   43.1370   54.4810 C.3   180  THR180      0.1784
     92  OG1       43.1460   43.0070   53.4010 O.3   180  THR180     -0.2211
     93  CG2       43.6080   42.2720   55.6290 C.3   180  THR180      0.0376
     94  N         41.7410   44.8260   54.8510 N.am  181  SER181     -0.1951
     95  CA        40.4570   45.3140   55.3670 C.3   181  SER181      0.1924
     96  C         39.9050   44.4660   56.5300 C.2   181  SER181      0.2314
     97  O         40.2710   43.3140   56.6970 O.2   181  SER181     -0.2863
     98  CB        39.4380   45.4800   54.2400 C.3   181  SER181      0.2116
     99  OG        39.2660   44.2950   53.4900 O.3   181  SER181     -0.2180
    100  N         37.0310   43.1640   57.4790 N.3   183  ASP183     -0.1225
    101  CA        36.1020   42.0500   57.3200 C.3   183  ASP183      0.1805
    102  C         36.7170   40.7480   57.8290 C.2   183  ASP183      0.2597
    103  O         36.0030   39.8650   58.2960 O.2   183  ASP183     -0.2718
    104  CB        35.7120   41.8970   55.8450 C.3   183  ASP183      0.1424
    105  CG        36.9010   42.0100   54.9150 C.2   183  ASP183      0.3668
    106  OD1       37.4450   43.1300   54.8380 O.co2 183  ASP183     -0.2456
    107  OD2       37.2780   41.0040   54.2550 O.co2 183  ASP183     -0.2456
    108  N         38.0370   40.6220   57.7410 N.am  184  VAL184     -0.1980
    109  CA        38.6740   39.3590   58.1440 C.3   184  VAL184      0.1595
    110  C         38.6670   39.1380   59.6540 C.2   184  VAL184      0.2287
    111  O         38.8990   38.0220   60.1260 O.2   184  VAL184     -0.2864
    112  CB        40.1230   39.2260   57.6010 C.3   184  VAL184      0.0276
    113  CG1       40.1260   39.1700   56.0800 C.3   184  VAL184      0.0022
    114  CG2       41.0010   40.3540   58.1050 C.3   184  VAL184      0.0022
    115  N         35.3940   37.1510   59.4860 N.3   187  ASP187     -0.1239
    116  CA        35.3150   36.1500   58.4290 C.3   187  ASP187      0.1674
    117  C         36.4190   35.0830   58.5080 C.2   187  ASP187      0.2266
    118  O         36.2060   33.9600   58.0780 O.2   187  ASP187     -0.2867
    119  CB        35.3040   36.8090   57.0400 C.3   187  ASP187      0.1410
    120  CG        34.0890   37.6840   56.8270 C.2   187  ASP187      0.3668
    121  OD1       33.1980   37.7120   57.7130 O.co2 187  ASP187     -0.2456
    122  OD2       34.0100   38.3230   55.7700 O.co2 187  ASP187     -0.2456
    123  N         43.0020   46.2430   48.1070 N.3   205  TYR205     -0.1241
    124  CA        43.4900   45.1730   47.2300 C.3   205  TYR205      0.1605
    125  C         42.5170   45.0020   46.0740 C.2   205  TYR205      0.2264
    126  O         41.3310   44.7430   46.2840 O.2   205  TYR205     -0.2867
    127  CB        43.5870   43.8240   47.9670 C.3   205  TYR205      0.0534
    128  CG        44.6580   43.7370   49.0370 C.ar  205  TYR205     -0.0201
    129  CD1       44.5000   44.3680   50.2570 C.ar  205  TYR205     -0.0009
    130  CD2       45.8120   42.9910   48.8320 C.ar  205  TYR205     -0.0009
    131  CE1       45.4940   44.2910   51.2320 C.ar  205  TYR205      0.0417
    132  CE2       46.7900   42.9030   49.7970 C.ar  205  TYR205      0.0417
    133  CZ        46.6340   43.5520   50.9850 C.ar  205  TYR205      0.1957
    134  OH        47.6250   43.4550   51.9450 O.3   205  TYR205     -0.2866
    135  N         40.8700   43.0810   42.7650 N.3   207  PHE207     -0.1241
    136  CA        40.5910   41.7180   42.3000 C.3   207  PHE207      0.1605
    137  C         40.0430   41.7340   40.8830 C.2   207  PHE207      0.2264
    138  O         39.3690   42.6930   40.4750 O.2   207  PHE207     -0.2867
    139  CB        39.4970   41.0510   43.1510 C.3   207  PHE207      0.0534
    140  CG        39.8900   40.7570   44.5540 C.ar  207  PHE207     -0.0203
    141  CD1       39.9770   41.7710   45.4800 C.ar  207  PHE207     -0.0042
    142  CD2       40.1320   39.4280   44.9740 C.ar  207  PHE207     -0.0042
    143  CE1       40.3450   41.5060   46.7950 C.ar  207  PHE207     -0.0003
    144  CE2       40.4500   39.1470   46.2630 C.ar  207  PHE207     -0.0003
    145  CZ        40.5870   40.1770   47.1960 C.ar  207  PHE207     -0.0000
@<TRIPOS>BOND
     1   138   137    2
     2   137   136    1
     3   136   135    1
     4   136   139    1
     5    53    52    2
     6    52    51    1
     7    47    46    2
     8    46    45    1
     9    44    45    1
    10   139   140    1
    11    45    48    1
    12    50    51    1
    13    51    54    1
    14    54    55    1
    15   140   142   ar
    16   140   141   ar
    17   142   144   ar
    18    48    49    1
    19   141   143   ar
    20    55    57   ar
    21    55    56   ar
    22     7     9   ar
    23     7     6   ar
    24    57    59   ar
    25     9    11   ar
    26    40    39    2
    27     1     2    1
    28   125   126    2
    29   125   124    1
    30   144   145   ar
    31     5     6    1
    32     5     2    1
    33    56    58   ar
    34     6     8   ar
    35   143   145   ar
    36    59    60   ar
    37     2     3    1
    38    11    10   ar
    39    39    38    1
    40   124   127    1
    41   124   123    1
    42    41    38    1
    43    41    42    1
    44    38    37    1
    45    58    60   ar
    46    60    61    1
    47     8    10   ar
    48    62    63    1
    49   127   128    1
    50    18    12    1
    51    18    17    1
    52    35    36   ar
    53    35    33   ar
    54    29    28    2
    55     3    12   am
    56     3     4    2
    57    42    43    1
    58    36    34   ar
    59   130   128   ar
    60   130   132   ar
    61    12    13    1
    62    37    28   am
    63    37    43    1
    64    33    31   ar
    65   128   129   ar
    66    65    64    2
    67    28    27    1
    68    17    16    1
    69    63    64    1
    70    63    66    1
    71   132   133   ar
    72    67    66    1
    73    34    32   ar
    74    15    14    2
    75    31    32   ar
    76    31    30    1
    77   129   131   ar
    78    13    16    1
    79    13    14    1
    80    27    30    1
    81    27    26    1
    82   133   131   ar
    83   133   134    1
    84    22    21    2
    85    79    80    1
    86    78    76    1
    87    26    21   am
    88    24    23    1
    89    21    20    1
    90    83    80    1
    91    83    84    1
    92    80    81    1
    93    76    77    1
    94    76    75    2
    95    23    20    1
    96    23    25    1
    97    20    19    1
    98    81    82    2
    99    92    91    1
   100    84    85    1
   101    75    74    1
   102    99    98    1
   103    86    85    1
   104    98    95    1
   105   107   105   ar
   106    91    88    1
   107    91    93    1
   108    74    73    1
   109   106   105   ar
   110    94    95    1
   111    94    89   am
   112    88    89    1
   113    88    87    1
   114   105   104    1
   115    73    72    1
   116    95    96    1
   117    70    71    2
   118    70    69    1
   119    89    90    2
   120   122   120   ar
   121   104   101    1
   122   113   112    1
   123    69    72    1
   124    69    68    1
   125    96    97    2
   126   120   119    1
   127   120   121   ar
   128   119   116    1
   129   101   100    1
   130   101   102    1
   131   112   114    1
   132   112   109    1
   133   108   102   am
   134   108   109    1
   135   102   103    2
   136   118   117    2
   137   109   110    1
   138   116   117    1
   139   116   115    1
   140   110   111    2
