@<TRIPOS>MOLECULE
tmp/4pgpA00.pdb
 137 133 0 0 0
SMALL
GASTEIGER

@<TRIPOS>ATOM
      1  N         27.9000  -15.2610  -58.4500 N.3     9  PHE9       -0.1228
      2  CA        28.8140  -14.9390  -59.5510 C.3     9  PHE9        0.1721
      3  C         30.2250  -14.3760  -59.2170 C.2     9  PHE9        0.2437
      4  O         31.1730  -14.7020  -59.9010 O.2     9  PHE9       -0.2733
      5  CB        28.1170  -14.1070  -60.6490 C.3     9  PHE9        0.0547
      6  CG        27.7130  -12.7190  -60.2210 C.ar    9  PHE9       -0.0202
      7  CD1       26.4850  -12.4860  -59.6600 C.ar    9  PHE9       -0.0042
      8  CD2       28.5480  -11.6490  -60.4420 C.ar    9  PHE9       -0.0042
      9  CE1       26.1240  -11.2380  -59.2760 C.ar    9  PHE9       -0.0003
     10  CE2       28.1960  -10.3940  -60.0470 C.ar    9  PHE9       -0.0003
     11  CZ        26.9790  -10.1860  -59.4570 C.ar    9  PHE9       -0.0000
     12  N         30.3770  -13.5570  -58.1720 N.am   10  PRO10      -0.2729
     13  CA        31.7270  -13.0420  -57.8700 C.3    10  PRO10       0.1401
     14  C         32.5260  -13.9400  -56.8880 C.2    10  PRO10       0.2269
     15  O         31.9530  -14.8720  -56.3130 O.2    10  PRO10      -0.2865
     16  CB        31.4180  -11.6820  -57.2030 C.3    10  PRO10       0.0296
     17  CG        30.0690  -11.8740  -56.5360 C.3    10  PRO10       0.0237
     18  CD        29.3600  -13.0370  -57.2370 C.3    10  PRO10       0.0939
     19  N         33.9010  -11.3270  -51.8640 N.3    14  THR14      -0.1203
     20  CA        33.1280  -10.1260  -52.1510 C.3    14  THR14       0.1994
     21  C         31.7570  -10.1120  -51.4560 C.2    14  THR14       0.2618
     22  O         31.2990  -11.1420  -50.9460 O.2    14  THR14      -0.2717
     23  CB        32.9200   -9.8830  -53.6340 C.3    14  THR14       0.1784
     24  OG1       32.2190  -10.9710  -54.2110 O.3    14  THR14      -0.2211
     25  CG2       34.2370   -9.6680  -54.3490 C.3    14  THR14       0.0376
     26  N         31.1150   -8.9460  -51.3920 N.am   15  PHE15      -0.1962
     27  CA        29.9750   -8.8200  -50.4930 C.3    15  PHE15       0.1756
     28  C         28.7160   -9.6000  -50.9680 C.2    15  PHE15       0.2461
     29  O         28.0170  -10.1720  -50.1400 O.2    15  PHE15      -0.2730
     30  CB        29.6910   -7.3300  -50.1160 C.3    15  PHE15       0.0574
     31  CG        28.7620   -6.6350  -51.0410 C.ar   15  PHE15      -0.0200
     32  CD1       27.3970   -6.6120  -50.7880 C.ar   15  PHE15      -0.0042
     33  CD2       29.2350   -5.9970  -52.1630 C.ar   15  PHE15      -0.0042
     34  CE1       26.5130   -5.9660  -51.6530 C.ar   15  PHE15      -0.0003
     35  CE2       28.3390   -5.3640  -53.0590 C.ar   15  PHE15      -0.0003
     36  CZ        26.9760   -5.3420  -52.7810 C.ar   15  PHE15      -0.0000
     37  N         28.4400   -9.6630  -52.2790 N.am   16  PRO16      -0.2727
     38  CA        27.3440  -10.5520  -52.6890 C.3    16  PRO16       0.1402
     39  C         27.4560  -11.9960  -52.1650 C.2    16  PRO16       0.2269
     40  O         26.4170  -12.6200  -51.9020 O.2    16  PRO16      -0.2865
     41  CB        27.4260  -10.5410  -54.2070 C.3    16  PRO16       0.0296
     42  CG        28.0060   -9.1800  -54.5230 C.3    16  PRO16       0.0237
     43  CD        29.0590   -9.0120  -53.4310 C.3    16  PRO16       0.0939
     44  N         22.6140   -8.7670  -60.2600 N.3    66  SER66      -0.1217
     45  CA        22.7530   -7.3200  -60.2490 C.3    66  SER66       0.1889
     46  C         21.8010   -6.7310  -61.3050 C.2    66  SER66       0.2288
     47  O         21.9590   -6.9730  -62.4970 O.2    66  SER66      -0.2866
     48  CB        24.2010   -6.9290  -60.5640 C.3    66  SER66       0.2089
     49  OG        24.4410   -5.5730  -60.2380 O.3    66  SER66      -0.2183
     50  N         23.0480   -5.3690  -64.7170 N.3    69  TYR69      -0.1241
     51  CA        23.5680   -6.2140  -65.7850 C.3    69  TYR69       0.1605
     52  C         22.4670   -6.5850  -66.7720 C.2    69  TYR69       0.2264
     53  O         22.7520   -7.2070  -67.7900 O.2    69  TYR69      -0.2867
     54  CB        24.1620   -7.5020  -65.2270 C.3    69  TYR69       0.0534
     55  CG        25.2920   -7.3580  -64.2320 C.ar   69  TYR69      -0.0201
     56  CD1       25.8310   -6.1080  -63.9190 C.ar   69  TYR69      -0.0009
     57  CD2       25.8360   -8.4980  -63.5920 C.ar   69  TYR69      -0.0009
     58  CE1       26.8670   -5.9860  -62.9920 C.ar   69  TYR69       0.0417
     59  CE2       26.8650   -8.3790  -62.6690 C.ar   69  TYR69       0.0417
     60  CZ        27.3780   -7.1200  -62.3790 C.ar   69  TYR69       0.1957
     61  OH        28.3900   -6.9900  -61.4690 O.3    69  TYR69      -0.2866
     62  N         24.7910   -2.1060  -53.4600 N.3   119  SER119     -0.1217
     63  CA        26.1620   -1.6900  -53.1700 C.3   119  SER119      0.1889
     64  C         26.1580   -0.3740  -52.3680 C.2   119  SER119      0.2288
     65  O         25.1100    0.2550  -52.1950 O.2   119  SER119     -0.2866
     66  CB        26.9640   -1.5410  -54.4590 C.3   119  SER119      0.2089
     67  OG        26.7290   -0.2930  -55.0790 O.3   119  SER119     -0.2183
     68  N         34.5650    1.5420  -66.7490 N.3   142  ARG142     -0.1245
     69  CA        33.5810    0.4840  -66.5090 C.3   142  ARG142      0.1563
     70  C         32.4010    0.9410  -65.6240 C.2   142  ARG142      0.2260
     71  O         32.5830    1.4490  -64.5160 O.2   142  ARG142     -0.2867
     72  CB        34.3130   -0.7080  -65.8450 C.3   142  ARG142      0.0307
     73  CG        33.4980   -1.9570  -65.6280 C.3   142  ARG142      0.0489
     74  CD        32.7570   -1.8810  -64.3340 C.3   142  ARG142      0.2205
     75  NE        31.7900   -2.9520  -64.1710 N.pl3 142  ARG142     -0.0865
     76  CZ        31.0730   -3.1330  -63.0590 C.cat 142  ARG142      0.5346
     77  NH1       31.2120   -2.3120  -62.0160 N.pl3 142  ARG142      0.1354
     78  NH2       30.2160   -4.1420  -62.9840 N.pl3 142  ARG142      0.1354
     79  N         31.1950   -7.5160  -62.9280 N.3   163  MET163     -0.1245
     80  CA        32.3820   -7.3520  -62.0880 C.3   163  MET163      0.1570
     81  C         33.5010   -8.3820  -62.3700 C.2   163  MET163      0.2261
     82  O         34.6950   -8.0540  -62.2770 O.2   163  MET163     -0.2867
     83  CB        32.0040   -7.4140  -60.6130 C.3   163  MET163      0.0387
     84  CG        33.1580   -7.0970  -59.6780 C.3   163  MET163      0.0595
     85  SD        33.8530   -5.4480  -59.9410 S.3   163  MET163     -0.1393
     86  CE        32.4420   -4.4130  -59.5300 C.3   163  MET163      0.0692
     87  N         32.0710    2.2640  -59.2760 N.3   180  THR180     -0.1203
     88  CA        31.3280    1.4310  -58.3420 C.3   180  THR180      0.1994
     89  C         31.8540    1.6990  -56.9120 C.2   180  THR180      0.2618
     90  O         32.5600    2.6830  -56.6870 O.2   180  THR180     -0.2717
     91  CB        31.4030   -0.0880  -58.6900 C.3   180  THR180      0.1784
     92  OG1       30.5570   -0.8200  -57.7990 O.3   180  THR180     -0.2211
     93  CG2       32.8210   -0.6480  -58.5720 C.3   180  THR180      0.0376
     94  N         31.4910    0.8360  -55.9570 N.am  181  SER181     -0.1951
     95  CA        31.8040    1.0340  -54.5390 C.3   181  SER181      0.1924
     96  C         33.1430    0.4250  -54.1600 C.2   181  SER181      0.2314
     97  O         33.5910   -0.4860  -54.8230 O.2   181  SER181     -0.2863
     98  CB        30.6970    0.4450  -53.6500 C.3   181  SER181      0.2116
     99  OG        30.4620   -0.8940  -54.0260 O.3   181  SER181     -0.2180
    100  N         34.6010   -1.3490  -51.7600 N.3   183  ASP183     -0.1225
    101  CA        34.8480   -2.6860  -51.2120 C.3   183  ASP183      0.1805
    102  C         35.7610   -3.5260  -52.1170 C.2   183  ASP183      0.2597
    103  O         36.5900   -4.2660  -51.6430 O.2   183  ASP183     -0.2718
    104  CB        33.5190   -3.4120  -50.9810 C.3   183  ASP183      0.1424
    105  CG        32.5900   -3.2880  -52.1460 C.2   183  ASP183      0.3668
    106  OD1       32.1290   -2.1630  -52.4140 O.co2 183  ASP183     -0.2456
    107  OD2       32.3210   -4.2830  -52.8210 O.co2 183  ASP183     -0.2456
    108  N         35.6080   -3.3730  -53.4260 N.am  184  VAL184     -0.1980
    109  CA        36.4330   -4.0930  -54.4010 C.3   184  VAL184      0.1595
    110  C         37.9470   -3.7410  -54.4000 C.2   184  VAL184      0.2287
    111  O         38.7510   -4.4600  -54.9710 O.2   184  VAL184     -0.2864
    112  CB        35.8700   -3.9010  -55.8470 C.3   184  VAL184      0.0276
    113  CG1       34.4910   -4.4910  -55.9700 C.3   184  VAL184      0.0022
    114  CG2       35.8600   -2.4250  -56.2480 C.3   184  VAL184      0.0022
    115  N         24.4040    0.2740  -57.0400 N.3   205  TYR205     -0.1241
    116  CA        24.0400   -0.8720  -57.9040 C.3   205  TYR205      0.1605
    117  C         23.0920   -1.7870  -57.1290 C.2   205  TYR205      0.2264
    118  O         23.4420   -2.2930  -56.0660 O.2   205  TYR205     -0.2867
    119  CB        25.2600   -1.6920  -58.2550 C.3   205  TYR205      0.0534
    120  CG        26.1780   -1.1130  -59.2700 C.ar  205  TYR205     -0.0201
    121  CD1       27.0520   -0.0890  -58.9340 C.ar  205  TYR205     -0.0009
    122  CD2       26.2360   -1.6430  -60.5760 C.ar  205  TYR205     -0.0009
    123  CE1       27.9250    0.4400  -59.8810 C.ar  205  TYR205      0.0417
    124  CE2       27.0890   -1.1420  -61.4970 C.ar  205  TYR205      0.0417
    125  CZ        27.9380   -0.1060  -61.1440 C.ar  205  TYR205      0.1957
    126  OH        28.7990    0.4200  -62.0510 O.3   205  TYR205     -0.2866
    127  N         20.7660   -5.1480  -56.1750 N.3   207  PHE207     -0.1241
    128  CA        20.7630   -6.5910  -56.3590 C.3   207  PHE207      0.1605
    129  C         19.4430   -7.1650  -55.9190 C.2   207  PHE207      0.2264
    130  O         18.7870   -6.6540  -55.0020 O.2   207  PHE207     -0.2867
    131  CB        21.8240   -7.2710  -55.4990 C.3   207  PHE207      0.0534
    132  CG        23.2210   -6.9850  -55.8910 C.ar  207  PHE207     -0.0203
    133  CD1       23.7810   -5.7170  -55.6860 C.ar  207  PHE207     -0.0042
    134  CD2       24.0120   -7.9830  -56.4120 C.ar  207  PHE207     -0.0042
    135  CE1       25.0910   -5.4650  -56.0520 C.ar  207  PHE207     -0.0003
    136  CE2       25.3200   -7.7270  -56.7680 C.ar  207  PHE207     -0.0003
    137  CZ        25.8640   -6.4930  -56.5850 C.ar  207  PHE207     -0.0000
@<TRIPOS>BOND
     1    53    52    2
     2    52    51    1
     3    68    69    1
     4    69    72    1
     5    69    70    1
     6    72    73    1
     7    51    54    1
     8    51    50    1
     9    73    74    1
    10    70    71    2
    11    54    55    1
    12    74    75    1
    13    55    56   ar
    14    55    57   ar
    15    75    76    2
    16    56    58   ar
    17    57    59   ar
    18    76    78    1
    19    76    77    1
    20    58    60   ar
    21    79    80    1
    22    59    60   ar
    23    47    46    2
    24    60    61    1
    25    81    82    2
    26    81    80    1
    27    80    83    1
    28   126   125    1
    29   124   125   ar
    30   124   122   ar
    31    46    45    1
    32   125   123   ar
    33     5     6    1
    34     5     2    1
    35    83    84    1
    36   122   120   ar
    37    48    45    1
    38    48    49    1
    39     8     6   ar
    40     8    10   ar
    41    44    45    1
    42     6     7   ar
    43    10    11   ar
    44    85    84    1
    45    85    86    1
    46     4     3    2
    47   123   121   ar
    48     7     9   ar
    49     2     3    1
    50     2     1    1
    51    11     9   ar
    52    87    88    1
    53   120   121   ar
    54   120   119    1
    55     3    12   am
    56    91    93    1
    57    91    88    1
    58    91    92    1
    59    88    89    1
    60   119   116    1
    61    12    13    1
    62    12    18    1
    63   116   117    1
    64   116   115    1
    65    13    16    1
    66    13    14    1
    67    18    17    1
    68    16    17    1
    69   117   118    2
    70    89    90    2
    71    89    94   am
    72    14    15    2
    73   136   137   ar
    74   136   134   ar
    75   137   135   ar
    76   134   132   ar
    77   128   127    1
    78   128   129    1
    79   128   131    1
    80   114   112    1
    81   135   133   ar
    82   113   112    1
    83    94    95    1
    84   129   130    2
    85   132   133   ar
    86   132   131    1
    87   112   109    1
    88    67    66    1
    89   111   110    2
    90    97    96    2
    91    95    96    1
    92    95    98    1
    93    42    41    1
    94    42    43    1
    95    66    63    1
    96   109   110    1
    97   109   108    1
    98    25    23    1
    99    24    23    1
   100    41    38    1
   101    99    98    1
   102    23    20    1
   103    62    63    1
   104    43    37    1
   105   108   102   am
   106    63    64    1
   107    35    36   ar
   108    35    33   ar
   109   107   105   ar
   110    36    34   ar
   111    38    37    1
   112    38    39    1
   113   106   105   ar
   114    64    65    2
   115    37    28   am
   116    39    40    2
   117    33    31   ar
   118    20    19    1
   119    20    21    1
   120   105   104    1
   121   102   103    2
   122   102   101    1
   123   100   101    1
   124    34    32   ar
   125    21    26   am
   126    21    22    2
   127    26    27    1
   128   101   104    1
   129    31    32   ar
   130    31    30    1
   131    28    27    1
   132    28    29    2
   133    27    30    1
