@<TRIPOS>MOLECULE
tmp/4ph4A00.pdb
 162 155 0 0 0
SMALL
GASTEIGER

@<TRIPOS>ATOM
      1  N         -8.4740    5.1230   -7.7470 N.3   270  PHE270     -0.1241
      2  CA        -7.3410    4.3290   -7.2730 C.3   270  PHE270      0.1605
      3  C         -7.1710    4.5150   -5.7630 C.2   270  PHE270      0.2264
      4  O         -7.5250    5.5680   -5.2270 O.2   270  PHE270     -0.2867
      5  CB        -6.0470    4.7260   -7.9940 C.3   270  PHE270      0.0534
      6  CG        -5.9290    4.2640   -9.4280 C.ar  270  PHE270     -0.0203
      7  CD1       -5.4550    2.9900   -9.7310 C.ar  270  PHE270     -0.0042
      8  CD2       -6.2100    5.1300  -10.4810 C.ar  270  PHE270     -0.0042
      9  CE1       -5.2760    2.5850  -11.0660 C.ar  270  PHE270     -0.0003
     10  CE2       -6.0340    4.7220  -11.8130 C.ar  270  PHE270     -0.0003
     11  CZ        -5.5740    3.4510  -12.0950 C.ar  270  PHE270     -0.0000
     12  N         -5.0390    5.5320   -3.2890 N.3   272  SER272     -0.1217
     13  CA        -3.9300    6.4840   -3.2010 C.3   272  SER272      0.1889
     14  C         -4.4650    7.7190   -2.4440 C.2   272  SER272      0.2288
     15  O         -5.6730    7.8110   -2.2160 O.2   272  SER272     -0.2866
     16  CB        -3.4270    6.8490   -4.6010 C.3   272  SER272      0.2089
     17  OG        -2.9270    8.1750   -4.6940 O.3   272  SER272     -0.2183
     18  N         -6.6730    9.3160   -7.7840 N.3   276  PRO276     -0.2116
     19  CA        -6.8780    9.5330   -9.2240 C.3   276  PRO276      0.1372
     20  C         -7.9340    8.5590   -9.7810 C.2   276  PRO276      0.2244
     21  O         -8.1580    7.4990   -9.1930 O.2   276  PRO276     -0.2868
     22  CB        -5.4850    9.2600   -9.8100 C.3   276  PRO276      0.0268
     23  CG        -4.8800    8.2900   -8.8930 C.3   276  PRO276      0.0207
     24  CD        -5.3740    8.6560   -7.5270 C.3   276  PRO276      0.0892
     25  N         -5.7480    7.3940  -16.8090 N.3   292  ILE292     -0.1245
     26  CA        -5.6870    7.7660  -15.4100 C.3   292  ILE292      0.1561
     27  C         -5.9480    9.2710  -15.4710 C.2   292  ILE292      0.2260
     28  O         -5.2760    9.9620  -16.2460 O.2   292  ILE292     -0.2867
     29  CB        -4.3290    7.4410  -14.6940 C.3   292  ILE292      0.0252
     30  CG1       -3.9740    5.9380  -14.7810 C.3   292  ILE292      0.0019
     31  CG2       -4.4120    7.8610  -13.2210 C.3   292  ILE292      0.0019
     32  CD1       -2.5700    5.6690  -14.9700 C.3   292  ILE292      0.0001
     33  N         -5.7110   12.4300  -13.1160 N.3   294  LYS294     -0.1245
     34  CA        -5.1470   12.9200  -11.8650 C.3   294  LYS294      0.1561
     35  C         -5.5050   14.3690  -11.6090 C.2   294  LYS294      0.2260
     36  O         -5.1910   15.2200  -12.4290 O.2   294  LYS294     -0.2867
     37  CB        -3.6070   12.8040  -11.8870 C.3   294  LYS294      0.0271
     38  CG        -3.0340   11.3970  -11.7710 C.3   294  LYS294      0.0035
     39  CD        -1.6050   11.4570  -11.2210 C.3   294  LYS294      0.0206
     40  CE        -0.9370   10.1100  -11.1030 C.3   294  LYS294      0.1093
     41  NZ        -0.0940   10.0400   -9.8810 N.3   294  LYS294     -0.1314
     42  N          6.5470   14.6100  -15.0530 N.3   302  ASP302     -0.1239
     43  CA         6.2990   13.2800  -15.6510 C.3   302  ASP302      0.1674
     44  C          6.0590   13.3780  -17.1840 C.2   302  ASP302      0.2266
     45  O          6.5300   12.5290  -17.9270 O.2   302  ASP302     -0.2867
     46  CB         5.1450   12.5600  -14.9590 C.3   302  ASP302      0.1410
     47  CG         5.4970   12.0850  -13.5670 C.2   302  ASP302      0.3668
     48  OD1        5.3610   12.8830  -12.6140 O.co2 302  ASP302     -0.2456
     49  OD2        5.8530   10.9060  -13.4200 O.co2 302  ASP302     -0.2456
     50  N          4.4070    5.3670  -22.2250 N.3   328  TYR328     -0.1241
     51  CA         3.0100    5.7320  -22.0350 C.3   328  TYR328      0.1605
     52  C          2.8480    7.2600  -22.1120 C.2   328  TYR328      0.2264
     53  O          3.7640    8.0080  -21.7530 O.2   328  TYR328     -0.2867
     54  CB         2.4190    5.1360  -20.7380 C.3   328  TYR328      0.0534
     55  CG         3.1170    5.5720  -19.4640 C.ar  328  TYR328     -0.0201
     56  CD1        2.7400    6.7380  -18.7990 C.ar  328  TYR328     -0.0009
     57  CD2        4.1200    4.7890  -18.8940 C.ar  328  TYR328     -0.0009
     58  CE1        3.3840    7.1460  -17.6370 C.ar  328  TYR328      0.0417
     59  CE2        4.7580    5.1790  -17.7170 C.ar  328  TYR328      0.0417
     60  CZ         4.3940    6.3640  -17.0980 C.ar  328  TYR328      0.1957
     61  OH         5.0150    6.7610  -15.9430 O.3   328  TYR328     -0.2866
     62  N         -2.9530   10.3830  -18.0630 N.3   340  MET340     -0.1230
     63  CA        -1.8940    9.3950  -18.2750 C.3   340  MET340      0.1702
     64  C         -2.5350    8.1820  -18.9330 C.2   340  MET340      0.2592
     65  O         -3.6220    7.7600  -18.5420 O.2   340  MET340     -0.2718
     66  CB        -1.2150    8.9580  -16.9640 C.3   340  MET340      0.0401
     67  CG        -0.3130    9.9880  -16.3570 C.3   340  MET340      0.0596
     68  SD         0.5610    9.2380  -14.9640 S.3   340  MET340     -0.1393
     69  CE         1.2690   10.6670  -14.2510 C.3   340  MET340      0.0692
     70  N         -1.8640    7.6160  -19.9160 N.am  341  GLN341     -0.1966
     71  CA        -2.3350    6.4150  -20.5970 C.3   341  GLN341      0.1733
     72  C         -2.1070    5.2280  -19.6540 C.2   341  GLN341      0.2616
     73  O         -0.9740    4.9860  -19.2270 O.2   341  GLN341     -0.2715
     74  CB        -1.5720    6.2580  -21.9220 C.3   341  GLN341      0.0408
     75  CG        -1.7990    4.9590  -22.6330 C.3   341  GLN341      0.0908
     76  CD        -0.8970    4.7850  -23.8210 C.2   341  GLN341      0.2608
     77  OE1        0.1090    5.4730  -24.0010 O.2   341  GLN341     -0.2717
     78  NE2       -1.2160    3.8120  -24.6430 N.am  341  GLN341     -0.0878
     79  N         -3.1860    4.5280  -19.2990 N.am  342  PHE342     -0.1960
     80  CA        -3.1370    3.3610  -18.4210 C.3   342  PHE342      0.1771
     81  C         -2.5580    2.1480  -19.1250 C.2   342  PHE342      0.2619
     82  O         -3.0400    1.7520  -20.1820 O.2   342  PHE342     -0.2715
     83  CB        -4.5230    3.0370  -17.8610 C.3   342  PHE342      0.0574
     84  CG        -4.5070    1.9410  -16.8300 C.ar  342  PHE342     -0.0200
     85  CD1       -4.1420    2.2070  -15.5110 C.ar  342  PHE342     -0.0042
     86  CD2       -4.8540    0.6360  -17.1700 C.ar  342  PHE342     -0.0042
     87  CE1       -4.1200    1.1840  -14.5550 C.ar  342  PHE342     -0.0003
     88  CE2       -4.7930   -0.3910  -16.2170 C.ar  342  PHE342     -0.0003
     89  CZ        -4.4280   -0.1090  -14.9190 C.ar  342  PHE342     -0.0000
     90  N         -1.5260    1.5500  -18.5270 N.am  343  ILE343     -0.1963
     91  CA        -0.9090    0.3250  -19.0310 C.3   343  ILE343      0.1727
     92  C         -1.2870   -0.8000  -18.0730 C.2   343  ILE343      0.2616
     93  O         -1.0760   -0.6590  -16.8670 O.2   343  ILE343     -0.2715
     94  CB         0.6260    0.4480  -19.1960 C.3   343  ILE343      0.0290
     95  CG1        1.0310    1.6990  -20.0090 C.3   343  ILE343      0.0022
     96  CG2        1.2290   -0.8400  -19.7720 C.3   343  ILE343      0.0023
     97  CD1        0.6900    1.7030  -21.5550 C.3   343  ILE343      0.0001
     98  N         -1.8710   -1.8910  -18.6020 N.am  344  GLN344     -0.1963
     99  CA        -2.2320   -3.0580  -17.8000 C.3   344  GLN344      0.1733
    100  C         -0.9420   -3.7840  -17.4290 C.2   344  GLN344      0.2617
    101  O         -0.2000   -4.2390  -18.3020 O.2   344  GLN344     -0.2715
    102  CB        -3.2390   -3.9780  -18.5210 C.3   344  GLN344      0.0408
    103  CG        -4.0980   -4.8490  -17.5920 C.3   344  GLN344      0.0908
    104  CD        -4.6520   -4.1400  -16.3640 C.2   344  GLN344      0.2608
    105  OE1       -4.0590   -4.1650  -15.2650 O.2   344  GLN344     -0.2717
    106  NE2       -5.8180   -3.5240  -16.5210 N.am  344  GLN344     -0.0878
    107  N         -0.6370   -3.7710  -16.1310 N.am  345  SER345     -0.1950
    108  CA         0.5690   -4.3380  -15.5370 C.3   345  SER345      0.1924
    109  C          0.3690   -4.5530  -14.0300 C.2   345  SER345      0.2314
    110  O         -0.6590   -4.1600  -13.4670 O.2   345  SER345     -0.2863
    111  CB         1.7780   -3.4330  -15.7970 C.3   345  SER345      0.2116
    112  OG         1.4960   -2.0790  -15.4860 O.3   345  SER345     -0.2180
    113  N          2.5350   -4.0350  -10.2800 N.3   347  PRO347     -0.2116
    114  CA         3.7850   -3.4980   -9.6820 C.3   347  PRO347      0.1372
    115  C          4.6840   -4.6520   -9.2060 C.2   347  PRO347      0.2244
    116  O          4.1650   -5.6880   -8.7720 O.2   347  PRO347     -0.2868
    117  CB         3.2980   -2.6430   -8.4990 C.3   347  PRO347      0.0268
    118  CG         1.8090   -2.4780   -8.6910 C.3   347  PRO347      0.0207
    119  CD         1.3340   -3.6350   -9.5080 C.3   347  PRO347      0.0892
    120  N          7.1490   -0.3570   -5.9670 N.3   405  ASP405     -0.1239
    121  CA         5.7730    0.0250   -6.2840 C.3   405  ASP405      0.1674
    122  C          5.7050    0.9240   -7.5150 C.2   405  ASP405      0.2266
    123  O          4.6130    1.1260   -8.0670 O.2   405  ASP405     -0.2867
    124  CB         5.0350    0.6180   -5.0800 C.3   405  ASP405      0.1410
    125  CG         4.4110   -0.4620   -4.2290 C.2   405  ASP405      0.3668
    126  OD1        3.6250   -1.2820   -4.7850 O.co2 405  ASP405     -0.2456
    127  OD2        4.7300   -0.5200   -3.0160 O.co2 405  ASP405     -0.2456
    128  N          6.9320   -1.5380  -12.8190 N.3   408  LEU408     -0.1245
    129  CA         5.7670   -2.2920  -13.2610 C.3   408  LEU408      0.1561
    130  C          6.1110   -3.3910  -14.2500 C.2   408  LEU408      0.2260
    131  O          7.0480   -3.2510  -15.0350 O.2   408  LEU408     -0.2867
    132  CB         4.7740   -1.2910  -13.8620 C.3   408  LEU408      0.0270
    133  CG         3.6380   -0.7490  -12.9800 C.3   408  LEU408      0.0019
    134  CD1        4.1250   -0.1880  -11.6710 C.3   408  LEU408      0.0001
    135  CD2        2.9320    0.3670  -13.6660 C.3   408  LEU408      0.0001
    136  N          8.7540   -1.7280  -16.9200 N.3   416  PHE416     -0.1241
    137  CA         8.8470   -0.2820  -17.1180 C.3   416  PHE416      0.1605
    138  C          8.7500    0.4870  -15.7890 C.2   416  PHE416      0.2264
    139  O          8.2400   -0.0420  -14.7930 O.2   416  PHE416     -0.2867
    140  CB         7.8280    0.2010  -18.1710 C.3   416  PHE416      0.0534
    141  CG         6.3720    0.0000  -17.8130 C.ar  416  PHE416     -0.0203
    142  CD1        5.7650   -1.2420  -17.9660 C.ar  416  PHE416     -0.0042
    143  CD2        5.5930    1.0670  -17.3870 C.ar  416  PHE416     -0.0042
    144  CE1        4.4160   -1.4200  -17.6580 C.ar  416  PHE416     -0.0003
    145  CE2        4.2410    0.8880  -17.0780 C.ar  416  PHE416     -0.0003
    146  CZ         3.6650   -0.3550  -17.2000 C.ar  416  PHE416     -0.0000
    147  N          7.5910    4.0050  -13.5940 N.3   418  ILE418     -0.1231
    148  CA         6.5650    5.0320  -13.4550 C.3   418  ILE418      0.1692
    149  C          6.9520    6.0090  -12.3360 C.2   418  ILE418      0.2592
    150  O          7.8830    5.7350  -11.5710 O.2   418  ILE418     -0.2718
    151  CB         5.1490    4.4250  -13.2380 C.3   418  ILE418      0.0266
    152  CG1        5.0310    3.7140  -11.8560 C.3   418  ILE418      0.0019
    153  CG2        4.7090    3.5210  -14.4130 C.3   418  ILE418      0.0020
    154  CD1        3.6150    3.6780  -11.2100 C.3   418  ILE418      0.0001
    155  N          6.2490    7.1480  -12.2540 N.am  419  ASP419     -0.1974
    156  CA         6.3910    8.1720  -11.2080 C.3   419  ASP419      0.1709
    157  C          7.7870    8.8180  -11.1720 C.2   419  ASP419      0.2293
    158  O          8.6480    8.4000  -10.4090 O.2   419  ASP419     -0.2864
    159  CB         5.9830    7.5660   -9.8470 C.3   419  ASP419      0.1436
    160  CG         5.8550    8.5100   -8.6870 C.2   419  ASP419      0.3671
    161  OD1        5.9190    9.7410   -8.9120 O.co2 419  ASP419     -0.2456
    162  OD2        5.6370    8.0240   -7.5550 O.co2 419  ASP419     -0.2456
@<TRIPOS>BOND
     1    78    76   am
     2    77    76    2
     3    76    75    1
     4    75    74    1
     5    50    51    1
     6    52    51    1
     7    52    53    2
     8    51    54    1
     9    74    71    1
    10    97    95    1
    11    54    55    1
    12    71    70    1
    13    71    72    1
    14    82    81    2
    15    95    94    1
    16    70    64   am
    17    96    94    1
    18    72    79   am
    19    72    73    2
    20    55    57   ar
    21    55    56   ar
    22    79    80    1
    23    94    91    1
    24    81    90   am
    25    81    80    1
    26    91    90    1
    27    91    92    1
    28    64    65    2
    29    64    63    1
    30    57    59   ar
    31    56    58   ar
    32    98    92   am
    33    98    99    1
    34   102    99    1
    35   102   103    1
    36    80    83    1
    37   101   100    2
    38    63    62    1
    39    63    66    1
    40   140   141    1
    41   140   137    1
    42    92    93    2
    43   142   141   ar
    44   142   144   ar
    45    45    44    2
    46    83    84    1
    47   141   143   ar
    48    99   100    1
    49    59    60   ar
    50   144   146   ar
    51    58    60   ar
    52   103   104    1
    53   100   107   am
    54   143   145   ar
    55   146   145   ar
    56    44    43    1
    57    86    84   ar
    58    86    88   ar
    59   137   136    1
    60   137   138    1
    61    60    61    1
    62    66    67    1
    63    84    85   ar
    64    25    26    1
    65   106   104   am
    66   104   105    2
    67    67    68    1
    68    28    27    2
    69    88    89   ar
    70   107   108    1
    71   111   108    1
    72   111   112    1
    73   138   139    2
    74    43    42    1
    75    43    46    1
    76   108   109    1
    77    85    87   ar
    78    27    26    1
    79    26    29    1
    80   131   130    2
    81    32    30    1
    82    68    69    1
    83    46    47    1
    84    89    87   ar
    85    30    29    1
    86    29    31    1
    87   153   151    1
    88   130   129    1
    89   109   110    2
    90   132   129    1
    91   132   133    1
    92   135   133    1
    93   147   148    1
    94    47    49   ar
    95    47    48   ar
    96   148   151    1
    97   148   149    1
    98   129   128    1
    99   151   152    1
   100    33    34    1
   101   133   134    1
   102    36    35    2
   103   149   155   am
   104   149   150    2
   105   155   156    1
   106    11    10   ar
   107    11     9   ar
   108    37    34    1
   109    37    38    1
   110    34    35    1
   111   152   154    1
   112    10     8   ar
   113    38    39    1
   114    39    40    1
   115   156   157    1
   116   156   159    1
   117   157   158    2
   118    40    41    1
   119     9     7   ar
   120     8     6   ar
   121   113   114    1
   122   113   119    1
   123   159   160    1
   124    22    19    1
   125    22    23    1
   126    20    19    1
   127    20    21    2
   128     7     6   ar
   129   114   115    1
   130   114   117    1
   131   119   118    1
   132     6     5    1
   133    19    18    1
   134   115   116    2
   135   161   160   ar
   136    23    24    1
   137   118   117    1
   138   160   162   ar
   139   123   122    2
   140     5     2    1
   141    18    24    1
   142     1     2    1
   143   122   121    1
   144     2     3    1
   145   121   120    1
   146   121   124    1
   147     3     4    2
   148   124   125    1
   149   126   125   ar
   150    17    16    1
   151    16    13    1
   152   125   127   ar
   153    12    13    1
   154    13    14    1
   155    14    15    2
