@<TRIPOS>MOLECULE
tmp/4phaA00.pdb
 119 113 0 0 0
SMALL
GASTEIGER

@<TRIPOS>ATOM
      1  N         18.8590   11.0400   16.6310 N.3   143  ARG143     -0.1245
      2  CA        17.9610   11.1260   15.4880 C.3   143  ARG143      0.1563
      3  C         18.7710   11.2530   14.2030 C.2   143  ARG143      0.2260
      4  O         19.9350   11.6550   14.2290 O.2   143  ARG143     -0.2867
      5  CB        16.9950   12.3030   15.6360 C.3   143  ARG143      0.0307
      6  CG        16.0890   12.2020   16.8500 C.3   143  ARG143      0.0489
      7  CD        14.8420   13.0570   16.6870 C.3   143  ARG143      0.2205
      8  NE        14.0120   12.6080   15.5710 N.pl3 143  ARG143     -0.0865
      9  CZ        13.2520   11.5160   15.5890 C.cat 143  ARG143      0.5346
     10  NH1       13.2090   10.7480   16.6690 N.pl3 143  ARG143      0.1354
     11  NH2       12.5320   11.1920   14.5250 N.pl3 143  ARG143      0.1354
     12  N          8.3430    4.4350    6.4680 N.3   173  GLY173     -0.1210
     13  CA         8.4550    5.0040    7.7980 C.3   173  GLY173      0.1956
     14  C          8.2170    6.5000    7.8240 C.2   173  GLY173      0.2612
     15  O          7.5160    7.0430    6.9710 O.2   173  GLY173     -0.2717
     16  N          8.8100    7.1680    8.8090 N.am  174  SER174     -0.1952
     17  CA         8.6550    8.6100    8.9630 C.3   174  SER174      0.1924
     18  C          9.2950    9.3750    7.8100 C.2   174  SER174      0.2314
     19  O          8.8340   10.4590    7.4490 O.2   174  SER174     -0.2863
     20  CB         9.2530    9.0720   10.2940 C.3   174  SER174      0.2116
     21  OG        10.5590    8.5550   10.4750 O.3   174  SER174     -0.2180
     22  N          6.8440    9.9590    5.2410 N.3   177  ARG177     -0.1245
     23  CA         5.8810   10.9470    5.7130 C.3   177  ARG177      0.1563
     24  C          6.5150   12.3390    5.6860 C.2   177  ARG177      0.2260
     25  O          5.8850   13.3290    6.0530 O.2   177  ARG177     -0.2867
     26  CB         5.3790   10.6020    7.1180 C.3   177  ARG177      0.0307
     27  CG         4.7340    9.2250    7.2220 C.3   177  ARG177      0.0489
     28  CD         3.8430    9.1050    8.4510 C.3   177  ARG177      0.2205
     29  NE         4.5330    9.4880    9.6790 N.pl3 177  ARG177     -0.0865
     30  CZ         5.2670    8.6600   10.4150 C.cat 177  ARG177      0.5346
     31  NH1        5.4140    7.3950   10.0480 N.pl3 177  ARG177      0.1354
     32  NH2        5.8580    9.0970   11.5180 N.pl3 177  ARG177      0.1354
     33  N         14.1350    8.2110   13.2520 N.3   183  GLY183     -0.1210
     34  CA        14.7950    7.4350   14.2840 C.3   183  GLY183      0.1956
     35  C         15.5240    6.2450   13.6920 C.2   183  GLY183      0.2611
     36  O         16.5140    5.7690   14.2470 O.2   183  GLY183     -0.2717
     37  N         15.0270    5.7650   12.5560 N.am  184  ASP184     -0.1973
     38  CA        15.6500    4.6500   11.8530 C.3   184  ASP184      0.1709
     39  C         15.3420    4.7010   10.3590 C.2   184  ASP184      0.2293
     40  O         14.7660    5.6730    9.8700 O.2   184  ASP184     -0.2864
     41  CB        15.1930    3.3130   12.4540 C.3   184  ASP184      0.1436
     42  CG        13.6800    3.1200   12.4030 C.2   184  ASP184      0.3671
     43  OD1       13.0230    3.6160   11.4650 O.co2 184  ASP184     -0.2456
     44  OD2       13.1410    2.4620   13.3170 O.co2 184  ASP184     -0.2456
     45  N         13.4510    2.4210    7.3020 N.3   186  ASP186     -0.1239
     46  CA        12.6160    1.2890    6.9200 C.3   186  ASP186      0.1674
     47  C         12.6100    1.1030    5.4080 C.2   186  ASP186      0.2266
     48  O         12.2060    1.9990    4.6670 O.2   186  ASP186     -0.2867
     49  CB        11.1860    1.4780    7.4260 C.3   186  ASP186      0.1410
     50  CG        11.0770    1.3320    8.9280 C.2   186  ASP186      0.3668
     51  OD1       11.3130    2.3280    9.6420 O.co2 186  ASP186     -0.2456
     52  OD2       10.7530    0.2200    9.3950 O.co2 186  ASP186     -0.2456
     53  N          1.0900    0.4630    5.3800 N.3   263  TYR263     -0.1227
     54  CA         1.3330    0.0500    6.7550 C.3   263  TYR263      0.1736
     55  C          2.7000    0.4920    7.2670 C.2   263  TYR263      0.2595
     56  O          2.8120    1.0290    8.3680 O.2   263  TYR263     -0.2718
     57  CB         1.1960   -1.4710    6.8740 C.3   263  TYR263      0.0548
     58  CG         1.4830   -2.0220    8.2530 C.ar  263  TYR263     -0.0200
     59  CD1        0.4930   -2.0620    9.2260 C.ar  263  TYR263     -0.0009
     60  CD2        2.7400   -2.5190    8.5760 C.ar  263  TYR263     -0.0009
     61  CE1        0.7500   -2.5690   10.4860 C.ar  263  TYR263      0.0417
     62  CE2        3.0060   -3.0270    9.8320 C.ar  263  TYR263      0.0417
     63  CZ         2.0080   -3.0520   10.7820 C.ar  263  TYR263      0.1957
     64  OH         2.2700   -3.5580   12.0350 O.3   263  TYR263     -0.2866
     65  N          3.7380    0.2660    6.4690 N.am  264  PHE264     -0.1962
     66  CA         5.0990    0.5460    6.9130 C.3   264  PHE264      0.1771
     67  C          5.4860    2.0090    6.7140 C.2   264  PHE264      0.2620
     68  O          6.5490    2.4410    7.1600 O.2   264  PHE264     -0.2715
     69  CB         6.0860   -0.3780    6.1990 C.3   264  PHE264      0.0574
     70  CG         5.9780   -1.8160    6.6280 C.ar  264  PHE264     -0.0200
     71  CD1        6.5540   -2.2440    7.8130 C.ar  264  PHE264     -0.0042
     72  CD2        5.2870   -2.7350    5.8560 C.ar  264  PHE264     -0.0042
     73  CE1        6.4500   -3.5630    8.2150 C.ar  264  PHE264     -0.0003
     74  CE2        5.1800   -4.0540    6.2520 C.ar  264  PHE264     -0.0003
     75  CZ         5.7620   -4.4690    7.4330 C.ar  264  PHE264     -0.0000
     76  N          4.6210    2.7700    6.0500 N.am  265  THR265     -0.1937
     77  CA         4.7610    4.2220    6.0180 C.3   265  THR265      0.2028
     78  C          4.2220    4.7750    7.3260 C.2   265  THR265      0.2643
     79  O          4.7620    5.7260    7.8900 O.2   265  THR265     -0.2714
     80  CB         4.0040    4.8620    4.8400 C.3   265  THR265      0.1808
     81  OG1        4.4550    4.2840    3.6090 O.3   265  THR265     -0.2208
     82  CG2        4.2280    6.3670    4.8060 C.3   265  THR265      0.0379
     83  N          3.1440    4.1610    7.8000 N.am  266  GLY266     -0.1939
     84  CA         2.5450    4.5380    9.0620 C.3   266  GLY266      0.2014
     85  C          1.6200    5.7330    8.9770 C.2   266  GLY266      0.2640
     86  O          1.0990    6.0530    7.9080 O.2   266  GLY266     -0.2714
     87  N          1.4430    6.4140   10.1060 N.am  267  SER267     -0.1935
     88  CA         2.2220    6.1210   11.3060 C.3   267  SER267      0.2055
     89  C          1.6020    5.0750   12.2310 C.2   267  SER267      0.2643
     90  O          0.5250    4.5370   11.9670 O.2   267  SER267     -0.2714
     91  CB         2.4540    7.4020   12.1070 C.3   267  SER267      0.2130
     92  OG         1.4780    7.5380   13.1250 O.3   267  SER267     -0.2179
     93  N          2.3270    4.8120   13.3140 N.am  268  ASP268     -0.1971
     94  CA         1.9380    3.9040   14.3890 C.3   268  ASP268      0.1709
     95  C          0.4670    4.0010   14.7880 C.2   268  ASP268      0.2293
     96  O         -0.3040    3.0610   14.5880 O.2   268  ASP268     -0.2864
     97  CB         2.8250    4.1810   15.6070 C.3   268  ASP268      0.1436
     98  CG         2.4900    3.3050   16.7940 C.2   268  ASP268      0.3671
     99  OD1        2.7240    3.7550   17.9360 O.co2 268  ASP268     -0.2456
    100  OD2        2.0070    2.1720   16.5900 O.co2 268  ASP268     -0.2456
    101  N         -2.2030    3.5630   11.8680 N.3   271  ASN271     -0.1240
    102  CA        -2.5590    2.1990   11.4900 C.3   271  ASN271      0.1653
    103  C         -3.5600    1.5850   12.4590 C.2   271  ASN271      0.2266
    104  O         -4.4070    0.7810   12.0680 O.2   271  ASN271     -0.2867
    105  CB        -1.3140    1.3140   11.4120 C.3   271  ASN271      0.1155
    106  CG        -0.4440    1.6340   10.2150 C.2   271  ASN271      0.2627
    107  OD1       -0.8490    2.3730    9.3170 O.2   271  ASN271     -0.2716
    108  ND2        0.7560    1.0690   10.1900 N.am  271  ASN271     -0.0877
    109  N         -7.3810    0.3760   11.2350 N.3   275  ARG275     -0.1245
    110  CA        -7.8360   -0.9930   11.4350 C.3   275  ARG275      0.1563
    111  C         -8.9130   -1.0650   12.5190 C.2   275  ARG275      0.2260
    112  O         -9.5900   -2.0820   12.6620 O.2   275  ARG275     -0.2867
    113  CB        -6.6580   -1.9100   11.7820 C.3   275  ARG275      0.0307
    114  CG        -6.2690   -1.9410   13.2520 C.3   275  ARG275      0.0489
    115  CD        -5.0970   -2.8910   13.4890 C.3   275  ARG275      0.2205
    116  NE        -3.8020   -2.2410   13.2990 N.pl3 275  ARG275     -0.0865
    117  CZ        -2.9830   -1.9050   14.2910 C.cat 275  ARG275      0.5346
    118  NH1       -3.3180   -2.1650   15.5470 N.pl3 275  ARG275      0.1354
    119  NH2       -1.8240   -1.3160   14.0270 N.pl3 275  ARG275      0.1354
@<TRIPOS>BOND
     1    81    80    1
     2    48    47    2
     3    82    80    1
     4    80    77    1
     5    22    23    1
     6    53    54    1
     7    47    46    1
     8    24    23    1
     9    24    25    2
    10    23    26    1
    11    72    74   ar
    12    72    70   ar
    13    77    76    1
    14    77    78    1
    15    76    67   am
    16    69    70    1
    17    69    66    1
    18    74    75   ar
    19    12    13    1
    20    65    66    1
    21    65    55   am
    22    70    71   ar
    23    67    66    1
    24    67    68    2
    25    54    57    1
    26    54    55    1
    27    57    58    1
    28    46    45    1
    29    46    49    1
    30    15    14    2
    31    26    27    1
    32    27    28    1
    33    55    56    2
    34    78    83   am
    35    78    79    2
    36    49    50    1
    37    75    73   ar
    38    19    18    2
    39    13    14    1
    40    83    84    1
    41    18    17    1
    42    71    73   ar
    43    14    16   am
    44    86    85    2
    45    58    60   ar
    46    58    59   ar
    47    28    29    1
    48    60    62   ar
    49    16    17    1
    50    50    52   ar
    51    50    51   ar
    52    17    20    1
    53    85    84    1
    54    85    87   am
    55    59    61   ar
    56   107   106    2
    57    29    30    2
    58    62    63   ar
    59    40    39    2
    60    31    30    1
    61    87    88    1
    62   108   106   am
    63   106   105    1
    64    20    21    1
    65    39    38    1
    66    30    32    1
    67    61    63   ar
    68    63    64    1
    69   109   110    1
    70    88    91    1
    71    88    89    1
    72   105   102    1
    73   110   113    1
    74   110   111    1
    75    43    42   ar
    76   102   101    1
    77   102   103    1
    78   113   114    1
    79    38    41    1
    80    38    37    1
    81    90    89    2
    82   104   103    2
    83    91    92    1
    84    89    93   am
    85    42    41    1
    86    42    44   ar
    87   111   112    2
    88    37    35   am
    89    33    34    1
    90   114   115    1
    91   116   115    1
    92   116   117    2
    93    93    94    1
    94    35    36    2
    95    35    34    1
    96   119   117    1
    97     3     4    2
    98     3     2    1
    99   117   118    1
   100    94    95    1
   101    94    97    1
   102    11     9    1
   103    96    95    2
   104     2     5    1
   105     2     1    1
   106     8     9    2
   107     8     7    1
   108     9    10    1
   109    97    98    1
   110     5     6    1
   111   100    98   ar
   112     7     6    1
   113    98    99   ar
