@<TRIPOS>MOLECULE
tmp/4phcA00.pdb
 137 128 0 0 0
SMALL
GASTEIGER

@<TRIPOS>ATOM
      1  N        -10.6250   12.4460  -19.1840 N.3    78  ASP78      -0.1239
      2  CA       -11.6020   13.5250  -19.0340 C.3    78  ASP78       0.1674
      3  C        -10.9090   14.7390  -18.4420 C.2    78  ASP78       0.2266
      4  O         -9.6830   14.7530  -18.3280 O.2    78  ASP78      -0.2867
      5  CB       -12.8090   13.0730  -18.1960 C.3    78  ASP78       0.1410
      6  CG       -12.5150   12.9730  -16.7040 C.2    78  ASP78       0.3668
      7  OD1      -11.3380   13.1010  -16.2870 O.co2  78  ASP78      -0.2456
      8  OD2      -13.4900   12.7520  -15.9440 O.co2  78  ASP78      -0.2456
      9  N        -12.0820   16.2840  -15.4310 N.3    80  THR80      -0.1218
     10  CA       -12.3730   16.3270  -14.0020 C.3    80  THR80       0.1862
     11  C        -11.2230   15.7860  -13.1500 C.2    80  THR80       0.2287
     12  O        -10.8530   16.4000  -12.1590 O.2    80  THR80      -0.2866
     13  CB       -13.6780   15.5590  -13.6820 C.3    80  THR80       0.1770
     14  OG1      -14.7400   16.0550  -14.5040 O.3    80  THR80      -0.2211
     15  CG2      -14.0710   15.7430  -12.2350 C.3    80  THR80       0.0375
     16  N        -10.1210    8.6520  -25.4000 N.3   105  ARG105     -0.1245
     17  CA       -10.7240    7.3960  -24.9670 C.3   105  ARG105      0.1563
     18  C        -10.6560    6.3760  -26.0840 C.2   105  ARG105      0.2260
     19  O        -11.0890    6.6490  -27.1930 O.2   105  ARG105     -0.2867
     20  CB       -12.1920    7.6150  -24.5860 C.3   105  ARG105      0.0307
     21  CG       -12.4030    8.7930  -23.6600 C.3   105  ARG105      0.0489
     22  CD       -13.7990    8.8780  -23.0870 C.3   105  ARG105      0.2205
     23  NE       -13.8800    9.9900  -22.1470 N.pl3 105  ARG105     -0.0865
     24  CZ       -14.9730   10.3520  -21.4750 C.cat 105  ARG105      0.5346
     25  NH1      -16.1100    9.6980  -21.6340 N.pl3 105  ARG105      0.1354
     26  NH2      -14.9240   11.3890  -20.6340 N.pl3 105  ARG105      0.1354
     27  N        -14.5470   18.3190  -24.7060 N.3   121  GLN121     -0.1245
     28  CA       -15.4740   18.4870  -23.5890 C.3   121  GLN121      0.1566
     29  C        -15.4050   19.9510  -23.1670 C.2   121  GLN121      0.2260
     30  O        -14.3350   20.5740  -23.2520 O.2   121  GLN121     -0.2867
     31  CB       -15.0950   17.5870  -22.4240 C.3   121  GLN121      0.0367
     32  CG       -15.4540   16.1300  -22.6590 C.3   121  GLN121      0.0905
     33  CD       -15.2790   15.2730  -21.4060 C.2   121  GLN121      0.2608
     34  OE1      -14.3050   15.4220  -20.6730 O.2   121  GLN121     -0.2717
     35  NE2      -16.2420   14.4010  -21.1420 N.am  121  GLN121     -0.0878
     36  N        -16.1680   21.8610  -19.8630 N.3   123  ASP123     -0.1239
     37  CA       -16.4620   21.6450  -18.4610 C.3   123  ASP123      0.1674
     38  C        -16.5700   22.9120  -17.6450 C.2   123  ASP123      0.2266
     39  O        -15.8910   23.9040  -17.9110 O.2   123  ASP123     -0.2867
     40  CB       -15.3870   20.7710  -17.8550 C.3   123  ASP123      0.1410
     41  CG       -15.6110   19.3120  -18.1500 C.2   123  ASP123      0.3668
     42  OD1      -16.1100   19.0060  -19.2550 O.co2 123  ASP123     -0.2456
     43  OD2      -15.2920   18.4830  -17.2690 O.co2 123  ASP123     -0.2456
     44  N        -16.9560   23.5950  -13.3070 N.3   125  ASP125     -0.1239
     45  CA       -16.9040   22.8900  -12.0350 C.3   125  ASP125      0.1674
     46  C        -16.7510   23.8860  -10.8830 C.2   125  ASP125      0.2266
     47  O        -15.9810   24.8420  -10.9770 O.2   125  ASP125     -0.2867
     48  CB       -15.7400   21.8830  -12.0460 C.3   125  ASP125      0.1410
     49  CG       -16.0360   20.6280  -12.8890 C.2   125  ASP125      0.3668
     50  OD1      -15.6350   20.5470  -14.0830 O.co2 125  ASP125     -0.2456
     51  OD2      -16.6770   19.7050  -12.3360 O.co2 125  ASP125     -0.2456
     52  N        -24.9010    7.2840  -13.5920 N.3   274  ARG274     -0.1245
     53  CA       -23.8550    7.6520  -14.5550 C.3   274  ARG274      0.1563
     54  C        -22.8150    6.5250  -14.7190 C.2   274  ARG274      0.2260
     55  O        -22.8890    5.5240  -14.0180 O.2   274  ARG274     -0.2867
     56  CB       -23.1990    8.9620  -14.1320 C.3   274  ARG274      0.0307
     57  CG       -24.1820   10.1270  -14.1090 C.3   274  ARG274      0.0489
     58  CD       -24.1410   10.9380  -15.3870 C.3   274  ARG274      0.2205
     59  NE       -22.8060   11.5150  -15.4830 N.pl3 274  ARG274     -0.0865
     60  CZ       -21.9310   11.2380  -16.4430 C.cat 274  ARG274      0.5346
     61  NH1      -20.7250   11.7950  -16.4020 N.pl3 274  ARG274      0.1354
     62  NH2      -22.2580   10.4320  -17.4540 N.pl3 274  ARG274      0.1354
     63  N        -19.3780    6.7010  -14.3110 N.3   276  LEU276     -0.1245
     64  CA       -18.1060    6.9260  -13.6190 C.3   276  LEU276      0.1561
     65  C        -18.2770    6.7010  -12.1270 C.2   276  LEU276      0.2260
     66  O        -19.3140    7.0470  -11.5500 O.2   276  LEU276     -0.2867
     67  CB       -17.5770    8.3370  -13.9060 C.3   276  LEU276      0.0270
     68  CG       -17.4590    8.7210  -15.3920 C.3   276  LEU276      0.0019
     69  CD1      -16.9660   10.1500  -15.5420 C.3   276  LEU276      0.0001
     70  CD2      -16.5370    7.7760  -16.1640 C.3   276  LEU276      0.0001
     71  N        -16.7970    8.0310   -9.5120 N.3   278  TYR278     -0.1227
     72  CA       -16.4940    9.0630   -8.5180 C.3   278  TYR278      0.1736
     73  C        -17.6610    9.9390   -8.0220 C.2   278  TYR278      0.2595
     74  O        -17.4610   10.7750   -7.1500 O.2   278  TYR278     -0.2718
     75  CB       -15.2870    9.9230   -8.9550 C.3   278  TYR278      0.0548
     76  CG       -15.3490   10.6050  -10.3200 C.ar  278  TYR278     -0.0200
     77  CD1      -16.2460   11.6350  -10.5740 C.ar  278  TYR278     -0.0009
     78  CD2      -14.4560   10.2470  -11.3420 C.ar  278  TYR278     -0.0009
     79  CE1      -16.2750   12.2720  -11.8110 C.ar  278  TYR278      0.0417
     80  CE2      -14.4730   10.8830  -12.5750 C.ar  278  TYR278      0.0417
     81  CZ       -15.3810   11.8970  -12.8010 C.ar  278  TYR278      0.1957
     82  OH       -15.3950   12.5230  -14.0200 O.3   278  TYR278     -0.2866
     83  N        -18.8670    9.7520   -8.5460 N.am  279  TYR279     -0.1976
     84  CA       -20.0100   10.5690   -8.1180 C.3   279  TYR279      0.1639
     85  C        -20.5450   10.1260   -6.7580 C.2   279  TYR279      0.2290
     86  O        -20.6690    8.9410   -6.4930 O.2   279  TYR279     -0.2864
     87  CB       -21.1440   10.5330   -9.1510 C.3   279  TYR279      0.0560
     88  CG       -20.7890   11.1970  -10.4440 C.ar  279  TYR279     -0.0198
     89  CD1      -20.6000   12.5680  -10.5020 C.ar  279  TYR279     -0.0009
     90  CD2      -20.6320   10.4580  -11.6150 C.ar  279  TYR279     -0.0009
     91  CE1      -20.2640   13.1970  -11.6920 C.ar  279  TYR279      0.0417
     92  CE2      -20.2970   11.0710  -12.8110 C.ar  279  TYR279      0.0417
     93  CZ       -20.1160   12.4430  -12.8410 C.ar  279  TYR279      0.1957
     94  OH       -19.7830   13.0650  -14.0080 O.3   279  TYR279     -0.2866
     95  N        -23.6700   16.2350  -19.3140 N.3   301  ALA301     -0.1231
     96  CA       -23.7100   15.3600  -18.1400 C.3   301  ALA301      0.1694
     97  C        -22.7500   15.8220  -17.0490 C.2   301  ALA301      0.2593
     98  O        -21.8040   16.5610  -17.3150 O.2   301  ALA301     -0.2718
     99  CB       -23.3840   13.9370  -18.5500 C.3   301  ALA301      0.0304
    100  N        -23.0120   15.3780  -15.8230 N.am  302  GLY302     -0.1942
    101  CA       -22.1640   15.7010  -14.6750 C.3   302  GLY302      0.2014
    102  C        -22.7620   15.2760  -13.3460 C.2   302  GLY302      0.2639
    103  O        -23.6290   14.4030  -13.2830 O.2   302  GLY302     -0.2714
    104  N        -22.2830   15.8800  -12.2730 N.am  303  GLY303     -0.1954
    105  CA       -22.7370   15.5230  -10.9330 C.3   303  GLY303      0.1869
    106  C        -21.7850   15.9880   -9.8350 C.2   303  GLY303      0.2309
    107  O        -20.8180   16.7080  -10.1040 O.2   303  GLY303     -0.2863
    108  N        -19.0520   15.1890   -6.8450 N.3   305  TYR305     -0.1241
    109  CA       -17.9770   14.2170   -6.5990 C.3   305  TYR305      0.1605
    110  C        -17.0930   14.6640   -5.4270 C.2   305  TYR305      0.2264
    111  O        -16.0310   15.2730   -5.6130 O.2   305  TYR305     -0.2867
    112  CB       -17.1530   13.9890   -7.8850 C.3   305  TYR305      0.0534
    113  CG       -16.6330   15.2470   -8.5820 C.ar  305  TYR305     -0.0201
    114  CD1      -17.4780   16.0540   -9.3270 C.ar  305  TYR305     -0.0009
    115  CD2      -15.2830   15.6020   -8.5160 C.ar  305  TYR305     -0.0009
    116  CE1      -16.9980   17.2020   -9.9550 C.ar  305  TYR305      0.0417
    117  CE2      -14.7940   16.7410   -9.1400 C.ar  305  TYR305      0.0417
    118  CZ       -15.6530   17.5410   -9.8610 C.ar  305  TYR305      0.1957
    119  OH       -15.1590   18.6670  -10.4910 O.3   305  TYR305     -0.2866
    120  N        -20.0870   19.5740  -10.7960 N.3   323  GLY323     -0.1210
    121  CA       -19.7950   20.0340  -12.1560 C.3   323  GLY323      0.1956
    122  C        -20.6440   19.4830  -13.2720 C.2   323  GLY323      0.2612
    123  O        -21.5660   18.6980  -13.0600 O.2   323  GLY323     -0.2717
    124  N        -20.2910   19.8990  -14.4800 N.am  324  LEU324     -0.1965
    125  CA       -20.9790   19.4890  -15.6940 C.3   324  LEU324      0.1728
    126  C        -20.0150   19.5480  -16.8570 C.2   324  LEU324      0.2616
    127  O        -18.9700   20.2010  -16.8020 O.2   324  LEU324     -0.2715
    128  CB       -22.1340   20.4310  -15.9720 C.3   324  LEU324      0.0311
    129  CG       -21.7200   21.8840  -16.2750 C.3   324  LEU324      0.0022
    130  CD1      -21.7630   22.1780  -17.7670 C.3   324  LEU324      0.0001
    131  CD2      -22.6280   22.8560  -15.5450 C.3   324  LEU324      0.0001
    132  N        -20.3810   18.8460  -17.9180 N.am  325  SER325     -0.1950
    133  CA       -19.5810   18.7700  -19.1300 C.3   325  SER325      0.1924
    134  C        -20.5470   18.7180  -20.2820 C.2   325  SER325      0.2314
    135  O        -21.5660   18.0360  -20.2070 O.2   325  SER325     -0.2863
    136  CB       -18.7190   17.5130  -19.1230 C.3   325  SER325      0.2116
    137  OG       -17.9240   17.4240  -20.2950 O.3   325  SER325     -0.2180
@<TRIPOS>BOND
     1    19    18    2
     2    18    17    1
     3    16    17    1
     4    17    20    1
     5    27    28    1
     6    20    21    1
     7    21    22    1
     8    28    29    1
     9    28    31    1
    10    30    29    2
    11    22    23    1
    12    32    31    1
    13    32    33    1
    14    23    24    2
    15    25    24    1
    16    24    26    1
    17    33    35   am
    18    33    34    2
    19   137   136    1
    20   134   135    2
    21   134   133    1
    22    36    37    1
    23    95    96    1
    24    42    41   ar
    25     1     2    1
    26   133   136    1
    27   133   132    1
    28     2     3    1
    29     2     5    1
    30    99    96    1
    31    37    40    1
    32    37    38    1
    33     3     4    2
    34     5     6    1
    35    41    40    1
    36    41    43   ar
    37    96    97    1
    38   132   126   am
    39    39    38    2
    40   130   129    1
    41    62    60    1
    42    98    97    2
    43    97   100   am
    44   126   127    2
    45   126   125    1
    46     6     7   ar
    47     6     8   ar
    48    60    61    1
    49    60    59    2
    50   129   128    1
    51   129   131    1
    52    70    68    1
    53   128   125    1
    54   100   101    1
    55   125   124    1
    56    69    68    1
    57    59    58    1
    58     9    10    1
    59    68    67    1
    60    58    57    1
    61    54    53    1
    62    54    55    2
    63   101   102    1
    64    53    56    1
    65    53    52    1
    66    14    13    1
    67   124   122   am
    68    63    64    1
    69    56    57    1
    70    50    49   ar
    71    82    81    1
    72    94    93    1
    73    10    13    1
    74    10    11    1
    75    67    64    1
    76    13    15    1
    77    64    65    1
    78   102   103    2
    79   102   104   am
    80    44    45    1
    81   122   123    2
    82   122   121    1
    83    11    12    2
    84    49    51   ar
    85    49    48    1
    86    93    92   ar
    87    93    91   ar
    88    92    90   ar
    89    81    80   ar
    90    81    79   ar
    91    80    78   ar
    92   104   105    1
    93   121   120    1
    94    65    66    2
    95    48    45    1
    96    45    46    1
    97    79    77   ar
    98    91    89   ar
    99    90    88   ar
   100    78    76   ar
   101    47    46    2
   102   105   106    1
   103    77    76   ar
   104    89    88   ar
   105   119   118    1
   106    88    87    1
   107    76    75    1
   108   107   106    2
   109   116   118   ar
   110   116   114   ar
   111   118   117   ar
   112    71    72    1
   113   114   113   ar
   114    87    84    1
   115   117   115   ar
   116    75    72    1
   117   113   115   ar
   118   113   112    1
   119    83    84    1
   120    83    73   am
   121    72    73    1
   122    84    85    1
   123    73    74    2
   124   112   109    1
   125   108   109    1
   126    85    86    2
   127   109   110    1
   128   111   110    2
