@<TRIPOS>MOLECULE
tmp/4pheA00.pdb
 136 129 0 0 0
SMALL
GASTEIGER

@<TRIPOS>ATOM
      1  N         10.5740  -10.9480   22.7440 N.3   143  ARG143     -0.1245
      2  CA         9.7320  -10.9560   21.5580 C.3   143  ARG143      0.1563
      3  C          8.2900  -11.2170   21.9730 C.2   143  ARG143      0.2260
      4  O          8.0270  -11.6640   23.0900 O.2   143  ARG143     -0.2867
      5  CB        10.2120  -11.9970   20.5440 C.3   143  ARG143      0.0307
      6  CG        11.5270  -11.6250   19.8760 C.3   143  ARG143      0.0489
      7  CD        11.8310  -12.5080   18.6760 C.3   143  ARG143      0.2205
      8  NE        10.8830  -12.3090   17.5820 N.pl3 143  ARG143     -0.0865
      9  CZ        10.9350  -11.2990   16.7190 C.cat 143  ARG143      0.5346
     10  NH1       11.8840  -10.3790   16.8270 N.pl3 143  ARG143      0.1354
     11  NH2       10.0340  -11.2040   15.7510 N.pl3 143  ARG143      0.1354
     12  N          3.8420   -4.5550    9.7770 N.3   173  GLY173     -0.1210
     13  CA         5.0630   -5.1880   10.2380 C.3   173  GLY173      0.1956
     14  C          5.0570   -6.6870   10.0120 C.2   173  GLY173      0.2612
     15  O          4.3090   -7.1930    9.1750 O.2   173  GLY173     -0.2717
     16  N          5.8890   -7.3990   10.7670 N.am  174  SER174     -0.1952
     17  CA         6.0140   -8.8460   10.6310 C.3   174  SER174      0.1924
     18  C          4.7020   -9.5620   10.9290 C.2   174  SER174      0.2314
     19  O          4.3990  -10.5930   10.3290 O.2   174  SER174     -0.2863
     20  CB         7.1120   -9.3750   11.5550 C.3   174  SER174      0.2116
     21  OG         6.7990   -9.1180   12.9130 O.3   174  SER174     -0.2180
     22  N          2.6500  -10.0130    8.0190 N.3   177  ARG177     -0.1245
     23  CA         3.2250  -11.0600    7.1810 C.3   177  ARG177      0.1563
     24  C          2.9660  -12.4370    7.7880 C.2   177  ARG177      0.2260
     25  O          3.3350  -13.4580    7.2100 O.2   177  ARG177     -0.2867
     26  CB         4.7270  -10.8420    6.9800 C.3   177  ARG177      0.0307
     27  CG         5.0780   -9.5550    6.2490 C.3   177  ARG177      0.0489
     28  CD         6.5270   -9.5600    5.7820 C.3   177  ARG177      0.2205
     29  NE         7.4460   -9.9880    6.8330 N.pl3 177  ARG177     -0.0865
     30  CZ         8.0130   -9.1670    7.7090 C.cat 177  ARG177      0.5346
     31  NH1        7.7550   -7.8670    7.6630 N.pl3 177  ARG177      0.1354
     32  NH2        8.8370   -9.6430    8.6320 N.pl3 177  ARG177      0.1354
     33  N          6.7420  -11.2990   17.1110 N.3   182  SER182     -0.1202
     34  CA         7.0870   -9.9520   16.6670 C.3   182  SER182      0.2020
     35  C          7.9180   -9.2060   17.7060 C.2   182  SER182      0.2619
     36  O          7.8750   -9.5240   18.8930 O.2   182  SER182     -0.2717
     37  CB         5.8180   -9.1610   16.3480 C.3   182  SER182      0.2103
     38  OG         5.0930   -9.7700   15.2940 O.3   182  SER182     -0.2182
     39  N          8.6720   -8.2100   17.2480 N.am  183  GLY183     -0.1942
     40  CA         9.5080   -7.4120   18.1290 C.3   183  GLY183      0.2014
     41  C          8.7600   -6.2320   18.7190 C.2   183  GLY183      0.2638
     42  O          9.0760   -5.7670   19.8140 O.2   183  GLY183     -0.2714
     43  N          7.7630   -5.7490   17.9850 N.am  184  ASP184     -0.1971
     44  CA         6.9330   -4.6380   18.4360 C.3   184  ASP184      0.1709
     45  C          5.6120   -4.6260   17.6750 C.2   184  ASP184      0.2293
     46  O          5.3350   -5.5320   16.8890 O.2   184  ASP184     -0.2864
     47  CB         7.6700   -3.3050   18.2600 C.3   184  ASP184      0.1436
     48  CG         8.0130   -3.0060   16.8080 C.2   184  ASP184      0.3671
     49  OD1        7.7310   -3.8480   15.9320 O.co2 184  ASP184     -0.2456
     50  OD2        8.5720   -1.9220   16.5370 O.co2 184  ASP184     -0.2456
     51  N          3.3800   -2.2700   15.0540 N.3   186  ASP186     -0.1239
     52  CA         3.2910   -1.1070   14.1840 C.3   186  ASP186      0.1674
     53  C          1.8640   -0.9320   13.6810 C.2   186  ASP186      0.2266
     54  O          1.3660   -1.7420   12.9010 O.2   186  ASP186     -0.2867
     55  CB         4.2560   -1.2360   13.0040 C.3   186  ASP186      0.1410
     56  CG         4.7770    0.1090   12.5300 C.2   186  ASP186      0.3668
     57  OD1        4.5500    1.1160   13.2340 O.co2 186  ASP186     -0.2456
     58  OD2        5.4160    0.1620   11.4580 O.co2 186  ASP186     -0.2456
     59  N          1.1050    5.4090   13.4970 N.3   248  ARG248     -0.1245
     60  CA         1.3180    6.4290   12.4780 C.3   248  ARG248      0.1563
     61  C          0.0050    6.8890   11.8650 C.2   248  ARG248      0.2260
     62  O         -0.8010    6.0710   11.4240 O.2   248  ARG248     -0.2867
     63  CB         2.2390    5.9040   11.3750 C.3   248  ARG248      0.0307
     64  CG         3.6300    5.5270   11.8420 C.3   248  ARG248      0.0489
     65  CD         4.4270    4.9020   10.7100 C.3   248  ARG248      0.2205
     66  NE         5.2390    3.7780   11.1660 N.pl3 248  ARG248     -0.0865
     67  CZ         6.5410    3.8510   11.4190 C.cat 248  ARG248      0.5346
     68  NH1        7.1870    4.9970   11.2550 N.pl3 248  ARG248      0.1354
     69  NH2        7.1990    2.7750   11.8300 N.pl3 248  ARG248      0.1354
     70  N          4.5470   -0.3660    2.4990 N.3   261  TYR261     -0.1227
     71  CA         5.9090   -0.0620    2.9220 C.3   261  TYR261      0.1736
     72  C          6.2320   -0.6330    4.3010 C.2   261  TYR261      0.2595
     73  O          7.2600   -1.2840    4.4850 O.2   261  TYR261     -0.2718
     74  CB         6.1220    1.4540    2.9140 C.3   261  TYR261      0.0548
     75  CG         7.5240    1.9040    3.2550 C.ar  261  TYR261     -0.0200
     76  CD1        8.5280    1.9020    2.2950 C.ar  261  TYR261     -0.0009
     77  CD2        7.8390    2.3570    4.5300 C.ar  261  TYR261     -0.0009
     78  CE1        9.8110    2.3220    2.6000 C.ar  261  TYR261      0.0417
     79  CE2        9.1180    2.7800    4.8440 C.ar  261  TYR261      0.0417
     80  CZ        10.1000    2.7600    3.8750 C.ar  261  TYR261      0.1957
     81  OH        11.3740    3.1800    4.1830 O.3   261  TYR261     -0.2866
     82  N          5.3450   -0.3970    5.2640 N.am  262  PHE262     -0.1962
     83  CA         5.5970   -0.7970    6.6460 C.3   262  PHE262      0.1771
     84  C          5.1580   -2.2280    6.9510 C.2   262  PHE262      0.2620
     85  O          5.1590   -2.6500    8.1070 O.2   262  PHE262     -0.2715
     86  CB         4.9100    0.1740    7.6090 C.3   262  PHE262      0.0574
     87  CG         5.5640    1.5240    7.6690 C.ar  262  PHE262     -0.0200
     88  CD1        6.8110    1.6770    8.2520 C.ar  262  PHE262     -0.0042
     89  CD2        4.9350    2.6390    7.1420 C.ar  262  PHE262     -0.0042
     90  CE1        7.4200    2.9170    8.3070 C.ar  262  PHE262     -0.0003
     91  CE2        5.5370    3.8830    7.1960 C.ar  262  PHE262     -0.0003
     92  CZ         6.7810    4.0210    7.7800 C.ar  262  PHE262     -0.0000
     93  N          4.7830   -2.9710    5.9150 N.am  263  THR263     -0.1937
     94  CA         4.4890   -4.3920    6.0670 C.3   263  THR263      0.2028
     95  C          5.7490   -5.1950    5.7600 C.2   263  THR263      0.2643
     96  O          6.0020   -6.2390    6.3610 O.2   263  THR263     -0.2714
     97  CB         3.3320   -4.8410    5.1490 C.3   263  THR263      0.1808
     98  OG1        2.1310   -4.1560    5.5270 O.3   263  THR263     -0.2208
     99  CG2        3.1010   -6.3430    5.2570 C.3   263  THR263      0.0379
    100  N          6.5470   -4.6880    4.8270 N.am  264  GLY264     -0.1939
    101  CA         7.8080   -5.3150    4.4900 C.3   264  GLY264      0.2014
    102  C          7.6440   -6.6170    3.7280 C.2   264  GLY264      0.2640
    103  O          6.5810   -6.8730    3.1630 O.2   264  GLY264     -0.2714
    104  N          8.6870   -7.4440    3.7030 N.am  265  SER265     -0.1935
    105  CA         9.9560   -7.1540    4.3650 C.3   265  SER265      0.2055
    106  C         10.7750   -6.1110    3.6090 C.2   265  SER265      0.2643
    107  O         10.4060   -5.6920    2.5100 O.2   265  SER265     -0.2714
    108  CB        10.7760   -8.4350    4.5180 C.3   265  SER265      0.2130
    109  OG        11.3040   -8.8550    3.2700 O.3   265  SER265     -0.2179
    110  N         11.8750   -5.6810    4.2160 N.am  266  ASP266     -0.1971
    111  CA        12.7850   -4.7480    3.5650 C.3   266  ASP266      0.1709
    112  C         13.3420   -5.3700    2.3030 C.2   266  ASP266      0.2293
    113  O         13.4620   -4.7160    1.2670 O.2   266  ASP266     -0.2864
    114  CB        13.9280   -4.3580    4.4980 C.3   266  ASP266      0.1436
    115  CG        13.4900   -4.2650    5.9360 C.2   266  ASP266      0.3671
    116  OD1       12.8210   -3.2760    6.2670 O.co2 266  ASP266     -0.2456
    117  OD2       13.8260   -5.1600    6.7380 O.co2 266  ASP266     -0.2456
    118  N         10.5460   -5.2950   -0.1130 N.3   269  ASN269     -0.1240
    119  CA        10.3420   -3.9150   -0.5380 C.3   269  ASN269      0.1653
    120  C         11.3910   -3.4690   -1.5520 C.2   269  ASN269      0.2266
    121  O         11.0830   -2.7280   -2.4840 O.2   269  ASN269     -0.2867
    122  CB        10.3510   -2.9750    0.6680 C.3   269  ASN269      0.1155
    123  CG         9.0260   -2.9640    1.4100 C.2   269  ASN269      0.2627
    124  OD1        7.9700   -3.2040    0.8240 O.2   269  ASN269     -0.2716
    125  ND2        9.0760   -2.6760    2.7060 N.am  269  ASN269     -0.0877
    126  N         10.4810   -2.2930   -5.5490 N.3   273  ARG273     -0.1245
    127  CA        10.8740   -0.9860   -6.0620 C.3   273  ARG273      0.1563
    128  C         11.7020   -1.1450   -7.3330 C.2   273  ARG273      0.2260
    129  O         11.4510   -0.4740   -8.3300 O.2   273  ARG273     -0.2867
    130  CB        11.6580   -0.1940   -5.0120 C.3   273  ARG273      0.0307
    131  CG        10.8740    0.1170   -3.7450 C.3   273  ARG273      0.0489
    132  CD        11.5120    1.2510   -2.9580 C.3   273  ARG273      0.2205
    133  NE        12.8850    0.9560   -2.5590 N.pl3 273  ARG273     -0.0865
    134  CZ        13.2420    0.5650   -1.3400 C.cat 273  ARG273      0.5346
    135  NH1       12.3260    0.4180   -0.3930 N.pl3 273  ARG273      0.1354
    136  NH2       14.5170    0.3190   -1.0680 N.pl3 273  ARG273      0.1354
@<TRIPOS>BOND
     1   129   128    2
     2   128   127    1
     3   127   126    1
     4   127   130    1
     5   130   131    1
     6   131   132    1
     7   132   133    1
     8   133   134    2
     9   121   120    2
    10   120   119    1
    11   134   136    1
    12   134   135    1
    13   119   118    1
    14   119   122    1
    15   122   123    1
    16   124   123    2
    17   113   112    2
    18   123   125   am
    19    76    78   ar
    20    76    75   ar
    21   112   111    1
    22    70    71    1
    23   107   106    2
    24    78    80   ar
    25    74    71    1
    26    74    75    1
    27    71    72    1
    28   103   102    2
    29    75    77   ar
    30   109   108    1
    31   111   110    1
    32   111   114    1
    33   106   110   am
    34   106   105    1
    35   104   102   am
    36   104   105    1
    37   102   101    1
    38    80    81    1
    39    80    79   ar
    40    72    73    2
    41    72    82   am
    42   105   108    1
    43   101   100    1
    44   114   115    1
    45    77    79   ar
    46   100    95   am
    47    97    99    1
    48    97    98    1
    49    97    94    1
    50    82    83    1
    51    95    94    1
    52    95    96    2
    53    28    27    1
    54    28    29    1
    55    93    94    1
    56    93    84   am
    57   115   116   ar
    58   115   117   ar
    59    27    26    1
    60    83    84    1
    61    83    86    1
    62    29    30    2
    63    84    85    2
    64    26    23    1
    65    89    91   ar
    66    89    87   ar
    67    23    24    1
    68    23    22    1
    69    91    92   ar
    70    25    24    2
    71    86    87    1
    72    31    30    1
    73    87    88   ar
    74    30    32    1
    75    92    90   ar
    76    88    90   ar
    77    15    14    2
    78    12    13    1
    79    14    13    1
    80    14    16   am
    81    19    18    2
    82    17    16    1
    83    17    18    1
    84    17    20    1
    85    65    66    1
    86    65    64    1
    87    66    67    2
    88    68    67    1
    89    63    64    1
    90    63    60    1
    91    67    69    1
    92    62    61    2
    93    58    56   ar
    94    20    21    1
    95    61    60    1
    96    60    59    1
    97    56    55    1
    98    56    57   ar
    99    54    53    2
   100    55    52    1
   101    53    52    1
   102    52    51    1
   103    38    37    1
   104    11     9    1
   105    49    48   ar
   106    37    34    1
   107    50    48   ar
   108    34    33    1
   109    34    35    1
   110     9    10    1
   111     9     8    2
   112    48    47    1
   113    46    45    2
   114    39    35   am
   115    39    40    1
   116     8     7    1
   117    45    44    1
   118    35    36    2
   119    43    44    1
   120    43    41   am
   121    40    41    1
   122    47    44    1
   123     7     6    1
   124    41    42    2
   125     6     5    1
   126     5     2    1
   127     2     3    1
   128     2     1    1
   129     3     4    2
