@<TRIPOS>MOLECULE
tmp/4phfA00.pdb
 117 113 0 0 0
SMALL
GASTEIGER

@<TRIPOS>ATOM
      1  N        -23.6910    6.7470    7.3450 N.3    11  SER11      -0.1202
      2  CA       -24.8480    6.8090    6.4670 C.3    11  SER11       0.2020
      3  C        -24.5340    7.8260    5.3570 C.2    11  SER11       0.2619
      4  O        -23.8310    8.8060    5.5640 O.2    11  SER11      -0.2717
      5  CB       -26.1270    7.1290    7.2470 C.3    11  SER11       0.2103
      6  OG       -26.1390    8.5070    7.5070 O.3    11  SER11      -0.2182
      7  N        -24.9690    7.5110    4.1440 N.am   12  GLY12      -0.1942
      8  CA       -24.8220    8.4290    3.0240 C.3    12  GLY12       0.2014
      9  C        -23.6650    8.1350    2.0910 C.2    12  GLY12       0.2639
     10  O        -23.5410    8.7910    1.0470 O.2    12  GLY12      -0.2714
     11  N        -22.8500    7.1310    2.4320 N.am   13  VAL13      -0.1963
     12  CA       -21.6600    6.8050    1.6790 C.3    13  VAL13       0.1727
     13  C        -21.8890    5.9520    0.4560 C.2    13  VAL13       0.2617
     14  O        -21.0480    5.9770   -0.4400 O.2    13  VAL13      -0.2715
     15  CB       -20.5600    6.0870    2.5300 C.3    13  VAL13       0.0290
     16  CG1      -20.0750    6.9950    3.6770 C.3    13  VAL13       0.0023
     17  CG2      -20.9800    4.6620    2.9180 C.3    13  VAL13       0.0023
     18  N        -22.9500    5.1310    0.4580 N.am   14  GLY14      -0.1940
     19  CA       -23.3260    4.3840   -0.7100 C.3    14  GLY14       0.2014
     20  C        -23.4040    2.9030   -0.4700 C.2    14  GLY14       0.2639
     21  O        -23.3330    2.1680   -1.4420 O.2    14  GLY14      -0.2714
     22  N        -23.6180    2.4960    0.7780 N.am   15  LYS15      -0.1963
     23  CA       -23.5730    1.0590    1.1440 C.3    15  LYS15       0.1728
     24  C        -24.6870    0.3400    0.4510 C.2    15  LYS15       0.2617
     25  O        -24.4940   -0.6830   -0.1860 O.2    15  LYS15      -0.2715
     26  CB       -23.6960    0.8610    2.6710 C.3    15  LYS15       0.0311
     27  CG       -22.5500    1.4420    3.4830 C.3    15  LYS15       0.0038
     28  CD       -22.7470    1.2690    5.0330 C.3    15  LYS15       0.0206
     29  CE       -23.9980    1.8940    5.6260 C.3    15  LYS15       0.1093
     30  NZ       -24.0560    3.4100    5.4220 N.3    15  LYS15      -0.1314
     31  N        -25.8850    0.8820    0.5780 N.am   16  THR16      -0.1937
     32  CA       -27.0750    0.3130   -0.0990 C.3    16  THR16       0.2028
     33  C        -26.9700    0.2430   -1.6380 C.2    16  THR16       0.2642
     34  O        -27.3760   -0.7860   -2.2690 O.2    16  THR16      -0.2714
     35  CB       -28.3960    1.0370    0.3330 C.3    16  THR16       0.1808
     36  OG1      -28.5020    1.0180    1.7780 O.3    16  THR16      -0.2208
     37  CG2      -29.6270    0.3190   -0.2850 C.3    16  THR16       0.0379
     38  N        -26.4910    1.3320   -2.2230 N.am   17  SER17      -0.1949
     39  CA       -26.1730    1.4380   -3.6880 C.3    17  SER17       0.1924
     40  C        -25.1490    0.3980   -4.1550 C.2    17  SER17       0.2314
     41  O        -25.3120   -0.1830   -5.2010 O.2    17  SER17      -0.2863
     42  CB       -25.6810    2.8390   -4.0310 C.3    17  SER17       0.2116
     43  OG       -26.6130    3.8270   -3.5880 O.3    17  SER17      -0.2180
     44  N        -28.6740    0.6790  -10.7180 N.3    27  TYR27      -0.1227
     45  CA       -28.5350    1.8750   -9.8940 C.3    27  TYR27       0.1736
     46  C        -29.6130    2.8490  -10.3020 C.2    27  TYR27       0.2596
     47  O        -29.8170    3.0450  -11.5000 O.2    27  TYR27      -0.2718
     48  CB       -27.1780    2.5580  -10.0760 C.3    27  TYR27       0.0548
     49  CG       -27.1120    3.9290   -9.4310 C.ar   27  TYR27      -0.0200
     50  CD1      -26.6140    4.0970   -8.1430 C.ar   27  TYR27      -0.0009
     51  CD2      -27.5470    5.0740  -10.1140 C.ar   27  TYR27      -0.0009
     52  CE1      -26.5700    5.3540   -7.5520 C.ar   27  TYR27       0.0417
     53  CE2      -27.5040    6.3250   -9.5310 C.ar   27  TYR27       0.0417
     54  CZ       -27.0040    6.4550   -8.2580 C.ar   27  TYR27       0.1957
     55  OH       -26.9680    7.6720   -7.6840 O.3    27  TYR27      -0.2866
     56  N        -30.3140    3.4260   -9.3230 N.am   28  SER28      -0.1938
     57  CA       -31.2430    4.5860   -9.5520 C.3    28  SER28       0.2055
     58  C        -30.8950    5.6900   -8.5990 C.2    28  SER28       0.2643
     59  O        -30.6260    5.4330   -7.4300 O.2    28  SER28      -0.2714
     60  CB       -32.7170    4.2530   -9.2480 C.3    28  SER28       0.2130
     61  OG       -33.2330    3.3370  -10.1640 O.3    28  SER28      -0.2179
     62  N        -30.9530    6.9140   -9.0830 N.am   29  CYS29      -0.1967
     63  CA       -31.0760    8.0700   -8.1980 C.3    29  CYS29       0.1712
     64  C        -32.2640    7.8590   -7.2480 C.2    29  CYS29       0.2296
     65  O        -32.1190    8.0750   -6.0450 O.2    29  CYS29      -0.2864
     66  CB       -31.2850    9.3490   -9.0210 C.3    29  CYS29       0.0983
     67  SG       -30.0570    9.5390  -10.3600 S.3    29  CYS29      -0.0798
     68  N        -15.9550    5.0420   -2.1790 N.3   107  ASN107     -0.1225
     69  CA       -17.0380    5.1110   -3.1570 C.3   107  ASN107      0.1785
     70  C        -17.2300    6.5400   -3.6370 C.2   107  ASN107      0.2597
     71  O        -16.8160    7.4950   -2.9750 O.2   107  ASN107     -0.2718
     72  CB       -18.3550    4.5730   -2.4980 C.3   107  ASN107      0.1169
     73  CG       -19.4910    4.3320   -3.4780 C.2   107  ASN107      0.2627
     74  OD1      -20.7080    4.7090   -3.2180 O.2   107  ASN107     -0.2716
     75  ND2      -19.1730    3.7370   -4.5900 N.am  107  ASN107     -0.0877
     76  N        -17.8930    6.6180   -4.7910 N.am  108  LYS108     -0.1980
     77  CA       -18.3020    7.8230   -5.4870 C.3   108  LYS108      0.1596
     78  C        -17.1370    8.3850   -6.3160 C.2   108  LYS108      0.2287
     79  O        -17.0350    9.5870   -6.5000 O.2   108  LYS108     -0.2864
     80  CB       -18.9080    8.8400   -4.5690 C.3   108  LYS108      0.0298
     81  CG       -20.0270    8.3270   -3.6470 C.3   108  LYS108      0.0038
     82  CD       -20.9850    9.4260   -3.1870 C.3   108  LYS108      0.0206
     83  CE       -21.8910    8.9360   -2.0870 C.3   108  LYS108      0.1093
     84  NZ       -22.7000   10.0270   -1.4290 N.3   108  LYS108     -0.1314
     85  N        -16.6920    8.4530   -9.3160 N.3   110  ASP110     -0.1225
     86  CA       -17.2380    9.0850  -10.4900 C.3   110  ASP110      0.1805
     87  C        -17.4310   10.5880  -10.2670 C.2   110  ASP110      0.2597
     88  O        -17.7610   11.2440  -11.2180 O.2   110  ASP110     -0.2718
     89  CB       -18.6170    8.4870  -10.8660 C.3   110  ASP110      0.1424
     90  CG       -19.6580    8.6690   -9.7570 C.2   110  ASP110      0.3668
     91  OD1      -20.3640    9.7060   -9.7150 O.co2 110  ASP110     -0.2456
     92  OD2      -19.6930    7.7930   -8.8670 O.co2 110  ASP110     -0.2456
     93  N        -17.2320   11.1170   -9.0420 N.am  111  ALA111     -0.1979
     94  CA       -17.5880   12.5150   -8.7650 C.3   111  ALA111      0.1597
     95  C        -16.6110   13.4290   -9.4720 C.2   111  ALA111      0.2287
     96  O        -15.4770   13.0830   -9.6470 O.2   111  ALA111     -0.2864
     97  CB       -17.5540   12.8190   -7.2750 C.3   111  ALA111      0.0319
     98  N        -17.4420    3.1870   -7.9140 N.3   139  SER139     -0.1202
     99  CA       -18.6470    3.9020   -8.2160 C.3   139  SER139      0.2020
    100  C        -19.7650    2.9090   -8.3870 C.2   139  SER139      0.2619
    101  O        -19.8170    2.1960   -9.3830 O.2   139  SER139     -0.2717
    102  CB       -18.5900    4.7210   -9.5300 C.3   139  SER139      0.2103
    103  OG       -19.7800    5.5190   -9.6310 O.3   139  SER139     -0.2182
    104  N        -20.6360    2.8260   -7.3930 N.am  140  ALA140     -0.1965
    105  CA       -21.9110    2.1510   -7.5720 C.3   140  ALA140      0.1728
    106  C        -22.7210    2.7190   -8.7870 C.2   140  ALA140      0.2616
    107  O        -23.4010    1.9820   -9.5690 O.2   140  ALA140     -0.2715
    108  CB       -22.7270    2.3000   -6.2860 C.3   140  ALA140      0.0334
    109  N        -22.6740    4.0310   -8.9210 N.am  141  LYS141     -0.1977
    110  CA       -23.4520    4.7120   -9.9380 C.3   141  LYS141      0.1596
    111  C        -23.0530    4.3000  -11.3450 C.2   141  LYS141      0.2287
    112  O        -23.9370    3.8140  -12.1160 O.2   141  LYS141     -0.2864
    113  CB       -23.3640    6.2320   -9.7970 C.3   141  LYS141      0.0298
    114  CG       -24.1350    7.0110  -10.8810 C.3   141  LYS141      0.0038
    115  CD       -24.0440    8.4910  -10.6050 C.3   141  LYS141      0.0206
    116  CE       -24.7370    9.3120  -11.6880 C.3   141  LYS141      0.1093
    117  NZ       -23.8480    9.4110  -12.8500 N.3   141  LYS141     -0.1314
@<TRIPOS>BOND
     1   117   116    1
     2   112   111    2
     3   116   115    1
     4    47    46    2
     5   111   110    1
     6    88    87    2
     7   114   115    1
     8   114   113    1
     9    89    86    1
    10    89    90    1
    11    44    45    1
    12    86    87    1
    13    86    85    1
    14    67    66    1
    15    46    45    1
    16    46    56   am
    17    87    93   am
    18    61    60    1
    19    51    53   ar
    20    51    49   ar
    21    48    45    1
    22    48    49    1
    23   110   113    1
    24   110   109    1
    25    90    91   ar
    26    90    92   ar
    27    96    95    2
    28   103   102    1
    29   107   106    2
    30    57    56    1
    31    57    60    1
    32    57    58    1
    33    53    54   ar
    34   102    99    1
    35    95    94    1
    36    49    50   ar
    37   101   100    2
    38    62    58   am
    39    62    63    1
    40    93    94    1
    41    66    63    1
    42   109   106   am
    43   106   105    1
    44    94    97    1
    45    58    59    2
    46   100    99    1
    47   100   104   am
    48    54    55    1
    49    54    52   ar
    50    99    98    1
    51    63    64    1
    52    50    52   ar
    53   105   104    1
    54   105   108    1
    55    64    65    2
    56    79    78    2
    57    78    77    1
    58    77    76    1
    59    77    80    1
    60    41    40    2
    61    76    70   am
    62    75    73   am
    63    80    81    1
    64    40    39    1
    65    42    39    1
    66    42    43    1
    67    39    38    1
    68    81    82    1
    69    70    69    1
    70    70    71    2
    71    73    74    2
    72    73    72    1
    73    82    83    1
    74    69    72    1
    75    69    68    1
    76    34    33    2
    77    38    33   am
    78    83    84    1
    79    33    32    1
    80    21    20    2
    81    19    20    1
    82    19    18    1
    83    20    22   am
    84    14    13    2
    85    37    35    1
    86    25    24    2
    87    32    35    1
    88    32    31    1
    89    35    36    1
    90    24    31   am
    91    24    23    1
    92    13    18   am
    93    13    12    1
    94    22    23    1
    95    10     9    2
    96    23    26    1
    97    12    11    1
    98    12    15    1
    99     9    11   am
   100     9     8    1
   101    15    17    1
   102    15    16    1
   103    26    27    1
   104     8     7    1
   105    27    28    1
   106     7     3   am
   107    28    29    1
   108     3     4    2
   109     3     2    1
   110    30    29    1
   111     2     5    1
   112     2     1    1
   113     5     6    1
