@<TRIPOS>MOLECULE
tmp/4phgA00.pdb
 191 187 0 0 0
SMALL
GASTEIGER

@<TRIPOS>ATOM
      1  N          4.4540  -11.3550    4.3940 N.3    12  SER12      -0.1202
      2  CA         5.2310  -12.0870    3.3570 C.3    12  SER12       0.2020
      3  C          5.7220  -11.2020    2.2100 C.2    12  SER12       0.2619
      4  O          4.9490  -10.4430    1.5800 O.2    12  SER12      -0.2717
      5  CB         4.4090  -13.2380    2.7500 C.3    12  SER12       0.2103
      6  OG         4.2000  -14.2140    3.7480 O.3    12  SER12      -0.2182
      7  N          7.0120  -11.2840    1.9180 N.am   13  GLY13      -0.1942
      8  CA         7.5860  -10.5690    0.7820 C.3    13  GLY13       0.2014
      9  C          8.2010   -9.1870    1.0690 C.2    13  GLY13       0.2639
     10  O          8.7930   -8.5800    0.1500 O.2    13  GLY13      -0.2714
     11  N          8.0280   -8.6600    2.2930 N.am   14  VAL14      -0.1963
     12  CA         8.4590   -7.2830    2.5520 C.3    14  VAL14       0.1727
     13  C         10.0010   -7.0970    2.6220 C.2    14  VAL14       0.2617
     14  O         10.4830   -5.9830    2.5170 O.2    14  VAL14      -0.2715
     15  CB         7.7990   -6.6540    3.8310 C.3    14  VAL14       0.0290
     16  CG1        6.2790   -6.5230    3.7150 C.3    14  VAL14       0.0023
     17  CG2        8.2170   -7.3820    5.1150 C.3    14  VAL14       0.0023
     18  N         10.7140   -8.1770    2.9200 N.am   15  GLY15      -0.1940
     19  CA        12.1720   -8.1960    3.0330 C.3    15  GLY15       0.2014
     20  C         12.7420   -8.5120    4.3640 C.2    15  GLY15       0.2639
     21  O         13.9010   -8.1280    4.6200 O.2    15  GLY15      -0.2714
     22  N         11.9920   -9.2020    5.2270 N.am   16  LYS16      -0.1963
     23  CA        12.4790   -9.5230    6.5740 C.3    16  LYS16       0.1728
     24  C         13.7720  -10.3610    6.5740 C.2    16  LYS16       0.2617
     25  O         14.7940  -10.0350    7.2700 O.2    16  LYS16      -0.2715
     26  CB        11.4060  -10.2520    7.3710 C.3    16  LYS16       0.0311
     27  CG        10.0470   -9.5150    7.5160 C.3    16  LYS16       0.0038
     28  CD         9.0580  -10.3360    8.3310 C.3    16  LYS16       0.0206
     29  CE         8.6580  -11.6310    7.7250 C.3    16  LYS16       0.1093
     30  NZ         7.9480  -11.4160    6.3760 N.3    16  LYS16      -0.1314
     31  N         13.7420  -11.4610    5.8230 N.am   17  THR17      -0.1937
     32  CA        14.9270  -12.3600    5.7150 C.3    17  THR17       0.2028
     33  C         16.0870  -11.6080    5.0270 C.2    17  THR17       0.2642
     34  O         17.2430  -11.7350    5.4620 O.2    17  THR17      -0.2714
     35  CB        14.5550  -13.6180    4.9490 C.3    17  THR17       0.1808
     36  OG1       13.5440  -14.3100    5.6860 O.3    17  THR17      -0.2208
     37  CG2       15.7790  -14.5560    4.7210 C.3    17  THR17       0.0379
     38  N         15.7570  -10.7910    4.0140 N.am   18  SER18      -0.1949
     39  CA        16.7820  -10.0210    3.3150 C.3    18  SER18       0.1924
     40  C         17.4440   -9.0110    4.2730 C.2    18  SER18       0.2314
     41  O         18.6570   -8.8790    4.2720 O.2    18  SER18      -0.2863
     42  CB        16.2410   -9.3910    2.0440 C.3    18  SER18       0.2116
     43  OG        15.7090  -10.3690    1.1370 O.3    18  SER18      -0.2180
     44  N         22.7360  -10.6380    0.0310 N.3    28  TYR28      -0.1227
     45  CA        21.4490  -10.2680   -0.5330 C.3    28  TYR28       0.1736
     46  C         21.3210  -11.1130   -1.8210 C.2    28  TYR28       0.2596
     47  O         22.2900  -11.2800   -2.5190 O.2    28  TYR28      -0.2718
     48  CB        21.3540   -8.7570   -0.8750 C.3    28  TYR28       0.0548
     49  CG        20.1260   -8.4550   -1.7200 C.ar   28  TYR28      -0.0200
     50  CD1       18.8370   -8.4390   -1.1470 C.ar   28  TYR28      -0.0009
     51  CD2       20.2440   -8.2600   -3.0770 C.ar   28  TYR28      -0.0009
     52  CE1       17.7010   -8.1960   -1.9180 C.ar   28  TYR28       0.0417
     53  CE2       19.1370   -8.0700   -3.8780 C.ar   28  TYR28       0.0417
     54  CZ        17.8590   -8.0220   -3.2990 C.ar   28  TYR28       0.1957
     55  OH        16.7690   -7.8160   -4.1270 O.3    28  TYR28      -0.2866
     56  N         20.1290  -11.6310   -2.0960 N.am   29  SER29      -0.1938
     57  CA        19.7840  -12.2630   -3.3460 C.3    29  SER29       0.2055
     58  C         18.4680  -11.6530   -3.8400 C.2    29  SER29       0.2643
     59  O         17.5740  -11.3500   -3.0270 O.2    29  SER29      -0.2714
     60  CB        19.6000  -13.7660   -3.1460 C.3    29  SER29       0.2130
     61  OG        18.9980  -14.3700   -4.3020 O.3    29  SER29      -0.2179
     62  N         18.4300  -11.3810   -5.1470 N.am   30  CYS30      -0.1953
     63  CA        17.2370  -10.9720   -5.8830 C.3    30  CYS30       0.1843
     64  C         16.1160  -12.0000   -5.8680 C.2    30  CYS30       0.2625
     65  O         14.9760  -11.6570   -6.0580 O.2    30  CYS30      -0.2714
     66  CB        17.6050  -10.7990   -7.3740 C.3    30  CYS30       0.0997
     67  SG        18.7630   -9.4440   -7.7040 S.3    30  CYS30      -0.0797
     68  N         16.5060  -13.2600   -5.7460 N.am   31  GLN31      -0.1963
     69  CA        15.6450  -14.3900   -5.6940 C.3    31  GLN31       0.1733
     70  C         14.8940  -14.4020   -4.3720 C.2    31  GLN31       0.2616
     71  O         15.4360  -14.0250   -3.3360 O.2    31  GLN31      -0.2715
     72  CB        16.4890  -15.6990   -5.7620 C.3    31  GLN31       0.0408
     73  CG        16.6550  -16.3130   -7.1480 C.3    31  GLN31       0.0908
     74  CD        16.8300  -15.2870   -8.2530 C.2    31  GLN31       0.2608
     75  OE1       17.8180  -14.5230   -8.2990 O.2    31  GLN31      -0.2717
     76  NE2       15.8590  -15.2680   -9.1660 N.am   31  GLN31      -0.0878
     77  N         13.6540  -14.8630   -4.4340 N.am   32  TYR32      -0.1960
     78  CA        12.7920  -14.9370   -3.2830 C.3    32  TYR32       0.1771
     79  C         12.7130  -16.3810   -2.8840 C.2    32  TYR32       0.2619
     80  O         12.3160  -17.2070   -3.6920 O.2    32  TYR32      -0.2715
     81  CB        11.4070  -14.4070   -3.6310 C.3    32  TYR32       0.0574
     82  CG        10.3420  -14.4950   -2.5320 C.ar   32  TYR32      -0.0198
     83  CD1       10.6640  -14.4580   -1.1550 C.ar   32  TYR32      -0.0009
     84  CD2        9.0020  -14.5800   -2.8780 C.ar   32  TYR32      -0.0009
     85  CE1        9.6770  -14.5220   -0.1690 C.ar   32  TYR32       0.0417
     86  CE2        8.0180  -14.6520   -1.9030 C.ar   32  TYR32       0.0417
     87  CZ         8.3500  -14.6210   -0.5550 C.ar   32  TYR32       0.1957
     88  OH         7.3170  -14.7270    0.3880 O.3    32  TYR32      -0.2866
     89  N         13.0830  -16.6780   -1.6420 N.am   33  ILE33      -0.1963
     90  CA        12.8120  -17.9800   -1.0130 C.3    33  ILE33       0.1727
     91  C         12.0270  -17.7190    0.2900 C.2    33  ILE33       0.2616
     92  O         12.5880  -17.1430    1.2570 O.2    33  ILE33      -0.2715
     93  CB        14.1190  -18.8170   -0.7560 C.3    33  ILE33       0.0290
     94  CG1       14.8820  -18.9690   -2.0800 C.3    33  ILE33       0.0022
     95  CG2       13.8220  -20.1930   -0.1090 C.3    33  ILE33       0.0023
     96  CD1       16.2000  -19.6890   -1.8990 C.3    33  ILE33       0.0001
     97  N         10.7290  -18.0890    0.2650 N.am   34  ALA34      -0.1963
     98  CA         9.8360  -17.9190    1.4140 C.3    34  ALA34       0.1728
     99  C         10.4100  -18.6590    2.6050 C.2    34  ALA34       0.2616
    100  O         10.9480  -19.7600    2.4880 O.2    34  ALA34      -0.2715
    101  CB         8.3980  -18.3940    1.1080 C.3    34  ALA34       0.0334
    102  N         10.2720  -18.0520    3.7710 N.am   35  THR35      -0.1951
    103  CA        10.8660  -18.5960    4.9460 C.3    35  THR35       0.1897
    104  C          9.9320  -19.7090    5.4420 C.2    35  THR35       0.2313
    105  O          8.7370  -19.4980    5.5910 O.2    35  THR35      -0.2863
    106  CB        11.1010  -17.4950    5.9970 C.3    35  THR35       0.1794
    107  OG1       11.9500  -16.4760    5.4060 O.3    35  THR35      -0.2208
    108  CG2       11.7170  -18.0710    7.2860 C.3    35  THR35       0.0378
    109  N         13.6090  -14.7990   12.7280 N.3    59  ASP59      -0.1225
    110  CA        12.9440  -14.6490   11.4490 C.3    59  ASP59       0.1805
    111  C         12.0620  -15.9050   11.1830 C.2    59  ASP59       0.2598
    112  O         12.4890  -17.0290   11.4010 O.2    59  ASP59      -0.2718
    113  CB        14.0460  -14.4830   10.3770 C.3    59  ASP59       0.1424
    114  CG        13.4890  -14.2370    9.0030 C.2    59  ASP59       0.3668
    115  OD1       12.5290  -13.4290    8.9400 O.co2  59  ASP59      -0.2456
    116  OD2       14.0800  -14.7890    8.0270 O.co2  59  ASP59      -0.2456
    117  N         10.8020  -15.6990   10.8380 N.am   60  THR60      -0.1939
    118  CA         9.9370  -16.7530   10.4070 C.3    60  THR60       0.2028
    119  C          9.0410  -16.2640    9.2330 C.2    60  THR60       0.2642
    120  O          9.2510  -15.2080    8.6640 O.2    60  THR60      -0.2714
    121  CB         9.1020  -17.2890   11.5960 C.3    60  THR60       0.1808
    122  OG1        8.4250  -18.4400   11.1700 O.3    60  THR60      -0.2208
    123  CG2        8.0680  -16.2040   12.1590 C.3    60  THR60       0.0379
    124  N          8.1060  -17.0930    8.8150 N.am   61  ALA61      -0.1963
    125  CA         7.2590  -16.7450    7.7230 C.3    61  ALA61       0.1728
    126  C          6.3780  -15.5230    8.0210 C.2    61  ALA61       0.2616
    127  O          5.8130  -15.4070    9.1080 O.2    61  ALA61      -0.2715
    128  CB         6.4110  -17.9390    7.3470 C.3    61  ALA61       0.0334
    129  N          6.2150  -14.6480    7.0170 N.am   62  GLY62      -0.1955
    130  CA         5.3930  -13.4340    7.1270 C.3    62  GLY62       0.1869
    131  C          3.9310  -13.6210    7.3780 C.2    62  GLY62       0.2309
    132  O          3.3880  -13.0490    8.2990 O.2    62  GLY62      -0.2863
    133  N         11.0840   -0.9400    4.0340 N.3   121  ASN121     -0.1225
    134  CA        12.0910   -1.5490    3.1700 C.3   121  ASN121      0.1785
    135  C         11.7920   -1.3330    1.7260 C.2   121  ASN121      0.2597
    136  O         10.6460   -1.1060    1.3330 O.2   121  ASN121     -0.2718
    137  CB        12.1340   -3.0640    3.4390 C.3   121  ASN121      0.1169
    138  CG        13.3170   -3.7250    2.8130 C.2   121  ASN121      0.2627
    139  OD1       13.2480   -4.8800    2.2900 O.2   121  ASN121     -0.2716
    140  ND2       14.4160   -3.0400    2.8840 N.am  121  ASN121     -0.0877
    141  N         12.8340   -1.5300    0.9190 N.am  122  LYS122     -0.1980
    142  CA        12.7320   -1.4990   -0.5670 C.3   122  LYS122      0.1596
    143  C         12.7880   -0.0940   -1.0590 C.2   122  LYS122      0.2287
    144  O         12.2520    0.1950   -2.1480 O.2   122  LYS122     -0.2864
    145  CB        11.5100   -2.2520   -1.1320 C.3   122  LYS122      0.0298
    146  CG        11.4250   -3.6930   -0.6580 C.3   122  LYS122      0.0038
    147  CD        10.7410   -4.6290   -1.6640 C.3   122  LYS122      0.0206
    148  CE        10.4410   -5.9910   -1.0750 C.3   122  LYS122      0.1093
    149  NZ         9.5550   -6.8910   -1.8770 N.3   122  LYS122     -0.1314
    150  N         15.0900    1.4230   -2.4280 N.3   124  ASP124     -0.1225
    151  CA        15.7410    1.4590   -3.7620 C.3   124  ASP124      0.1805
    152  C         14.7940    1.3040   -4.9460 C.2   124  ASP124      0.2598
    153  O         15.2230    1.4780   -6.0800 O.2   124  ASP124     -0.2718
    154  CB        16.7820    0.3540   -3.8460 C.3   124  ASP124      0.1424
    155  CG        16.1270   -1.0360   -3.6960 C.2   124  ASP124      0.3668
    156  OD1       15.8710   -1.4470   -2.5370 O.co2 124  ASP124     -0.2456
    157  OD2       15.7750   -1.6250   -4.7360 O.co2 124  ASP124     -0.2456
    158  N         13.5300    0.9590   -4.7090 N.am  125  ALA125     -0.1966
    159  CA        12.5650    0.5640   -5.7740 C.3   125  ALA125      0.1728
    160  C         12.3290    1.6430   -6.7950 C.2   125  ALA125      0.2616
    161  O         12.4070    2.8150   -6.4860 O.2   125  ALA125     -0.2715
    162  CB        11.2050    0.1970   -5.1730 C.3   125  ALA125      0.0334
    163  N         11.9120    1.2550   -7.9910 N.am  126  GLU126     -0.1977
    164  CA        11.5280    2.2830   -8.9710 C.3   126  GLU126      0.1602
    165  C         10.5180    3.2600   -8.2990 C.2   126  GLU126      0.2287
    166  O          9.5630    2.8160   -7.6380 O.2   126  GLU126     -0.2864
    167  CB        10.9380    1.6470  -10.2320 C.3   126  GLU126      0.0415
    168  CG        11.9550    1.1040  -11.2180 C.3   126  GLU126      0.1163
    169  CD        12.5030    2.2070  -12.1330 C.2   126  GLU126      0.3649
    170  OE1       12.2940    3.3770  -11.7960 O.co2 126  GLU126     -0.2457
    171  OE2       13.1220    1.9310  -13.1820 O.co2 126  GLU126     -0.2457
    172  N         17.0740   -0.2660    2.4480 N.3   153  SER153     -0.1202
    173  CA        17.1990   -1.1830    1.3470 C.3   153  SER153      0.2020
    174  C         18.1660   -2.2930    1.7760 C.2   153  SER153      0.2619
    175  O         19.3990   -2.0470    1.9940 O.2   153  SER153     -0.2717
    176  CB        17.7280   -0.4280    0.1110 C.3   153  SER153      0.2103
    177  OG        17.8680   -1.3320   -0.9880 O.3   153  SER153     -0.2182
    178  N         17.6290   -3.4910    1.9510 N.am  154  ALA154     -0.1965
    179  CA        18.4410   -4.7100    2.1050 C.3   154  ALA154      0.1728
    180  C         19.2700   -4.9060    0.8410 C.2   154  ALA154      0.2616
    181  O         20.4340   -5.2730    0.8980 O.2   154  ALA154     -0.2715
    182  CB        17.5750   -5.9040    2.3210 C.3   154  ALA154      0.0334
    183  N         18.6640   -4.6030   -0.2940 N.am  155  LYS155     -0.1977
    184  CA        19.3610   -4.7110   -1.5760 C.3   155  LYS155      0.1596
    185  C         20.6180   -3.8460   -1.6900 C.2   155  LYS155      0.2287
    186  O         21.6650   -4.3710   -1.9480 O.2   155  LYS155     -0.2864
    187  CB        18.4520   -4.4190   -2.7760 C.3   155  LYS155      0.0298
    188  CG        19.2420   -4.3750   -4.0800 C.3   155  LYS155      0.0038
    189  CD        18.4470   -4.5430   -5.3560 C.3   155  LYS155      0.0206
    190  CE        19.3770   -4.4770   -6.5940 C.3   155  LYS155      0.1093
    191  NZ        19.8840   -3.1020   -6.8260 N.3   155  LYS155     -0.1314
@<TRIPOS>BOND
     1   171   169   ar
     2   169   170   ar
     3   169   168    1
     4   168   167    1
     5   167   164    1
     6    76    74   am
     7   164   165    1
     8   164   163    1
     9    75    74    2
    10   165   166    2
    11    74    73    1
    12   163   160   am
    13    67    66    1
    14    66    63    1
    15    73    72    1
    16   191   190    1
    17   160   161    2
    18   160   159    1
    19   190   189    1
    20   153   152    2
    21    65    64    2
    22    63    64    1
    23    63    62    1
    24    64    68   am
    25   159   162    1
    26   159   158    1
    27    72    69    1
    28    68    69    1
    29    69    70    1
    30   189   188    1
    31    62    58   am
    32   152   158   am
    33   152   151    1
    34   157   155   ar
    35    77    70   am
    36    77    78    1
    37    70    71    2
    38    61    60    1
    39    55    54    1
    40   188   187    1
    41    53    54   ar
    42    53    51   ar
    43   154   151    1
    44   154   155    1
    45    58    57    1
    46    58    59    2
    47   151   150    1
    48   155   156   ar
    49    80    79    2
    50    81    78    1
    51    81    82    1
    52    57    60    1
    53    57    56    1
    54    54    52   ar
    55    78    79    1
    56    51    49   ar
    57    79    89   am
    58    84    82   ar
    59    84    86   ar
    60   187   184    1
    61    82    83   ar
    62    47    46    2
    63   144   143    2
    64    56    46   am
    65    94    96    1
    66    94    93    1
    67   186   185    2
    68    52    50   ar
    69    86    87   ar
    70   149   148    1
    71    46    45    1
    72    49    50   ar
    73    49    48    1
    74   185   184    1
    75   147   148    1
    76   147   146    1
    77    89    90    1
    78   184   183    1
    79    83    85   ar
    80   145   146    1
    81   145   142    1
    82   143   142    1
    83    90    93    1
    84    90    91    1
    85   177   176    1
    86    48    45    1
    87    93    95    1
    88   142   141    1
    89    87    85   ar
    90    87    88    1
    91    45    44    1
    92   183   180   am
    93   176   173    1
    94    10     9    2
    95    97    91   am
    96    97    98    1
    97    91    92    2
    98     8     9    1
    99     8     7    1
   100   180   181    2
   101   180   179    1
   102   141   135   am
   103     9    11   am
   104   101    98    1
   105    43    42    1
   106   136   135    2
   107   173   174    1
   108   173   172    1
   109    98    99    1
   110     4     3    2
   111   135   134    1
   112   174   178   am
   113   174   175    2
   114     7     3   am
   115   178   179    1
   116    42    39    1
   117   179   182    1
   118     3     2    1
   119   139   138    2
   120    11    12    1
   121   100    99    2
   122    14    13    2
   123    12    13    1
   124    12    15    1
   125    99   102   am
   126    13    18   am
   127     5     2    1
   128     5     6    1
   129   138   140   am
   130   138   137    1
   131    18    19    1
   132    19    20    1
   133   134   137    1
   134   134   133    1
   135    39    38    1
   136    39    40    1
   137     2     1    1
   138    16    15    1
   139   102   103    1
   140    15    17    1
   141    38    33   am
   142    41    40    2
   143    20    21    2
   144    20    22   am
   145    37    35    1
   146   103   104    1
   147   103   106    1
   148    35    36    1
   149    35    32    1
   150    33    34    2
   151    33    32    1
   152    22    23    1
   153   107   106    1
   154   104   105    2
   155    32    31    1
   156    31    24   am
   157   106   108    1
   158    30    29    1
   159    23    24    1
   160    23    26    1
   161    24    25    2
   162   129   130    1
   163   129   126   am
   164   130   131    1
   165   128   125    1
   166    26    27    1
   167   131   132    2
   168    27    28    1
   169   125   126    1
   170   125   124    1
   171    29    28    1
   172   126   127    2
   173   116   114   ar
   174   120   119    2
   175   124   119   am
   176   115   114   ar
   177   114   113    1
   178   119   118    1
   179   113   110    1
   180   118   117    1
   181   118   121    1
   182   117   111   am
   183   122   121    1
   184   111   112    2
   185   111   110    1
   186   110   109    1
   187   121   123    1
