@<TRIPOS>MOLECULE
tmp/4phhA00.pdb
 188 182 0 0 0
SMALL
GASTEIGER

@<TRIPOS>ATOM
      1  N         31.9260   -4.4730   39.7230 N.3    10  SER10      -0.1202
      2  CA        32.6980   -4.0100   38.5570 C.3    10  SER10       0.2020
      3  C         33.8890   -3.1690   39.0000 C.2    10  SER10       0.2619
      4  O         33.7810   -2.2670   39.8110 O.2    10  SER10      -0.2717
      5  CB        31.8130   -3.2120   37.6040 C.3    10  SER10       0.2103
      6  OG        32.4910   -2.9120   36.3710 O.3    10  SER10      -0.2182
      7  N         35.0490   -3.5140   38.4960 N.am   11  GLY11      -0.1942
      8  CA        36.2200   -2.6960   38.6920 C.3    11  GLY11       0.2014
      9  C         37.1400   -3.1950   39.7540 C.2    11  GLY11       0.2639
     10  O         38.2600   -2.6890   39.8360 O.2    11  GLY11      -0.2714
     11  N         36.6930   -4.1740   40.5650 N.am   12  VAL12      -0.1963
     12  CA        37.4730   -4.5990   41.7500 C.3    12  VAL12       0.1727
     13  C         38.7240   -5.3900   41.3800 C.2    12  VAL12       0.2617
     14  O         39.6460   -5.5240   42.2060 O.2    12  VAL12      -0.2715
     15  CB        36.6440   -5.4510   42.8000 C.3    12  VAL12       0.0290
     16  CG1       35.4770   -4.6590   43.3640 C.3    12  VAL12       0.0023
     17  CG2       36.1750   -6.8150   42.2410 C.3    12  VAL12       0.0023
     18  N         38.7350   -5.9470   40.1740 N.am   13  GLY13      -0.1940
     19  CA        39.8660   -6.6840   39.6700 C.3    13  GLY13       0.2014
     20  C         39.7480   -8.2040   39.5180 C.2    13  GLY13       0.2639
     21  O         40.7610   -8.8710   39.5050 O.2    13  GLY13      -0.2714
     22  N         38.5430   -8.7400   39.3400 N.am   14  LYS14      -0.1963
     23  CA        38.3100  -10.2000   39.1880 C.3    14  LYS14       0.1728
     24  C         39.0050  -10.8510   37.9960 C.2    14  LYS14       0.2617
     25  O         39.5970  -11.9220   38.1380 O.2    14  LYS14      -0.2715
     26  CB        36.7950  -10.5040   39.0560 C.3    14  LYS14       0.0311
     27  CG        35.9660  -10.0440   40.2600 C.3    14  LYS14       0.0038
     28  CD        34.4660  -10.2980   40.0800 C.3    14  LYS14       0.0206
     29  CE        33.8000   -9.4560   38.9990 C.3    14  LYS14       0.1093
     30  NZ        33.9910   -7.9790   39.1890 N.3    14  LYS14      -0.1314
     31  N         38.8650  -10.2210   36.8250 N.am   15  THR15      -0.1937
     32  CA        39.4330  -10.6950   35.5870 C.3    15  THR15       0.2028
     33  C         40.9580  -10.6120   35.7560 C.2    15  THR15       0.2642
     34  O         41.6710  -11.5990   35.4980 O.2    15  THR15      -0.2714
     35  CB        38.9010   -9.8870   34.3630 C.3    15  THR15       0.1808
     36  OG1       37.4540   -9.8420   34.3540 O.3    15  THR15      -0.2208
     37  CG2       39.3430  -10.5140   33.0330 C.3    15  THR15       0.0379
     38  N         41.4650   -9.4860   36.2600 N.am   16  SER16      -0.1949
     39  CA        42.8990   -9.3750   36.4980 C.3    16  SER16       0.1924
     40  C         43.4120  -10.4530   37.4210 C.2    16  SER16       0.2314
     41  O         44.5010  -10.9570   37.2300 O.2    16  SER16      -0.2863
     42  CB        43.2800   -8.0650   37.1380 C.3    16  SER16       0.2116
     43  OG        42.8230   -6.9770   36.3960 O.3    16  SER16      -0.2180
     44  N         49.4770   -9.5460   33.5650 N.3    26  TYR26      -0.1227
     45  CA        48.6120   -8.4350   33.9380 C.3    26  TYR26       0.1736
     46  C         48.6450   -7.2980   32.8870 C.2    26  TYR26       0.2596
     47  O         49.6740   -7.0150   32.2540 O.2    26  TYR26      -0.2718
     48  CB        48.9710   -7.8930   35.3370 C.3    26  TYR26       0.0548
     49  CG        48.3250   -6.5460   35.6510 C.ar   26  TYR26      -0.0200
     50  CD1       47.0800   -6.4670   36.2790 C.ar   26  TYR26      -0.0009
     51  CD2       48.9490   -5.3580   35.2920 C.ar   26  TYR26      -0.0009
     52  CE1       46.4860   -5.2400   36.5520 C.ar   26  TYR26       0.0417
     53  CE2       48.3660   -4.1240   35.5490 C.ar   26  TYR26       0.0417
     54  CZ        47.1350   -4.0660   36.1820 C.ar   26  TYR26       0.1957
     55  OH        46.5780   -2.8300   36.4350 O.3    26  TYR26      -0.2866
     56  N         47.5060   -6.6340   32.7400 N.am   27  SER27      -0.1938
     57  CA        47.3390   -5.5480   31.8050 C.3    27  SER27       0.2055
     58  C         46.5670   -4.3720   32.4460 C.2    27  SER27       0.2643
     59  O         45.5490   -4.5560   33.0960 O.2    27  SER27      -0.2714
     60  CB        46.5900   -6.1010   30.5950 C.3    27  SER27       0.2130
     61  OG        46.5060   -5.1370   29.5820 O.3    27  SER27      -0.2179
     62  N         47.0520   -3.1550   32.2660 N.am   28  CYS28      -0.1953
     63  CA        46.4250   -1.9680   32.8750 C.3    28  CYS28       0.1843
     64  C         45.0440   -1.6680   32.2940 C.2    28  CYS28       0.2625
     65  O         44.2450   -0.9370   32.8940 O.2    28  CYS28      -0.2714
     66  CB        47.3090   -0.7330   32.6560 C.3    28  CYS28       0.0997
     67  SG        48.7350   -0.5830   33.7570 S.3    28  CYS28      -0.0797
     68  N         44.7740   -2.2140   31.1130 N.am   29  GLN29      -0.1963
     69  CA        43.6390   -1.7780   30.3330 C.3    29  GLN29       0.1733
     70  C         42.3570   -2.4670   30.7740 C.2    29  GLN29       0.2616
     71  O         42.1890   -3.6860   30.5980 O.2    29  GLN29      -0.2715
     72  CB        43.8930   -2.0040   28.8420 C.3    29  GLN29       0.0408
     73  CG        42.9940   -1.1930   27.9240 C.3    29  GLN29       0.0908
     74  CD        42.9310    0.2790   28.3040 C.2    29  GLN29       0.2608
     75  OE1       43.9640    0.9400   28.4840 O.2    29  GLN29      -0.2717
     76  NE2       41.7120    0.7970   28.4350 N.am   29  GLN29      -0.0878
     77  N         41.4550   -1.6630   31.3440 N.am   30  TYR30      -0.1960
     78  CA        40.1170   -2.1170   31.6990 C.3    30  TYR30       0.1771
     79  C         39.3530   -2.6050   30.4510 C.2    30  TYR30       0.2619
     80  O         39.1150   -1.8240   29.4920 O.2    30  TYR30      -0.2715
     81  CB        39.3380   -1.0060   32.4250 C.3    30  TYR30       0.0574
     82  CG        37.9170   -1.3980   32.8350 C.ar   30  TYR30      -0.0198
     83  CD1       36.8080   -0.6550   32.3980 C.ar   30  TYR30      -0.0009
     84  CD2       37.6810   -2.5120   33.6610 C.ar   30  TYR30      -0.0009
     85  CE1       35.5170   -1.0060   32.7650 C.ar   30  TYR30       0.0417
     86  CE2       36.3930   -2.8610   34.0440 C.ar   30  TYR30       0.0417
     87  CZ        35.3150   -2.1130   33.5850 C.ar   30  TYR30       0.1957
     88  OH        34.0330   -2.4470   33.9510 O.3    30  TYR30      -0.2866
     89  N         39.0080   -3.9020   30.4760 N.am   31  LYS31      -0.1963
     90  CA        38.1370   -4.5400   29.4800 C.3    31  LYS31       0.1728
     91  C         36.9570   -5.2290   30.2080 C.2    31  LYS31       0.2616
     92  O         37.1190   -6.3450   30.7170 O.2    31  LYS31      -0.2715
     93  CB        38.9370   -5.5550   28.6350 C.3    31  LYS31       0.0311
     94  CG        39.9060   -4.7410   27.7350 C.3    31  LYS31       0.0038
     95  CD        40.5340   -5.7380   26.7650 C.3    31  LYS31       0.0206
     96  CE        42.0390   -5.4550   26.7360 C.3    31  LYS31       0.1093
     97  NZ        42.4840   -5.4340   28.1790 N.3    31  LYS31      -0.1314
     98  N         35.7830   -4.5710   30.2340 N.am   32  ALA32      -0.1963
     99  CA        34.6040   -5.0670   30.9950 C.3    32  ALA32       0.1728
    100  C         34.2160   -6.5130   30.6590 C.2    32  ALA32       0.2616
    101  O         34.0170   -6.8590   29.5110 O.2    32  ALA32      -0.2715
    102  CB        33.3850   -4.1800   30.7950 C.3    32  ALA32       0.0334
    103  N         34.0950   -7.3490   31.6830 N.am   33  THR33      -0.1951
    104  CA        33.6260   -8.7140   31.5030 C.3    33  THR33       0.1897
    105  C         32.0950   -8.7940   31.2600 C.2    33  THR33       0.2313
    106  O         31.2770   -8.1480   31.9580 O.2    33  THR33      -0.2863
    107  CB        33.9250   -9.5740   32.7300 C.3    33  THR33       0.1794
    108  OG1       35.3040   -9.3750   33.1140 O.3    33  THR33      -0.2208
    109  CG2       33.6000  -11.0530   32.4450 C.3    33  THR33       0.0378
    110  N         33.0670  -13.5690   36.1510 N.3    58  THR58      -0.1218
    111  CA        31.6890  -13.1410   35.9930 C.3    58  THR58       0.1862
    112  C         31.6570  -11.6420   35.8290 C.2    58  THR58       0.2287
    113  O         32.5900  -10.9630   36.1840 O.2    58  THR58      -0.2866
    114  CB        30.8060  -13.5520   37.2270 C.3    58  THR58       0.1770
    115  OG1       31.2820  -12.9210   38.4480 O.3    58  THR58      -0.2211
    116  CG2       30.7970  -15.0640   37.4010 C.3    58  THR58       0.0375
    117  N         30.6610   -7.8790   36.7460 N.3    60  GLY60      -0.1210
    118  CA        30.2230   -7.1040   37.8990 C.3    60  GLY60       0.1956
    119  C         29.0610   -6.1580   37.6070 C.2    60  GLY60       0.2611
    120  O         28.2410   -5.8770   38.4890 O.2    60  GLY60      -0.2717
    121  N         29.0070   -5.6550   36.3790 N.am   61  GLN61      -0.1979
    122  CA        27.9210   -4.7830   35.9270 C.3    61  GLN61       0.1601
    123  C         26.6180   -5.5660   35.7160 C.2    61  GLN61       0.2287
    124  O         26.6040   -6.5390   34.9600 O.2    61  GLN61      -0.2864
    125  CB        28.3010   -4.1340   34.5910 C.3    61  GLN61       0.0394
    126  CG        29.4330   -3.1240   34.6450 C.3    61  GLN61       0.0908
    127  CD        29.6750   -2.4630   33.3010 C.2    61  GLN61       0.2608
    128  OE1       30.8070   -2.2890   32.8650 O.2    61  GLN61      -0.2717
    129  NE2       28.6150   -2.1030   32.6420 N.am   61  GLN61      -0.0878
    130  N         41.4540   -6.5440   47.0450 N.3   117  ASN117     -0.1225
    131  CA        42.4220   -6.3650   45.9830 C.3   117  ASN117      0.1785
    132  C         42.8490   -4.9120   45.8030 C.2   117  ASN117      0.2597
    133  O         42.1910   -4.0000   46.3000 O.2   117  ASN117     -0.2718
    134  CB        41.8300   -6.9320   44.7020 C.3   117  ASN117      0.1169
    135  CG        42.8410   -7.0670   43.5770 C.2   117  ASN117      0.2627
    136  OD1       42.5530   -6.6860   42.4360 O.2   117  ASN117     -0.2716
    137  ND2       44.0290   -7.6450   43.8830 N.am  117  ASN117     -0.0877
    138  N         43.9730   -4.7240   45.1110 N.am  118  LYS118     -0.1980
    139  CA        44.5410   -3.4120   44.7570 C.3   118  LYS118      0.1596
    140  C         45.3620   -2.7960   45.9050 C.2   118  LYS118      0.2287
    141  O         45.4340   -1.5720   46.0180 O.2   118  LYS118     -0.2864
    142  CB        43.4760   -2.4020   44.2240 C.3   118  LYS118      0.0298
    143  CG        42.6090   -2.8790   43.0670 C.3   118  LYS118      0.0038
    144  CD        42.0410   -1.7160   42.2850 C.3   118  LYS118      0.0206
    145  CE        41.0660   -2.1950   41.2180 C.3   118  LYS118      0.1093
    146  NZ        40.4100   -1.0510   40.5200 N.3   118  LYS118     -0.1314
    147  N         48.5370   -2.5750   46.1700 N.3   120  ASP120     -0.1225
    148  CA        49.6420   -1.8270   45.5880 C.3   120  ASP120      0.1805
    149  C         49.3530   -0.3410   45.3910 C.2   120  ASP120      0.2597
    150  O         50.2660    0.4210   45.0450 O.2   120  ASP120     -0.2718
    151  CB        49.9300   -2.3830   44.1990 C.3   120  ASP120      0.1424
    152  CG        48.7580   -2.1800   43.2550 C.2   120  ASP120      0.3668
    153  OD1       47.7480   -2.8760   43.4590 O.co2 120  ASP120     -0.2456
    154  OD2       48.8180   -1.3040   42.3490 O.co2 120  ASP120     -0.2456
    155  N         48.0890    0.0630   45.5150 N.am  121  ALA121     -0.1979
    156  CA        47.7040    1.4560   45.2710 C.3   121  ALA121      0.1597
    157  C         48.1940    2.3560   46.4120 C.2   121  ALA121      0.2287
    158  O         48.4810    1.8700   47.5120 O.2   121  ALA121     -0.2864
    159  CB        46.1930    1.5630   45.0970 C.3   121  ALA121      0.0319
    160  N         44.7180    6.7770   48.6270 N.3   125  LYS125     -0.1245
    161  CA        43.5240    6.2970   47.9220 C.3   125  LYS125      0.1561
    162  C         42.8330    5.1100   48.6310 C.2   125  LYS125      0.2260
    163  O         41.6760    4.7760   48.3110 O.2   125  LYS125     -0.2867
    164  CB        43.8950    5.8610   46.4910 C.3   125  LYS125      0.0271
    165  CG        44.3570    6.9710   45.5420 C.3   125  LYS125      0.0035
    166  CD        44.8350    6.4170   44.1860 C.3   125  LYS125      0.0206
    167  CE        46.2920    5.9390   44.2170 C.3   125  LYS125      0.1093
    168  NZ        46.7870    5.1630   43.0260 N.3   125  LYS125     -0.1314
    169  N         47.3310   -8.1280   45.2680 N.3   149  SER149     -0.1202
    170  CA        47.5060   -7.2350   44.1500 C.3   149  SER149      0.2020
    171  C         47.6770   -8.0930   42.9430 C.2   149  SER149      0.2619
    172  O         48.6780   -8.7640   42.8100 O.2   149  SER149     -0.2717
    173  CB        48.7230   -6.3430   44.3330 C.3   149  SER149      0.2103
    174  OG        49.0590   -5.6410   43.1470 O.3   149  SER149     -0.2182
    175  N         46.6880   -8.1130   42.0670 N.am  150  ALA150     -0.1965
    176  CA        46.8880   -8.7290   40.7440 C.3   150  ALA150      0.1728
    177  C         47.9990   -7.9840   39.9580 C.2   150  ALA150      0.2616
    178  O         48.6810   -8.5790   39.1440 O.2   150  ALA150     -0.2715
    179  CB        45.5900   -8.7250   39.9310 C.3   150  ALA150      0.0334
    180  N         48.1500   -6.6830   40.1640 N.am  151  LYS151     -0.1977
    181  CA        49.0840   -5.9060   39.3310 C.3   151  LYS151      0.1596
    182  C         50.5280   -6.2850   39.5940 C.2   151  LYS151      0.2287
    183  O         51.2660   -6.6680   38.6760 O.2   151  LYS151     -0.2864
    184  CB        48.9160   -4.4170   39.5830 C.3   151  LYS151      0.0298
    185  CG        49.9590   -3.5790   38.8850 C.3   151  LYS151      0.0038
    186  CD        49.6650   -2.1050   39.0920 C.3   151  LYS151      0.0206
    187  CE        50.9280   -1.2640   39.0080 C.3   151  LYS151      0.1093
    188  NZ        50.4900    0.1430   39.1250 N.3   151  LYS151     -0.1314
@<TRIPOS>BOND
     1    96    95    1
     2    96    97    1
     3    95    94    1
     4    94    93    1
     5    73    74    1
     6    73    72    1
     7    74    76   am
     8    74    75    2
     9    93    90    1
    10    72    69    1
    11    90    91    1
    12    90    89    1
    13    80    79    2
    14   101   100    2
    15    61    60    1
    16    91    98   am
    17    91    92    2
    18    98    99    1
    19    69    70    1
    20    69    68    1
    21    79    89   am
    22    79    78    1
    23    60    57    1
    24    71    70    2
    25   100    99    1
    26   100   103   am
    27    70    77   am
    28   102    99    1
    29    68    64   am
    30   105   104    1
    31   105   106    2
    32    77    78    1
    33   104   103    1
    34   104   107    1
    35    78    81    1
    36    57    58    1
    37    57    56    1
    38    47    46    2
    39    62    58   am
    40    62    63    1
    41    64    63    1
    42    64    65    2
    43    83    85   ar
    44    83    82   ar
    45    81    82    1
    46   109   107    1
    47    58    59    2
    48   129   127   am
    49    66    63    1
    50    66    67    1
    51   107   108    1
    52    56    46   am
    53    85    87   ar
    54    82    84   ar
    55   128   127    2
    56    46    45    1
    57    37    35    1
    58   127   126    1
    59    44    45    1
    60    87    88    1
    61    87    86   ar
    62    84    86   ar
    63    45    48    1
    64    36    35    1
    65    35    32    1
    66   125   126    1
    67   125   122    1
    68   124   123    2
    69    51    53   ar
    70    51    49   ar
    71    48    49    1
    72    34    33    2
    73    53    54   ar
    74    32    33    1
    75    32    31    1
    76    49    50   ar
    77   123   122    1
    78    33    38   am
    79   112   111    1
    80   112   113    2
    81   122   121    1
    82   111   110    1
    83   111   114    1
    84    54    55    1
    85    54    52   ar
    86    38    39    1
    87    50    52   ar
    88     6     5    1
    89   121   119   am
    90    43    42    1
    91    39    42    1
    92    39    40    1
    93   117   118    1
    94    31    24   am
    95   114   116    1
    96   114   115    1
    97    41    40    2
    98     5     2    1
    99   119   118    1
   100   119   120    2
   101    24    25    2
   102    24    23    1
   103     7     8    1
   104     7     3   am
   105     2     3    1
   106     2     1    1
   107   183   182    2
   108     8     9    1
   109   185   186    1
   110   185   184    1
   111    29    30    1
   112    29    28    1
   113     3     4    2
   114   187   186    1
   115   187   188    1
   116    26    23    1
   117    26    27    1
   118   178   177    2
   119    23    22    1
   120   181   184    1
   121   181   182    1
   122   181   180    1
   123    22    20   am
   124    21    20    2
   125    20    19    1
   126    19    18    1
   127     9    10    2
   128     9    11   am
   129   179   176    1
   130   177   180   am
   131   177   176    1
   132    28    27    1
   133    18    13   am
   134   146   145    1
   135    11    12    1
   136   176   175    1
   137   145   144    1
   138    13    12    1
   139    13    14    2
   140    12    15    1
   141   175   171   am
   142    17    15    1
   143   144   143    1
   144   154   152   ar
   145   136   135    2
   146    15    16    1
   147   172   171    2
   148   171   170    1
   149   168   167    1
   150   143   142    1
   151   174   173    1
   152   152   153   ar
   153   152   151    1
   154   135   137   am
   155   135   134    1
   156   170   173    1
   157   170   169    1
   158   166   167    1
   159   166   165    1
   160   151   148    1
   161   142   139    1
   162   134   131    1
   163   139   138    1
   164   139   140    1
   165   150   149    2
   166   159   156    1
   167   138   132   am
   168   156   155    1
   169   156   157    1
   170   149   155   am
   171   149   148    1
   172   165   164    1
   173   148   147    1
   174   132   131    1
   175   132   133    2
   176   140   141    2
   177   131   130    1
   178   157   158    2
   179   164   161    1
   180   161   160    1
   181   161   162    1
   182   163   162    2
