@<TRIPOS>MOLECULE
tmp/4phkA00.pdb
 110 105 0 0 0
SMALL
GASTEIGER

@<TRIPOS>ATOM
      1  N         19.1370   -7.9040   33.1930 N.3     9  LEU9       -0.1245
      2  CA        19.6430   -8.0170   31.7890 C.3     9  LEU9        0.1561
      3  C         20.3360   -6.7400   31.4110 C.2     9  LEU9        0.2260
      4  O         21.4970   -6.7540   30.9900 O.2     9  LEU9       -0.2867
      5  CB        18.5240   -8.2830   30.7370 C.3     9  LEU9        0.0270
      6  CG        18.3960   -7.5620   29.3270 C.3     9  LEU9        0.0019
      7  CD1       19.6670   -7.2950   28.4970 C.3     9  LEU9        0.0001
      8  CD2       17.3900   -8.2760   28.3880 C.3     9  LEU9        0.0001
      9  N         21.5490   -8.4540   20.1160 N.3    29  LEU29      -0.1245
     10  CA        20.6430   -8.6990   18.9840 C.3    29  LEU29       0.1561
     11  C         20.9960   -9.9600   18.1570 C.2    29  LEU29       0.2260
     12  O         20.1140  -10.7510   17.8400 O.2    29  LEU29      -0.2867
     13  CB        20.5490   -7.4610   18.0920 C.3    29  LEU29       0.0270
     14  CG        19.3160   -6.5410   18.2000 C.3    29  LEU29       0.0019
     15  CD1       18.5540   -6.7250   19.4850 C.3    29  LEU29       0.0001
     16  CD2       19.5920   -5.0800   17.8920 C.3    29  LEU29       0.0001
     17  N         20.4860  -12.9890   20.4900 N.3    32  VAL32      -0.1231
     18  CA        19.0650  -13.3220   20.5810 C.3    32  VAL32       0.1692
     19  C         18.4720  -14.0490   19.3580 C.2    32  VAL32       0.2591
     20  O         17.8240  -15.1100   19.4850 O.2    32  VAL32      -0.2718
     21  CB        18.2700  -12.0470   20.8590 C.3    32  VAL32       0.0266
     22  CG1       16.8350  -12.1270   20.3250 C.3    32  VAL32       0.0020
     23  CG2       18.2990  -11.7590   22.3540 C.3    32  VAL32       0.0020
     24  N         18.6670  -13.4750   18.1770 N.am   33  VAL33      -0.1980
     25  CA        18.0320  -14.0250   16.9630 C.3    33  VAL33       0.1595
     26  C         18.4360  -15.4560   16.6330 C.2    33  VAL33       0.2287
     27  O         17.6160  -16.2140   16.1530 O.2    33  VAL33      -0.2864
     28  CB        18.2240  -13.1400   15.7130 C.3    33  VAL33       0.0276
     29  CG1       17.7440  -11.7400   15.9950 C.3    33  VAL33       0.0022
     30  CG2       19.6830  -13.1380   15.2530 C.3    33  VAL33       0.0022
     31  N         16.0670  -17.8950   17.5380 N.3    36  HIS36      -0.1241
     32  CA        14.8140  -17.7520   16.7990 C.3    36  HIS36       0.1621
     33  C         15.0270  -18.0220   15.2840 C.2    36  HIS36       0.2264
     34  O         15.0740  -17.0770   14.4690 O.2    36  HIS36      -0.2867
     35  CB        14.2490  -16.3310   17.0010 C.3    36  HIS36       0.0745
     36  CG        13.8610  -16.0310   18.4120 C.ar   36  HIS36       0.0817
     37  ND1       12.5860  -16.2450   18.8890 N.ar   36  HIS36      -0.2268
     38  CD2       14.5810  -15.5560   19.4560 C.ar   36  HIS36       0.1154
     39  CE1       12.5350  -15.9100   20.1690 C.ar   36  HIS36       0.1986
     40  NE2       13.7320  -15.4830   20.5360 N.ar   36  HIS36      -0.2212
     41  N         13.1580  -16.2680   12.5530 N.3    39  LEU39      -0.1245
     42  CA        13.4980  -14.8760   12.2010 C.3    39  LEU39       0.1561
     43  C         14.7320  -14.9300   11.3190 C.2    39  LEU39       0.2260
     44  O         15.8760  -14.9030   11.8010 O.2    39  LEU39      -0.2867
     45  CB        13.7480  -14.0220   13.4460 C.3    39  LEU39       0.0270
     46  CG        12.6180  -14.0790   14.4750 C.3    39  LEU39       0.0019
     47  CD1       13.0130  -13.3180   15.7450 C.3    39  LEU39       0.0001
     48  CD2       11.3170  -13.5400   13.9070 C.3    39  LEU39       0.0001
     49  N         22.6920   -8.6110   12.3520 N.3    44  PHE44      -0.1241
     50  CA        22.5950   -7.1770   12.5890 C.3    44  PHE44       0.1605
     51  C         24.0160   -6.6250   12.4560 C.2    44  PHE44       0.2264
     52  O         24.8930   -7.0290   13.1960 O.2    44  PHE44      -0.2867
     53  CB        22.0460   -6.9110   14.0140 C.3    44  PHE44       0.0534
     54  CG        20.5370   -7.0050   14.1350 C.ar   44  PHE44      -0.0203
     55  CD1       19.7450   -5.8800   13.9710 C.ar   44  PHE44      -0.0042
     56  CD2       19.9270   -8.2080   14.4490 C.ar   44  PHE44      -0.0042
     57  CE1       18.3700   -5.9620   14.0890 C.ar   44  PHE44      -0.0003
     58  CE2       18.5570   -8.3020   14.5830 C.ar   44  PHE44      -0.0003
     59  CZ        17.7720   -7.1770   14.3860 C.ar   44  PHE44      -0.0000
     60  N         13.7850   -1.7390   23.2430 N.3    73  TRP73      -0.1241
     61  CA        13.6030   -3.1550   23.4420 C.3    73  TRP73       0.1605
     62  C         12.1550   -3.5530   23.3430 C.2    73  TRP73       0.2264
     63  O         11.8420   -4.6090   22.7820 O.2    73  TRP73      -0.2867
     64  CB        14.1140   -3.5550   24.7790 C.3    73  TRP73       0.0550
     65  CG        14.2740   -5.0010   24.8860 C.ar   73  TRP73       0.0003
     66  CD1       13.6080   -5.8240   25.7070 C.ar   73  TRP73       0.0946
     67  CD2       15.2190   -5.8020   24.1720 C.ar   73  TRP73       0.0152
     68  NE1       14.0720   -7.1140   25.5570 N.ar   73  TRP73      -0.2442
     69  CE2       15.0630   -7.1210   24.6140 C.ar   73  TRP73       0.0810
     70  CE3       16.1920   -5.5290   23.2110 C.ar   73  TRP73       0.0012
     71  CZ2       15.8230   -8.1810   24.0980 C.ar   73  TRP73       0.0191
     72  CZ3       16.9470   -6.5810   22.7040 C.ar   73  TRP73       0.0001
     73  CH2       16.7590   -7.8870   23.1580 C.ar   73  TRP73       0.0015
     74  N         11.0020   -3.5840   19.7920 N.3    76  ILE76      -0.1231
     75  CA        11.5580   -4.7190   19.0450 C.3    76  ILE76       0.1692
     76  C         10.7480   -5.9850   19.3490 C.2    76  ILE76       0.2591
     77  O         10.3100   -6.6540   18.4260 O.2    76  ILE76      -0.2718
     78  CB        13.0380   -4.9740   19.3360 C.3    76  ILE76       0.0266
     79  CG1       13.9120   -3.9670   18.5940 C.3    76  ILE76       0.0019
     80  CG2       13.4630   -6.3590   18.8280 C.3    76  ILE76       0.0020
     81  CD1       15.3520   -3.9210   19.0980 C.3    76  ILE76       0.0001
     82  N         10.5160   -6.2760   20.6260 N.am   77  LYS77      -0.1980
     83  CA         9.6540   -7.4150   20.9930 C.3    77  LYS77       0.1596
     84  C          8.2570   -7.3800   20.3750 C.2    77  LYS77       0.2287
     85  O          7.7150   -8.4090   20.0130 O.2    77  LYS77      -0.2864
     86  CB         9.4770   -7.4850   22.5060 C.3    77  LYS77       0.0298
     87  CG        10.7400   -7.8630   23.2290 C.3    77  LYS77       0.0038
     88  CD        10.4600   -8.2040   24.6890 C.3    77  LYS77       0.0206
     89  CE         9.8980   -7.0190   25.4640 C.3    77  LYS77       0.1093
     90  NZ         9.4500   -7.5100   26.7960 N.3    77  LYS77      -0.1314
     91  N          8.7590   -7.8360   16.4960 N.3    80  GLN80      -0.1245
     92  CA         9.2130   -9.2020   16.3700 C.3    80  GLN80       0.1566
     93  C          8.0190  -10.1690   16.3390 C.2    80  GLN80       0.2260
     94  O          7.9510  -11.0440   15.4650 O.2    80  GLN80      -0.2867
     95  CB        10.1230   -9.4810   17.5780 C.3    80  GLN80       0.0367
     96  CG        10.4870  -10.9100   17.8310 C.3    80  GLN80       0.0905
     97  CD         9.5020  -11.6320   18.7120 C.2    80  GLN80       0.2608
     98  OE1        9.1410  -11.1780   19.8090 O.2    80  GLN80      -0.2717
     99  NE2        9.0480  -12.7560   18.2330 N.am   80  GLN80      -0.0878
    100  N         14.7450  -10.1090    8.9050 N.3   131  PHE131     -0.1241
    101  CA        14.4260   -9.5790   10.2170 C.3   131  PHE131      0.1605
    102  C         15.2040   -8.3490   10.6330 C.2   131  PHE131      0.2264
    103  O         14.6100   -7.3980   11.1540 O.2   131  PHE131     -0.2867
    104  CB        14.5870  -10.6480   11.2480 C.3   131  PHE131      0.0534
    105  CG        14.1760  -10.2170   12.5950 C.ar  131  PHE131     -0.0203
    106  CD1       12.8570   -9.8800   12.8450 C.ar  131  PHE131     -0.0042
    107  CD2       15.0810  -10.1410   13.6090 C.ar  131  PHE131     -0.0042
    108  CE1       12.4720   -9.4230   14.0960 C.ar  131  PHE131     -0.0003
    109  CE2       14.7070   -9.6840   14.8710 C.ar  131  PHE131     -0.0003
    110  CZ        13.3980   -9.3410   15.1080 C.ar  131  PHE131     -0.0000
@<TRIPOS>BOND
     1   100   101    1
     2   101   102    1
     3   101   104    1
     4   102   103    2
     5   104   105    1
     6    43    44    2
     7    43    42    1
     8    42    41    1
     9    42    45    1
    10    49    50    1
    11    51    50    1
    12    51    52    2
    13    50    53    1
    14   105   106   ar
    15   105   107   ar
    16   106   108   ar
    17    45    46    1
    18   107   109   ar
    19    48    46    1
    20    55    57   ar
    21    55    54   ar
    22    53    54    1
    23    57    59   ar
    24   108   110   ar
    25    54    56   ar
    26    59    58   ar
    27    56    58   ar
    28    34    33    2
    29    46    47    1
    30   109   110   ar
    31    30    28    1
    32    33    32    1
    33    94    93    2
    34    28    29    1
    35    28    25    1
    36    27    26    2
    37    93    92    1
    38    92    91    1
    39    92    95    1
    40    26    25    1
    41    32    35    1
    42    32    31    1
    43    25    24    1
    44    35    36    1
    45    95    96    1
    46    96    97    1
    47    12    11    2
    48    16    14    1
    49    13    14    1
    50    13    10    1
    51    11    10    1
    52    24    19   am
    53    14    15    1
    54    99    97   am
    55    36    37   ar
    56    36    38   ar
    57    77    76    2
    58    79    81    1
    59    79    78    1
    60    97    98    2
    61    80    78    1
    62    37    39   ar
    63    10     9    1
    64    75    78    1
    65    75    76    1
    66    75    74    1
    67    76    82   am
    68    19    20    2
    69    19    18    1
    70    38    40   ar
    71    85    84    2
    72    39    40   ar
    73    22    21    1
    74    84    83    1
    75    17    18    1
    76    18    21    1
    77    82    83    1
    78    21    23    1
    79    83    86    1
    80    86    87    1
    81    72    73   ar
    82    72    70   ar
    83    63    62    2
    84    73    71   ar
    85    70    67   ar
    86    87    88    1
    87    60    61    1
    88    62    61    1
    89    61    64    1
    90    71    69   ar
    91    67    69   ar
    92    67    65   ar
    93    69    68   ar
    94    88    89    1
    95    64    65    1
    96    65    66   ar
    97    89    90    1
    98    68    66   ar
    99     8     6    1
   100     7     6    1
   101     6     5    1
   102     5     2    1
   103     4     3    2
   104     3     2    1
   105     2     1    1
