@<TRIPOS>MOLECULE
tmp/4phlA00.pdb
 187 179 0 0 0
SMALL
GASTEIGER

@<TRIPOS>ATOM
      1  N         25.3720   27.8210   23.9290 N.3    82  TYR82      -0.1227
      2  CA        25.7130   28.4580   25.2120 C.3    82  TYR82       0.1736
      3  C         25.2580   29.9100   25.2700 C.2    82  TYR82       0.2595
      4  O         24.5260   30.2930   26.1930 O.2    82  TYR82      -0.2718
      5  CB        27.2170   28.3760   25.5000 C.3    82  TYR82       0.0548
      6  CG        27.5790   29.0120   26.8320 C.ar   82  TYR82      -0.0200
      7  CD1       27.3300   28.3560   28.0360 C.ar   82  TYR82      -0.0009
      8  CD2       28.1200   30.2850   26.8860 C.ar   82  TYR82      -0.0009
      9  CE1       27.6470   28.9510   29.2730 C.ar   82  TYR82       0.0417
     10  CE2       28.4400   30.8910   28.1200 C.ar   82  TYR82       0.0417
     11  CZ        28.2000   30.2210   29.3020 C.ar   82  TYR82       0.1957
     12  OH        28.5320   30.8350   30.5120 O.3    82  TYR82      -0.2866
     13  N         25.6810   30.7250   24.3070 N.am   83  HIS83      -0.1975
     14  CA        25.3530   32.1530   24.3640 C.3    83  HIS83       0.1656
     15  C         23.9240   32.4320   23.8730 C.2    83  HIS83       0.2291
     16  O         23.6980   33.1830   22.9320 O.2    83  HIS83      -0.2864
     17  CB        26.3960   32.9690   23.5850 C.3    83  HIS83       0.0771
     18  CG        27.7110   33.0680   24.2920 C.ar   83  HIS83       0.0820
     19  ND1       28.8060   32.3010   23.9450 N.ar   83  HIS83      -0.2267
     20  CD2       28.0910   33.7940   25.3770 C.ar   83  HIS83       0.1154
     21  CE1       29.8140   32.5750   24.7570 C.ar   83  HIS83       0.1986
     22  NE2       29.4050   33.4770   25.6370 N.ar   83  HIS83      -0.2212
     23  N         21.5870   31.7190   29.0390 N.3    87  HIS87      -0.1241
     24  CA        22.8130   32.2800   29.6150 C.3    87  HIS87       0.1621
     25  C         22.5740   33.6770   30.1850 C.2    87  HIS87       0.2264
     26  O         23.0330   33.9730   31.2830 O.2    87  HIS87      -0.2867
     27  CB        23.9620   32.3230   28.5770 C.3    87  HIS87       0.0745
     28  CG        25.1240   33.2100   28.9520 C.ar   87  HIS87       0.0817
     29  ND1       25.9530   32.9540   30.0320 N.ar   87  HIS87      -0.2268
     30  CD2       25.6120   34.3280   28.3670 C.ar   87  HIS87       0.1154
     31  CE1       26.8810   33.8920   30.1050 C.ar   87  HIS87       0.1986
     32  NE2       26.7070   34.7360   29.1020 N.ar   87  HIS87      -0.2212
     33  N         24.4040   36.9480   19.8030 N.3   127  HIS127     -0.1241
     34  CA        25.6010   36.1080   19.7400 C.3   127  HIS127      0.1621
     35  C         25.3780   34.9240   18.7680 C.2   127  HIS127      0.2264
     36  O         24.3480   34.2300   18.8460 O.2   127  HIS127     -0.2867
     37  CB        25.9530   35.5810   21.1230 C.3   127  HIS127      0.0745
     38  CG        27.4030   35.2670   21.3040 C.ar  127  HIS127      0.0817
     39  ND1       28.0470   34.2770   20.5910 N.ar  127  HIS127     -0.2268
     40  CD2       28.3270   35.7910   22.1440 C.ar  127  HIS127      0.1154
     41  CE1       29.3170   34.2340   20.9570 C.ar  127  HIS127      0.1986
     42  NE2       29.5050   35.1300   21.9120 N.ar  127  HIS127     -0.2212
     43  N         33.5290   33.6030   18.5920 N.3   131  ASN131     -0.1240
     44  CA        34.1650   34.6630   19.3950 C.3   131  ASN131      0.1653
     45  C         34.8100   35.7400   18.5220 C.2   131  ASN131      0.2266
     46  O         34.8760   35.6110   17.2820 O.2   131  ASN131     -0.2867
     47  CB        35.1870   34.0840   20.3970 C.3   131  ASN131      0.1155
     48  CG        36.3800   33.3730   19.7350 C.2   131  ASN131      0.2627
     49  OD1       36.6430   33.4990   18.5410 O.2   131  ASN131     -0.2716
     50  ND2       37.0990   32.5980   20.5410 N.am  131  ASN131     -0.0877
     51  N         30.9410   42.7770   21.3050 N.3   156  GLU156     -0.1245
     52  CA        30.3900   43.5950   22.3800 C.3   156  GLU156      0.1567
     53  C         29.8210   44.9110   21.8280 C.2   156  GLU156      0.2260
     54  O         28.7960   45.4000   22.2950 O.2   156  GLU156     -0.2867
     55  CB        31.4580   43.8460   23.4610 C.3   156  GLU156      0.0388
     56  CG        31.8080   42.5760   24.2560 C.3   156  GLU156      0.1160
     57  CD        32.7110   41.5970   23.4930 C.2   156  GLU156      0.3649
     58  OE1       33.3870   42.0150   22.5200 O.co2 156  GLU156     -0.2457
     59  OE2       32.7670   40.4060   23.8870 O.co2 156  GLU156     -0.2457
     60  N         32.8550   43.2220   29.0450 N.3   197  THR197     -0.1218
     61  CA        32.7540   41.7620   29.0950 C.3   197  THR197      0.1862
     62  C         33.6730   41.0560   28.0890 C.2   197  THR197      0.2287
     63  O         33.8440   39.8360   28.1540 O.2   197  THR197     -0.2866
     64  CB        31.2960   41.2390   28.8790 C.3   197  THR197      0.1770
     65  OG1       30.7640   41.6940   27.6320 O.3   197  THR197     -0.2211
     66  CG2       30.4000   41.7080   30.0020 C.3   197  THR197      0.0375
     67  N         36.7130   39.4300   27.0350 N.3   199  MET199     -0.1245
     68  CA        37.7820   38.8480   27.8640 C.3   199  MET199      0.1570
     69  C         39.1870   39.3110   27.4610 C.2   199  MET199      0.2261
     70  O         40.1450   39.0900   28.2000 O.2   199  MET199     -0.2867
     71  CB        37.7150   37.3130   27.8510 C.3   199  MET199      0.0387
     72  CG        36.5470   36.7420   28.6780 C.3   199  MET199      0.0595
     73  SD        36.6580   37.1000   30.4610 S.3   199  MET199     -0.1393
     74  CE        37.8000   35.8160   30.9700 C.3   199  MET199      0.0692
     75  N         29.1050   36.8190   34.3780 N.3   236  ASP236     -0.1225
     76  CA        29.4590   36.1780   33.1110 C.3   236  ASP236      0.1805
     77  C         30.3610   34.9520   33.3030 C.2   236  ASP236      0.2597
     78  O         30.2250   33.9690   32.5720 O.2   236  ASP236     -0.2718
     79  CB        30.1590   37.1990   32.2090 C.3   236  ASP236      0.1424
     80  CG        29.8560   37.0010   30.7290 C.2   236  ASP236      0.3668
     81  OD1       28.9030   36.2720   30.3740 O.co2 236  ASP236     -0.2456
     82  OD2       30.5960   37.6100   29.9340 O.co2 236  ASP236     -0.2456
     83  N         31.2860   34.9970   34.2670 N.am  237  ILE237     -0.1980
     84  CA        32.1440   33.8260   34.5120 C.3   237  ILE237      0.1595
     85  C         31.7450   33.0090   35.7390 C.2   237  ILE237      0.2287
     86  O         32.5800   32.2750   36.3050 O.2   237  ILE237     -0.2864
     87  CB        33.6420   34.1800   34.7090 C.3   237  ILE237      0.0276
     88  CG1       33.8540   35.2160   35.7990 C.3   237  ILE237      0.0022
     89  CG2       34.2670   34.6780   33.4840 C.3   237  ILE237      0.0022
     90  CD1       35.3020   35.6230   35.8670 C.3   237  ILE237      0.0001
     91  N         29.7430   30.4060   36.1090 N.3   239  ASN239     -0.1225
     92  CA        29.2850   29.0110   35.9950 C.3   239  ASN239      0.1785
     93  C         29.9920   28.0770   36.9680 C.2   239  ASN239      0.2597
     94  O         29.3830   27.1320   37.4890 O.2   239  ASN239     -0.2718
     95  CB        29.4850   28.4430   34.5760 C.3   239  ASN239      0.1169
     96  CG        28.6260   29.1200   33.5290 C.2   239  ASN239      0.2627
     97  OD1       28.9280   29.0300   32.3370 O.2   239  ASN239     -0.2716
     98  ND2       27.5500   29.7970   33.9540 N.am  239  ASN239     -0.0877
     99  N         31.2810   28.3320   37.1930 N.am  240  VAL240     -0.1980
    100  CA        32.0990   27.5030   38.0670 C.3   240  VAL240      0.1595
    101  C         31.8040   27.7760   39.5430 C.2   240  VAL240      0.2287
    102  O         32.3410   27.0910   40.4000 O.2   240  VAL240     -0.2864
    103  CB        33.6180   27.7240   37.8330 C.3   240  VAL240      0.0276
    104  CG1       34.0270   27.2940   36.4410 C.3   240  VAL240      0.0022
    105  CG2       33.9940   29.1910   38.0920 C.3   240  VAL240      0.0022
    106  N         26.9730   23.4590   37.3980 N.3   247  SER247     -0.1217
    107  CA        28.2500   23.8520   36.8040 C.3   247  SER247      0.1889
    108  C         28.6320   22.9290   35.6210 C.2   247  SER247      0.2288
    109  O         29.0610   23.3920   34.5630 O.2   247  SER247     -0.2866
    110  CB        29.3430   23.8180   37.8760 C.3   247  SER247      0.2089
    111  OG        30.4860   24.5180   37.4370 O.3   247  SER247     -0.2183
    112  N         26.5590   23.6350   32.4270 N.3   250  TRP250     -0.1227
    113  CA        27.0810   24.8140   31.7330 C.3   250  TRP250      0.1737
    114  C         28.3540   24.4770   30.9560 C.2   250  TRP250      0.2595
    115  O         28.5470   24.9360   29.8070 O.2   250  TRP250     -0.2718
    116  CB        27.3950   25.9650   32.7100 C.3   250  TRP250      0.0564
    117  CG        26.1920   26.6450   33.3080 C.ar  250  TRP250      0.0003
    118  CD1       25.9180   26.7980   34.6400 C.ar  250  TRP250      0.0946
    119  CD2       25.1210   27.3140   32.5920 C.ar  250  TRP250      0.0152
    120  NE1       24.7290   27.4790   34.8000 N.ar  250  TRP250     -0.2442
    121  CE2       24.2270   27.8060   33.5680 C.ar  250  TRP250      0.0810
    122  CE3       24.8350   27.5170   31.2280 C.ar  250  TRP250      0.0012
    123  CZ2       23.0590   28.4930   33.2200 C.ar  250  TRP250      0.0191
    124  CZ3       23.6720   28.2040   30.8830 C.ar  250  TRP250      0.0001
    125  CH2       22.7980   28.6850   31.8770 C.ar  250  TRP250      0.0015
    126  N         29.2460   23.7160   31.5900 N.am  251  ALA251     -0.1980
    127  CA        30.5080   23.3420   30.9460 C.3   251  ALA251      0.1597
    128  C         30.2560   22.5290   29.6570 C.2   251  ALA251      0.2287
    129  O         30.9250   22.7530   28.6290 O.2   251  ALA251     -0.2864
    130  CB        31.3900   22.5660   31.9110 C.3   251  ALA251      0.0319
    131  N         29.0800   25.1960   26.9500 N.3   254  VAL254     -0.1231
    132  CA        30.1760   26.0200   26.4420 C.3   254  VAL254      0.1692
    133  C         31.0660   25.2190   25.5180 C.2   254  VAL254      0.2592
    134  O         31.5200   25.6990   24.4800 O.2   254  VAL254     -0.2718
    135  CB        31.1050   26.5640   27.5540 C.3   254  VAL254      0.0266
    136  CG1       31.9770   27.6420   26.9740 C.3   254  VAL254      0.0020
    137  CG2       30.3360   27.1330   28.6730 C.3   254  VAL254      0.0020
    138  N         31.3650   23.9980   25.9360 N.am  255  THR255     -0.1953
    139  CA        32.2660   23.1490   25.1650 C.3   255  THR255      0.1897
    140  C         31.6590   22.8290   23.7860 C.2   255  THR255      0.2313
    141  O         32.3490   22.8810   22.7750 O.2   255  THR255     -0.2863
    142  CB        32.6010   21.8510   25.9410 C.3   255  THR255      0.1794
    143  OG1       33.2620   22.1800   27.1710 O.3   255  THR255     -0.2208
    144  CG2       33.5430   20.9720   25.1290 C.3   255  THR255      0.0378
    145  N         32.0600   25.9410   21.6160 N.3   258  PHE258     -0.1241
    146  CA        33.4540   26.0550   21.1700 C.3   258  PHE258      0.1605
    147  C         33.7770   25.0650   20.0530 C.2   258  PHE258      0.2264
    148  O         34.4630   25.4010   19.0930 O.2   258  PHE258     -0.2867
    149  CB        34.4320   25.8160   22.3160 C.3   258  PHE258      0.0534
    150  CG        34.5350   26.9750   23.2940 C.ar  258  PHE258     -0.0203
    151  CD1       33.7870   28.1330   23.1100 C.ar  258  PHE258     -0.0042
    152  CD2       35.3970   26.9050   24.3790 C.ar  258  PHE258     -0.0042
    153  CE1       33.8920   29.2110   24.0040 C.ar  258  PHE258     -0.0003
    154  CE2       35.5060   27.9740   25.2720 C.ar  258  PHE258     -0.0003
    155  CZ        34.7500   29.1200   25.0800 C.ar  258  PHE258     -0.0000
    156  N         41.4620   24.0890   22.7010 N.3   275  MET275     -0.1245
    157  CA        40.2130   24.2520   23.4320 C.3   275  MET275      0.1570
    158  C         38.9680   24.1660   22.5350 C.2   275  MET275      0.2261
    159  O         37.8590   23.9500   23.0240 O.2   275  MET275     -0.2867
    160  CB        40.2450   25.5950   24.1630 C.3   275  MET275      0.0387
    161  CG        39.0840   25.8730   25.1090 C.3   275  MET275      0.0595
    162  SD        39.2120   27.5030   25.9050 S.3   275  MET275     -0.1393
    163  CE        40.7980   27.3470   26.7380 C.3   275  MET275      0.0692
    164  N         39.4730   20.7520   31.0550 N.3   287  GLY287     -0.1210
    165  CA        39.2160   22.1350   30.7010 C.3   287  GLY287      0.1956
    166  C         38.6970   22.9680   31.8720 C.2   287  GLY287      0.2611
    167  O         39.0540   24.1350   32.0340 O.2   287  GLY287     -0.2717
    168  N         37.8310   22.3760   32.6810 N.am  288  GLN288     -0.1979
    169  CA        37.2780   23.0980   33.8110 C.3   288  GLN288      0.1601
    170  C         38.3580   23.3830   34.8620 C.2   288  GLN288      0.2287
    171  O         38.4850   24.5100   35.3630 O.2   288  GLN288     -0.2864
    172  CB        36.1170   22.3080   34.4160 C.3   288  GLN288      0.0394
    173  CG        34.8870   22.2940   33.5080 C.3   288  GLN288      0.0908
    174  CD        34.3920   23.6920   33.2070 C.2   288  GLN288      0.2608
    175  OE1       33.8130   24.3620   34.0700 O.2   288  GLN288     -0.2717
    176  NE2       34.6240   24.1490   31.9740 N.am  288  GLN288     -0.0878
    177  N         40.5230   26.1590   33.6240 N.3   291  PHE291     -0.1241
    178  CA        39.8660   27.4610   33.6400 C.3   291  PHE291      0.1605
    179  C         39.7570   27.9690   35.0820 C.2   291  PHE291      0.2264
    180  O         39.9810   29.1500   35.3640 O.2   291  PHE291     -0.2867
    181  CB        38.4880   27.3710   32.9860 C.3   291  PHE291      0.0534
    182  CG        37.7380   28.6740   32.9570 C.ar  291  PHE291     -0.0203
    183  CD1       38.0480   29.6440   32.0150 C.ar  291  PHE291     -0.0042
    184  CD2       36.7100   28.9190   33.8530 C.ar  291  PHE291     -0.0042
    185  CE1       37.3590   30.8440   31.9700 C.ar  291  PHE291     -0.0003
    186  CE2       36.0080   30.1260   33.8180 C.ar  291  PHE291     -0.0003
    187  CZ        36.3320   31.0900   32.8730 C.ar  291  PHE291     -0.0000
@<TRIPOS>BOND
     1    46    45    2
     2    45    44    1
     3    49    48    2
     4    43    44    1
     5    35    36    2
     6    35    34    1
     7   148   147    2
     8    44    47    1
     9    48    47    1
    10    48    50   am
    11    34    33    1
    12    34    37    1
    13   147   146    1
    14    39    41   ar
    15    39    38   ar
    16    41    42   ar
    17    37    38    1
    18   146   145    1
    19   146   149    1
    20    38    40   ar
    21    51    52    1
    22    53    54    2
    23    53    52    1
    24    42    40   ar
    25   149   150    1
    26    52    55    1
    27    58    57   ar
    28   158   159    2
    29   158   157    1
    30   156   157    1
    31   141   140    2
    32    16    15    2
    33   151   150   ar
    34   151   153   ar
    35   150   152   ar
    36   157   160    1
    37    55    56    1
    38    57    59   ar
    39    57    56    1
    40    17    18    1
    41    17    14    1
    42   140   139    1
    43    15    14    1
    44     1     2    1
    45    19    18   ar
    46    19    21   ar
    47   153   155   ar
    48   160   161    1
    49    18    20   ar
    50    13    14    1
    51    13     3   am
    52   152   154   ar
    53   134   133    2
    54    21    22   ar
    55   155   154   ar
    56   161   162    1
    57   144   142    1
    58   139   138    1
    59   139   142    1
    60     2     3    1
    61     2     5    1
    62     3     4    2
    63    20    22   ar
    64     5     6    1
    65   133   138   am
    66   133   132    1
    67   162   163    1
    68   142   143    1
    69   132   131    1
    70   132   135    1
    71     6     8   ar
    72     6     7   ar
    73     8    10   ar
    74   136   135    1
    75    67    68    1
    76    69    68    1
    77    69    70    2
    78   135   137    1
    79    65    64    1
    80    71    68    1
    81    71    72    1
    82     7     9   ar
    83    62    63    2
    84    62    61    1
    85    10    11   ar
    86    30    28   ar
    87    30    32   ar
    88    27    28    1
    89    27    24    1
    90   129   128    2
    91    72    73    1
    92    64    61    1
    93    64    66    1
    94    28    29   ar
    95    23    24    1
    96    60    61    1
    97    32    31   ar
    98     9    11   ar
    99    11    12    1
   100    24    25    1
   101   128   127    1
   102   115   114    2
   103    82    80   ar
   104    29    31   ar
   105    25    26    2
   106    81    80   ar
   107    73    74    1
   108   165   164    1
   109   165   166    1
   110    80    79    1
   111   124   122   ar
   112   124   125   ar
   113   127   126    1
   114   127   130    1
   115   114   126   am
   116   114   113    1
   117   122   119   ar
   118   113   112    1
   119   113   116    1
   120   166   167    2
   121   166   168   am
   122   125   123   ar
   123   185   183   ar
   124   185   187   ar
   125   176   174   am
   126   183   182   ar
   127    79    76    1
   128    97    96    2
   129    78    77    2
   130   119   117   ar
   131   119   121   ar
   132   168   169    1
   133   116   117    1
   134   187   186   ar
   135   182   181    1
   136   182   184   ar
   137   181   178    1
   138    76    77    1
   139    76    75    1
   140   174   173    1
   141   174   175    2
   142   123   121   ar
   143    77    83   am
   144   117   118   ar
   145    89    87    1
   146   173   172    1
   147    96    98   am
   148    96    95    1
   149   121   120   ar
   150   177   178    1
   151   178   179    1
   152   169   172    1
   153   169   170    1
   154   186   184   ar
   155    83    84    1
   156    84    87    1
   157    84    85    1
   158   109   108    2
   159    95    92    1
   160   118   120   ar
   161    87    88    1
   162   170   171    2
   163   179   180    2
   164   108   107    1
   165    85    86    2
   166    88    90    1
   167    92    91    1
   168    92    93    1
   169   104   103    1
   170   107   106    1
   171   107   110    1
   172    93    99   am
   173    93    94    2
   174    99   100    1
   175   111   110    1
   176   103   100    1
   177   103   105    1
   178   100   101    1
   179   101   102    2
