@<TRIPOS>MOLECULE
tmp/4phoC00.pdb
 93 91 0 0 0
SMALL
GASTEIGER

@<TRIPOS>ATOM
      1  N        -46.3630   -1.8120   56.3010 N.3    42  GLU42      -0.1231
      2  CA       -46.2940   -1.9330   57.7630 C.3    42  GLU42       0.1699
      3  C        -45.8770   -0.6340   58.4450 C.2    42  GLU42       0.2592
      4  O        -46.1560   -0.4290   59.6250 O.2    42  GLU42      -0.2718
      5  CB       -45.3070   -3.0460   58.1500 C.3    42  GLU42       0.0402
      6  CG       -45.3340   -3.4500   59.6240 C.3    42  GLU42       0.1161
      7  CD       -44.3830   -2.6390   60.5180 C.2    42  GLU42       0.3649
      8  OE1      -43.5330   -1.8780   60.0070 O.co2  42  GLU42      -0.2457
      9  OE2      -44.4910   -2.7750   61.7490 O.co2  42  GLU42      -0.2457
     10  N        -45.2050    0.2410   57.7010 N.am   43  LEU43      -0.1980
     11  CA       -44.5260    1.3980   58.2960 C.3    43  LEU43       0.1596
     12  C        -45.3890    2.3810   59.1140 C.2    43  LEU43       0.2287
     13  O        -44.8600    3.1500   59.9130 O.2    43  LEU43      -0.2864
     14  CB       -43.7040    2.1450   57.2390 C.3    43  LEU43       0.0297
     15  CG       -42.2950    1.5810   57.0290 C.3    43  LEU43       0.0022
     16  CD1      -41.5890    2.2820   55.8810 C.3    43  LEU43       0.0001
     17  CD2      -41.4690    1.6810   58.3110 C.3    43  LEU43       0.0001
     18  N        -47.4670    1.4540   61.3550 N.3    45  ARG45      -0.1231
     19  CA       -47.7820    0.8000   62.6390 C.3    45  ARG45       0.1694
     20  C        -47.1470    1.5930   63.7900 C.2    45  ARG45       0.2592
     21  O        -45.9960    2.0190   63.6920 O.2    45  ARG45      -0.2718
     22  CB       -47.2930   -0.6580   62.6370 C.3    45  ARG45       0.0321
     23  CG       -47.7770   -1.5260   63.8080 C.3    45  ARG45       0.0489
     24  CD       -47.1540   -2.9360   63.7430 C.3    45  ARG45       0.2205
     25  NE       -47.6440   -3.7310   62.6160 N.pl3  45  ARG45      -0.0865
     26  CZ       -47.1370   -4.9060   62.2470 C.cat  45  ARG45       0.5346
     27  NH1      -46.1090   -5.4280   62.9090 N.pl3  45  ARG45       0.1354
     28  NH2      -47.6490   -5.5610   61.2060 N.pl3  45  ARG45       0.1354
     29  N        -47.9150    1.8210   64.8520 N.am   46  PHE46      -0.1976
     30  CA       -47.4570    2.5840   66.0220 C.3    46  PHE46       0.1639
     31  C        -47.1480    4.0330   65.6940 C.2    46  PHE46       0.2290
     32  O        -46.3230    4.6410   66.3630 O.2    46  PHE46      -0.2864
     33  CB       -46.2050    1.9630   66.6510 C.3    46  PHE46       0.0560
     34  CG       -46.3140    0.4910   66.8990 C.ar   46  PHE46      -0.0200
     35  CD1      -47.2900   -0.0090   67.7380 C.ar   46  PHE46      -0.0042
     36  CD2      -45.4220   -0.3900   66.3070 C.ar   46  PHE46      -0.0042
     37  CE1      -47.3960   -1.3660   67.9670 C.ar   46  PHE46      -0.0003
     38  CE2      -45.5170   -1.7520   66.5380 C.ar   46  PHE46      -0.0003
     39  CZ       -46.5070   -2.2360   67.3700 C.ar   46  PHE46      -0.0000
     40  N        -44.4680    7.0630   68.3170 N.3    50  TYR50      -0.1241
     41  CA       -43.2030    7.7620   68.0990 C.3    50  TYR50       0.1605
     42  C        -43.3040    9.2010   68.5850 C.2    50  TYR50       0.2264
     43  O        -44.3830    9.7960   68.5550 O.2    50  TYR50      -0.2867
     44  CB       -42.8130    7.7820   66.6100 C.3    50  TYR50       0.0534
     45  CG       -42.5930    6.4230   65.9860 C.ar   50  TYR50      -0.0201
     46  CD1      -41.4420    5.6880   66.2530 C.ar   50  TYR50      -0.0009
     47  CD2      -43.5250    5.8860   65.1020 C.ar   50  TYR50      -0.0009
     48  CE1      -41.2380    4.4430   65.6680 C.ar   50  TYR50       0.0417
     49  CE2      -43.3300    4.6490   64.5170 C.ar   50  TYR50       0.0417
     50  CZ       -42.1830    3.9350   64.7990 C.ar   50  TYR50       0.1957
     51  OH       -41.9940    2.7020   64.2200 O.3    50  TYR50      -0.2866
     52  N        -40.3520    8.6550   59.9700 N.3    58  VAL58      -0.1245
     53  CA       -40.8990    7.3730   59.5460 C.3    58  VAL58       0.1561
     54  C        -41.8810    7.5770   58.4000 C.2    58  VAL58       0.2260
     55  O        -41.8860    6.8130   57.4290 O.2    58  VAL58      -0.2867
     56  CB       -41.6060    6.6390   60.6840 C.3    58  VAL58       0.0252
     57  CG1      -42.2960    5.3780   60.1520 C.3    58  VAL58       0.0019
     58  CG2      -40.6170    6.2980   61.7950 C.3    58  VAL58       0.0019
     59  N        -35.7010   -3.2070   70.2680 N.3   213  SER213     -0.1202
     60  CA       -36.1140   -4.0060   69.1140 C.3   213  SER213      0.2020
     61  C        -36.6850   -3.1420   67.9940 C.2   213  SER213      0.2618
     62  O        -36.5000   -3.4470   66.8090 O.2   213  SER213     -0.2717
     63  CB       -37.1330   -5.0760   69.5080 C.3   213  SER213      0.2103
     64  OG       -38.3860   -4.4940   69.8300 O.3   213  SER213     -0.2182
     65  N        -37.3750   -2.0690   68.3700 N.am  214  VAL214     -0.1979
     66  CA       -37.9150   -1.1370   67.3900 C.3   214  VAL214      0.1595
     67  C        -36.7560   -0.4600   66.6670 C.2   214  VAL214      0.2287
     68  O        -36.7600   -0.3280   65.4500 O.2   214  VAL214     -0.2864
     69  CB       -38.8230   -0.0760   68.0450 C.3   214  VAL214      0.0276
     70  CG1      -39.2240    0.9890   67.0420 C.3   214  VAL214      0.0022
     71  CG2      -40.0620   -0.7280   68.6400 C.3   214  VAL214      0.0022
     72  N        -35.0270   -3.0570   64.2260 N.3   217  PHE217     -0.1227
     73  CA       -35.8030   -3.1510   62.9890 C.3   217  PHE217      0.1736
     74  C        -35.3960   -2.0980   61.9630 C.2   217  PHE217      0.2595
     75  O        -35.1260   -2.4290   60.8200 O.2   217  PHE217     -0.2718
     76  CB       -37.2850   -3.0030   63.2850 C.3   217  PHE217      0.0547
     77  CG       -38.1570   -2.9440   62.0540 C.ar  217  PHE217     -0.0202
     78  CD1      -38.4320   -1.7340   61.4310 C.ar  217  PHE217     -0.0042
     79  CD2      -38.7270   -4.0940   61.5400 C.ar  217  PHE217     -0.0042
     80  CE1      -39.2370   -1.6840   60.3190 C.ar  217  PHE217     -0.0003
     81  CE2      -39.5400   -4.0380   60.4240 C.ar  217  PHE217     -0.0003
     82  CZ       -39.7890   -2.8320   59.8200 C.ar  217  PHE217     -0.0000
     83  N        -35.3690   -0.8310   62.3730 N.am  218  PHE218     -0.1976
     84  CA       -34.9910    0.2480   61.4730 C.3   218  PHE218      0.1639
     85  C        -33.5520    0.1520   61.0090 C.2   218  PHE218      0.2290
     86  O        -33.2340    0.5080   59.8710 O.2   218  PHE218     -0.2864
     87  CB       -35.2960    1.6170   62.0790 C.3   218  PHE218      0.0560
     88  CG       -36.7610    1.9190   62.1130 C.ar  218  PHE218     -0.0200
     89  CD1      -37.4570    2.1240   60.9310 C.ar  218  PHE218     -0.0042
     90  CD2      -37.4600    1.9560   63.3200 C.ar  218  PHE218     -0.0042
     91  CE1      -38.8300    2.3740   60.9450 C.ar  218  PHE218     -0.0003
     92  CE2      -38.8320    2.2090   63.3390 C.ar  218  PHE218     -0.0003
     93  CZ       -39.5170    2.4180   62.1380 C.ar  218  PHE218     -0.0000
@<TRIPOS>BOND
     1    16    15    1
     2     1     2    1
     3    15    14    1
     4    15    17    1
     5    14    11    1
     6    55    54    2
     7    10    11    1
     8    10     3   am
     9     2     5    1
    10     2     3    1
    11     5     6    1
    12    11    12    1
    13    54    53    1
    14     3     4    2
    15    12    13    2
    16    53    52    1
    17    53    56    1
    18     6     7    1
    19    82    80   ar
    20    82    81   ar
    21    86    85    2
    22     8     7   ar
    23    57    56    1
    24    80    78   ar
    25    81    79   ar
    26     7     9   ar
    27    56    58    1
    28    75    74    2
    29    89    91   ar
    30    89    88   ar
    31    91    93   ar
    32    85    84    1
    33    28    26    1
    34    18    19    1
    35    78    77   ar
    36    84    87    1
    37    84    83    1
    38    79    77   ar
    39    74    83   am
    40    74    73    1
    41    77    76    1
    42    87    88    1
    43    88    90   ar
    44    93    92   ar
    45    26    25    2
    46    26    27    1
    47    25    24    1
    48    22    19    1
    49    22    23    1
    50    19    20    1
    51    73    76    1
    52    73    72    1
    53    90    92   ar
    54    21    20    2
    55    24    23    1
    56    20    29   am
    57    51    50    1
    58    49    50   ar
    59    49    47   ar
    60    50    48   ar
    61    29    30    1
    62    47    45   ar
    63    68    67    2
    64    48    46   ar
    65    31    30    1
    66    31    32    2
    67    45    46   ar
    68    45    44    1
    69    30    33    1
    70    36    38   ar
    71    36    34   ar
    72    38    39   ar
    73    44    41    1
    74    33    34    1
    75    67    66    1
    76    62    61    2
    77    34    35   ar
    78    70    69    1
    79    39    37   ar
    80    66    69    1
    81    66    65    1
    82    35    37   ar
    83    61    65   am
    84    61    60    1
    85    69    71    1
    86    41    40    1
    87    41    42    1
    88    43    42    2
    89    60    63    1
    90    60    59    1
    91    63    64    1
