@<TRIPOS>MOLECULE
tmp/4phrA00.pdb
 219 207 0 0 0
SMALL
GASTEIGER

@<TRIPOS>ATOM
      1  N         17.9500   16.9690   19.5570 N.3    33  ARG33      -0.1245
      2  CA        17.8520   16.2010   18.3110 C.3    33  ARG33       0.1563
      3  C         18.0240   17.1080   17.0900 C.2    33  ARG33       0.2260
      4  O         17.3970   18.1570   16.9910 O.2    33  ARG33      -0.2867
      5  CB        16.5150   15.4520   18.2250 C.3    33  ARG33       0.0307
      6  CG        16.1910   14.5140   19.4100 C.3    33  ARG33       0.0489
      7  CD        14.7450   13.9320   19.3170 C.3    33  ARG33       0.2205
      8  NE        13.8360   15.0570   19.1690 N.pl3  33  ARG33      -0.0865
      9  CZ        13.3640   15.5440   18.0250 C.cat  33  ARG33       0.5346
     10  NH1       13.5430   14.9050   16.8650 N.pl3  33  ARG33       0.1354
     11  NH2       12.6660   16.6670   18.0550 N.pl3  33  ARG33       0.1354
     12  N         17.3330   17.3560   13.1990 N.3    35  GLY35      -0.1225
     13  CA        16.6090   16.7760   12.0860 C.3    35  GLY35       0.1811
     14  C         16.9200   17.5170   10.8050 C.2    35  GLY35       0.2280
     15  O         17.7910   18.3980   10.7680 O.2    35  GLY35      -0.2866
     16  N         16.7850   21.3790   10.9740 N.3    38  GLU38      -0.1245
     17  CA        17.9050   22.0480   11.6200 C.3    38  GLU38       0.1567
     18  C         19.0780   22.2290   10.6660 C.2    38  GLU38       0.2260
     19  O         19.7420   23.2730   10.6860 O.2    38  GLU38      -0.2867
     20  CB        18.3550   21.2960   12.8710 C.3    38  GLU38       0.0388
     21  CG        17.4150   21.5130   14.0470 C.3    38  GLU38       0.1160
     22  CD        16.0170   20.9850   13.7720 C.2    38  GLU38       0.3649
     23  OE1       15.8940   19.7990   13.3700 O.co2  38  GLU38      -0.2457
     24  OE2       15.0390   21.7560   13.9370 O.co2  38  GLU38      -0.2457
     25  N          7.5330   26.3160   10.0450 N.3    49  TYR49      -0.1227
     26  CA         7.3380   26.8350   11.3910 C.3    49  TYR49       0.1736
     27  C          8.5170   27.6110   11.9640 C.2    49  TYR49       0.2595
     28  O          8.4510   28.0460   13.1080 O.2    49  TYR49      -0.2718
     29  CB         6.8950   25.7290   12.3570 C.3    49  TYR49       0.0548
     30  CG         5.6850   24.9730   11.8670 C.ar   49  TYR49      -0.0200
     31  CD1        4.4220   25.5550   11.8980 C.ar   49  TYR49      -0.0009
     32  CD2        5.8000   23.6840   11.3720 C.ar   49  TYR49      -0.0009
     33  CE1        3.3110   24.8750   11.4460 C.ar   49  TYR49       0.0417
     34  CE2        4.6850   22.9900   10.9180 C.ar   49  TYR49       0.0417
     35  CZ         3.4460   23.5940   10.9580 C.ar   49  TYR49       0.1957
     36  OH         2.3400   22.9120   10.5190 O.3    49  TYR49      -0.2866
     37  N          9.5750   27.8230   11.1790 N.am   50  GLN50      -0.1979
     38  CA        10.6510   28.7070   11.6330 C.3    50  GLN50       0.1601
     39  C         11.4120   29.3590   10.4840 C.2    50  GLN50       0.2287
     40  O         12.1120   28.6970    9.7170 O.2    50  GLN50      -0.2864
     41  CB        11.6250   27.9730   12.5680 C.3    50  GLN50       0.0394
     42  CG        12.7790   28.8430   13.0750 C.3    50  GLN50       0.0908
     43  CD        12.3070   30.0110   13.9340 C.2    50  GLN50       0.2608
     44  OE1       11.6350   29.8240   14.9590 O.2    50  GLN50      -0.2717
     45  NE2       12.6540   31.2220   13.5170 N.am   50  GLN50      -0.0878
     46  N         17.7660   10.8810   16.4930 N.3   117  THR117     -0.1218
     47  CA        16.7430   11.9060   16.3370 C.3   117  THR117      0.1862
     48  C         15.3560   11.2730   16.2730 C.2   117  THR117      0.2287
     49  O         14.3430   11.9270   16.5700 O.2   117  THR117     -0.2866
     50  CB        17.0720   12.7410   15.0970 C.3   117  THR117      0.1770
     51  OG1       18.2170   13.5230   15.4150 O.3   117  THR117     -0.2211
     52  CG2       15.9270   13.6630   14.6410 C.3   117  THR117      0.0375
     53  N         11.7790   10.5810   18.7640 N.3   120  SER120     -0.1202
     54  CA        10.4730   11.2400   18.6870 C.3   120  SER120      0.2020
     55  C          9.6170   10.6510   17.5670 C.2   120  SER120      0.2618
     56  O          8.4560   11.0180   17.4210 O.2   120  SER120     -0.2717
     57  CB        10.6280   12.7480   18.4600 C.3   120  SER120      0.2103
     58  OG        11.2450   12.9850   17.2030 O.3   120  SER120     -0.2182
     59  N         10.2000    9.7360   16.7860 N.am  121  ARG121     -0.1979
     60  CA         9.5800    9.2430   15.5480 C.3   121  ARG121      0.1597
     61  C          9.6120    7.7060   15.4840 C.2   121  ARG121      0.2287
     62  O         10.2510    7.1200   14.6110 O.2   121  ARG121     -0.2864
     63  CB        10.3060    9.8350   14.3300 C.3   121  ARG121      0.0334
     64  CG        10.5650   11.3480   14.3750 C.3   121  ARG121      0.0492
     65  CD         9.2810   12.1590   14.4740 C.3   121  ARG121      0.2205
     66  NE         8.3410   11.7780   13.4280 N.pl3 121  ARG121     -0.0865
     67  CZ         7.9130   12.5830   12.4660 C.cat 121  ARG121      0.5346
     68  NH1        8.3160   13.8470   12.4140 N.pl3 121  ARG121      0.1354
     69  NH2        7.0560   12.1180   11.5670 N.pl3 121  ARG121      0.1354
     70  N          4.3000   24.4510   21.5360 N.3   153  GLY153     -0.1225
     71  CA         3.5560   25.4890   20.8550 C.3   153  GLY153      0.1811
     72  C          2.0680   25.3870   21.0930 C.2   153  GLY153      0.2280
     73  O          1.5640   24.3770   21.5950 O.2   153  GLY153     -0.2866
     74  N         -0.4130   24.8710   19.1430 N.3   155  THR155     -0.1203
     75  CA        -1.1280   23.7990   18.4380 C.3   155  THR155      0.1994
     76  C         -0.6010   22.3940   18.7770 C.2   155  THR155      0.2618
     77  O         -1.2060   21.3930   18.3900 O.2   155  THR155     -0.2717
     78  CB        -1.1090   23.9950   16.8990 C.3   155  THR155      0.1784
     79  OG1        0.2470   23.9700   16.4190 O.3   155  THR155     -0.2211
     80  CG2       -1.7610   25.3130   16.5240 C.3   155  THR155      0.0376
     81  N          0.5140   22.3150   19.4950 N.am  156  SER156     -0.1951
     82  CA         1.1740   21.0340   19.7780 C.3   156  SER156      0.1924
     83  C          0.2820   20.0990   20.6000 C.2   156  SER156      0.2314
     84  O          0.0830   18.9290   20.2490 O.2   156  SER156     -0.2863
     85  CB         2.4940   21.2650   20.5190 C.3   156  SER156      0.2116
     86  OG         3.3890   22.0480   19.7520 O.3   156  SER156     -0.2180
     87  N          0.5180   18.3020   23.2260 N.3   158  SER158     -0.1217
     88  CA         1.1300   16.9920   23.3780 C.3   158  SER158      0.1889
     89  C          0.4430   16.2230   24.4970 C.2   158  SER158      0.2288
     90  O          0.3320   16.7020   25.6300 O.2   158  SER158     -0.2866
     91  CB         2.6320   17.1260   23.6610 C.3   158  SER158      0.2089
     92  OG         3.3140   17.7690   22.5890 O.3   158  SER158     -0.2183
     93  N          4.6690   30.2180   20.8160 N.3   177  PRO177     -0.2102
     94  CA         4.1190   30.3330   19.4620 C.3   177  PRO177      0.1504
     95  C          4.3000   29.0490   18.6580 C.2   177  PRO177      0.2576
     96  O          5.3250   28.3700   18.8000 O.2   177  PRO177     -0.2718
     97  CB         4.9390   31.4760   18.8510 C.3   177  PRO177      0.0282
     98  CG         5.3640   32.2900   20.0330 C.3   177  PRO177      0.0208
     99  CD         5.6670   31.2660   21.0930 C.3   177  PRO177      0.0893
    100  N          3.3050   28.7200   17.8390 N.am  178  SER178     -0.1938
    101  CA         3.3470   27.5280   16.9990 C.3   178  SER178      0.2055
    102  C          4.2750   27.6950   15.8040 C.2   178  SER178      0.2643
    103  O          4.6260   26.7260   15.1440 O.2   178  SER178     -0.2714
    104  CB         1.9450   27.1660   16.5200 C.3   178  SER178      0.2130
    105  OG         1.3830   28.2340   15.7720 O.3   178  SER178     -0.2179
    106  N          4.6660   28.9300   15.5240 N.am  179  LYS179     -0.1963
    107  CA         5.6600   29.1940   14.4910 C.3   179  LYS179      0.1728
    108  C          6.5490   30.3570   14.9250 C.2   179  LYS179      0.2616
    109  O          6.1210   31.2310   15.6790 O.2   179  LYS179     -0.2715
    110  CB         4.9900   29.4710   13.1420 C.3   179  LYS179      0.0311
    111  CG         4.1980   30.7580   13.0820 C.3   179  LYS179      0.0038
    112  CD         3.5510   30.9210   11.7140 C.3   179  LYS179      0.0206
    113  CE         3.2120   32.3760   11.4270 C.3   179  LYS179      0.1093
    114  NZ         2.3890   32.9830   12.5090 N.3   179  LYS179     -0.1314
    115  N          7.7860   30.3660   14.4460 N.am  180  ASN180     -0.1958
    116  CA         8.7210   31.4480   14.7660 C.3   180  ASN180      0.1819
    117  C          8.8930   31.6760   16.2590 C.2   180  ASN180      0.2621
    118  O          8.9820   32.8180   16.7150 O.2   180  ASN180     -0.2715
    119  CB         8.3180   32.7520   14.0760 C.3   180  ASN180      0.1195
    120  CG         8.6110   32.7200   12.6020 C.2   180  ASN180      0.2630
    121  OD1        9.3860   31.8880   12.1290 O.2   180  ASN180     -0.2716
    122  ND2        7.9900   33.6200   11.8590 N.am  180  ASN180     -0.0877
    123  N          8.9470   30.5920   17.0250 N.am  181  ALA181     -0.1977
    124  CA         9.1010   30.7270   18.4630 C.3   181  ALA181      0.1597
    125  C         10.4350   31.3700   18.8360 C.2   181  ALA181      0.2287
    126  O         10.5620   31.9520   19.9130 O.2   181  ALA181     -0.2864
    127  CB         8.9430   29.3840   19.1460 C.3   181  ALA181      0.0319
    128  N          8.8540   20.5320   22.9200 N.3   204  MET204     -0.1230
    129  CA         8.3410   20.2130   21.5920 C.3   204  MET204      0.1702
    130  C          8.2040   21.5460   20.8630 C.2   204  MET204      0.2592
    131  O          7.1540   22.1870   20.9100 O.2   204  MET204     -0.2718
    132  CB         6.9920   19.4800   21.6710 C.3   204  MET204      0.0401
    133  CG         7.0450   18.1340   22.4020 C.3   204  MET204      0.0596
    134  SD         7.1420   18.2980   24.2100 S.3   204  MET204     -0.1393
    135  CE         6.3460   16.7890   24.7530 C.3   204  MET204      0.0692
    136  N          9.2800   21.9800   20.2090 N.am  205  LEU205     -0.1966
    137  CA         9.3480   23.3690   19.7730 C.3   205  LEU205      0.1728
    138  C         10.3220   23.5890   18.6140 C.2   205  LEU205      0.2617
    139  O         10.9820   24.6230   18.5330 O.2   205  LEU205     -0.2715
    140  CB         9.6810   24.2980   20.9590 C.3   205  LEU205      0.0311
    141  CG         9.1210   25.7220   20.8610 C.3   205  LEU205      0.0022
    142  CD1        7.6020   25.7400   21.0560 C.3   205  LEU205      0.0001
    143  CD2        9.8010   26.6420   21.8720 C.3   205  LEU205      0.0001
    144  N         10.3890   22.6270   17.7030 N.am  206  GLY206     -0.1941
    145  CA        11.1890   22.8060   16.5070 C.3   206  GLY206      0.1998
    146  C         12.6250   23.1890   16.8180 C.2   206  GLY206      0.2481
    147  O         13.2020   22.6890   17.7910 O.2   206  GLY206     -0.2729
    148  N         13.2310   24.0560   15.9810 N.am  207  PRO207     -0.2715
    149  CA        14.6490   24.3840   16.1910 C.3   207  PRO207      0.1536
    150  C         14.8990   25.1290   17.4970 C.2   207  PRO207      0.2599
    151  O         15.9810   25.0000   18.0880 O.2   207  PRO207     -0.2715
    152  CB        14.9970   25.2740   14.9890 C.3   207  PRO207      0.0310
    153  CG        13.6900   25.7410   14.4700 C.3   207  PRO207      0.0237
    154  CD        12.6910   24.6700   14.7580 C.3   207  PRO207      0.0939
    155  N         13.9120   25.8940   17.9450 N.am  208  THR208     -0.1951
    156  CA        14.0430   26.6230   19.1940 C.3   208  THR208      0.1897
    157  C         14.2530   25.6610   20.3670 C.2   208  THR208      0.2313
    158  O         14.9650   25.9780   21.3260 O.2   208  THR208     -0.2863
    159  CB        12.8320   27.5390   19.4290 C.3   208  THR208      0.1794
    160  OG1       12.7190   28.4460   18.3250 O.3   208  THR208     -0.2208
    161  CG2       12.9880   28.3370   20.7190 C.3   208  THR208      0.0378
    162  N         16.0470   23.0690   20.5220 N.3   210  LYS210     -0.1245
    163  CA        17.4290   22.6210   20.6740 C.3   210  LYS210      0.1561
    164  C         18.2390   23.6370   21.4780 C.2   210  LYS210      0.2260
    165  O         19.0620   23.2730   22.3310 O.2   210  LYS210     -0.2867
    166  CB        18.0710   22.3500   19.3170 C.3   210  LYS210      0.0271
    167  CG        17.4340   21.1660   18.5560 C.3   210  LYS210      0.0035
    168  CD        16.2080   21.6040   17.7770 C.3   210  LYS210      0.0206
    169  CE        15.5930   20.4990   16.9110 C.3   210  LYS210      0.1093
    170  NZ        14.5930   19.6270   17.5940 N.3   210  LYS210     -0.1314
    171  N         14.2800   17.0350   24.3280 N.3   225  ASP225     -0.1239
    172  CA        13.6700   17.4870   23.0790 C.3   225  ASP225      0.1674
    173  C         12.8690   16.3230   22.4850 C.2   225  ASP225      0.2266
    174  O         13.4610   15.3520   22.0000 O.2   225  ASP225     -0.2867
    175  CB        14.8300   17.8840   22.1560 C.3   225  ASP225      0.1410
    176  CG        14.4120   18.1570   20.7330 C.2   225  ASP225      0.3668
    177  OD1       13.1980   18.1980   20.4320 O.co2 225  ASP225     -0.2456
    178  OD2       15.3380   18.3680   19.9090 O.co2 225  ASP225     -0.2456
    179  N          9.9890   16.7990   20.2590 N.3   227  GLY227     -0.1210
    180  CA         9.4620   17.0940   18.9360 C.3   227  GLY227      0.1956
    181  C          8.0550   16.5910   18.6670 C.2   227  GLY227      0.2611
    182  O          7.1160   16.9400   19.3800 O.2   227  GLY227     -0.2717
    183  N          7.9220   15.7650   17.6300 N.am  228  HIS228     -0.1975
    184  CA         6.6210   15.2980   17.1240 C.3   228  HIS228      0.1656
    185  C          6.1060   14.0050   17.7690 C.2   228  HIS228      0.2291
    186  O          5.2840   13.2860   17.1760 O.2   228  HIS228     -0.2864
    187  CB         6.6800   15.1490   15.5990 C.3   228  HIS228      0.0771
    188  CG         6.4380   16.4280   14.8580 C.ar  228  HIS228      0.0820
    189  ND1        7.3150   16.9250   13.9190 N.ar  228  HIS228     -0.2267
    190  CD2        5.4010   17.2970   14.9020 C.ar  228  HIS228      0.1154
    191  CE1        6.8270   18.0450   13.4120 C.ar  228  HIS228      0.1986
    192  NE2        5.6640   18.2910   13.9890 N.ar  228  HIS228     -0.2212
    193  N         -2.0500   20.1670   15.9070 N.3   250  HIS250     -0.1241
    194  CA        -0.9800   20.0650   14.9180 C.3   250  HIS250      0.1621
    195  C         -0.6800   18.6070   14.5620 C.2   250  HIS250      0.2264
    196  O         -0.6710   17.7480   15.4370 O.2   250  HIS250     -0.2867
    197  CB         0.2790   20.7060   15.5160 C.3   250  HIS250      0.0745
    198  CG         1.5190   20.4900   14.7070 C.ar  250  HIS250      0.0817
    199  ND1        1.7920   21.2060   13.5630 N.ar  250  HIS250     -0.2268
    200  CD2        2.5610   19.6460   14.8830 C.ar  250  HIS250      0.1154
    201  CE1        2.9530   20.8130   13.0710 C.ar  250  HIS250      0.1986
    202  NE2        3.4380   19.8650   13.8510 N.ar  250  HIS250     -0.2212
    203  N          4.3310   16.7980    9.7200 N.3   253  GLU253     -0.1245
    204  CA         4.4350   16.7730    8.2520 C.3   253  GLU253      0.1567
    205  C          3.3130   17.4970    7.5170 C.2   253  GLU253      0.2260
    206  O          3.3170   17.5940    6.2890 O.2   253  GLU253     -0.2867
    207  CB         4.6460   15.3570    7.7090 C.3   253  GLU253      0.0388
    208  CG         6.0980   14.8700    7.8150 C.3   253  GLU253      0.1160
    209  CD         6.4640   14.3680    9.1970 C.2   253  GLU253      0.3649
    210  OE1        5.8940   13.3460    9.6260 O.co2 253  GLU253     -0.2457
    211  OE2        7.3240   14.9890    9.8550 O.co2 253  GLU253     -0.2457
    212  N         -0.1850   24.1250    9.6270 N.3   257  ASP257     -0.1239
    213  CA        -1.2090   24.1280   10.6760 C.3   257  ASP257      0.1674
    214  C         -2.5560   24.6150   10.1380 C.2   257  ASP257      0.2266
    215  O         -3.2290   25.4390   10.7600 O.2   257  ASP257     -0.2867
    216  CB        -0.7680   24.9610   11.8910 C.3   257  ASP257      0.1410
    217  CG         0.0290   24.1480   12.9100 C.2   257  ASP257      0.3668
    218  OD1       -0.0290   22.8990   12.8670 O.co2 257  ASP257     -0.2456
    219  OD2        0.7060   24.7600   13.7660 O.co2 257  ASP257     -0.2456
@<TRIPOS>BOND
     1   206   205    2
     2   205   204    1
     3   207   208    1
     4   207   204    1
     5   208   209    1
     6   204   203    1
     7   209   210   ar
     8   209   211   ar
     9   212   213    1
    10    40    39    2
    11    25    26    1
    12   214   213    1
    13   214   215    2
    14    39    38    1
    15    36    35    1
    16    18    19    2
    17    18    17    1
    18   213   216    1
    19    15    14    2
    20    14    13    1
    21    34    35   ar
    22    34    32   ar
    23    35    33   ar
    24    16    17    1
    25    37    38    1
    26    37    27   am
    27    32    30   ar
    28    26    27    1
    29    26    29    1
    30   113   112    1
    31   113   114    1
    32    33    31   ar
    33    69    67    1
    34    17    20    1
    35    38    41    1
    36   112   111    1
    37   122   120   am
    38    30    31   ar
    39    30    29    1
    40   216   217    1
    41    27    28    2
    42    13    12    1
    43   121   120    2
    44    68    67    1
    45    67    66    2
    46    41    42    1
    47   120   119    1
    48   218   217   ar
    49    20    21    1
    50   217   219   ar
    51   201   199   ar
    52   201   202   ar
    53    42    43    1
    54   111   110    1
    55   110   107    1
    56    23    22   ar
    57   191   189   ar
    58   191   192   ar
    59    66    65    1
    60    45    43   am
    61   199   198   ar
    62    22    24   ar
    63    22    21    1
    64   202   200   ar
    65   189   188   ar
    66    43    44    2
    67   192   190   ar
    68   119   116    1
    69    63    64    1
    70    63    60    1
    71    64    65    1
    72   115   116    1
    73   115   108   am
    74   153   154    1
    75   153   152    1
    76   107   108    1
    77   107   106    1
    78   195   194    1
    79   195   196    2
    80    62    61    2
    81    52    50    1
    82   198   200   ar
    83   198   197    1
    84   154   148    1
    85   116   117    1
    86   188   190   ar
    87   188   187    1
    88   194   197    1
    89   194   193    1
    90   108   109    2
    91   152   149    1
    92    50    51    1
    93    50    47    1
    94   103   102    2
    95    61    60    1
    96   106   102   am
    97    60    59    1
    98   187   184    1
    99   105   104    1
   100   102   101    1
   101   148   149    1
   102   148   146   am
   103   149   150    1
   104   117   118    2
   105   117   123   am
   106    48    47    1
   107    48    49    2
   108    47    46    1
   109    79    78    1
   110   145   146    1
   111   145   144    1
   112   104   101    1
   113    80    78    1
   114    59    55   am
   115   146   147    2
   116    10     9    1
   117    78    75    1
   118   169   170    1
   119   169   168    1
   120     4     3    2
   121   101   100    1
   122   123   124    1
   123     3     2    1
   124   184   183    1
   125   184   185    1
   126   186   185    2
   127    58    57    1
   128    56    55    2
   129   150   155   am
   130   150   151    2
   131    55    54    1
   132   183   181   am
   133   144   138   am
   134   168   167    1
   135   100    95   am
   136   155   156    1
   137     9    11    1
   138     9     8    2
   139     5     2    1
   140     5     6    1
   141     2     1    1
   142   160   159    1
   143    77    76    2
   144    75    76    1
   145    75    74    1
   146    57    54    1
   147   124   125    1
   148   124   127    1
   149   139   138    2
   150   167   166    1
   151   138   137    1
   152    95    96    2
   153    95    94    1
   154   181   180    1
   155   181   182    2
   156    54    53    1
   157    76    81   am
   158   125   126    2
   159    97    94    1
   160    97    98    1
   161   180   179    1
   162     8     7    1
   163   156   159    1
   164   156   157    1
   165     7     6    1
   166   166   163    1
   167   159   161    1
   168    94    93    1
   169    81    82    1
   170    86    85    1
   171   137   136    1
   172   137   140    1
   173    82    85    1
   174    82    83    1
   175   178   176   ar
   176    98    99    1
   177   136   130   am
   178    84    83    2
   179   157   158    2
   180   177   176   ar
   181   162   163    1
   182   163   164    1
   183   176   175    1
   184    93    99    1
   185    71    72    1
   186    71    70    1
   187   141   140    1
   188   141   142    1
   189   141   143    1
   190   130   131    2
   191   130   129    1
   192    72    73    2
   193   164   165    2
   194   129   132    1
   195   129   128    1
   196   132   133    1
   197   174   173    2
   198   175   172    1
   199   133   134    1
   200   173   172    1
   201    92    91    1
   202   172   171    1
   203    87    88    1
   204    88    91    1
   205    88    89    1
   206   134   135    1
   207    89    90    2
