@<TRIPOS>MOLECULE
tmp/4phtD00.pdb
 115 109 0 0 0
SMALL
GASTEIGER

@<TRIPOS>ATOM
      1  N        -83.5970   47.7690    0.4130 N.3   184  SER184     -0.1202
      2  CA       -84.7240   46.9260    0.8320 C.3   184  SER184      0.2020
      3  C        -84.3120   45.4610    0.9660 C.2   184  SER184      0.2618
      4  O        -84.8660   44.7370    1.7890 O.2   184  SER184     -0.2717
      5  CB       -85.8730   47.0270   -0.1750 C.3   184  SER184      0.2103
      6  OG       -86.3270   48.3580   -0.3020 O.3   184  SER184     -0.2182
      7  N        -83.3450   45.0390    0.1430 N.am  185  LEU185     -0.1979
      8  CA       -82.7730   43.6970    0.2320 C.3   185  LEU185      0.1596
      9  C        -81.9760   43.4880    1.5160 C.2   185  LEU185      0.2287
     10  O        -81.8640   42.3590    1.9930 O.2   185  LEU185     -0.2864
     11  CB       -81.9050   43.3770   -0.9850 C.3   185  LEU185      0.0297
     12  CG       -82.6670   43.2050   -2.3110 C.3   185  LEU185      0.0022
     13  CD1      -81.6750   43.1230   -3.4570 C.3   185  LEU185      0.0001
     14  CD2      -83.5740   41.9770   -2.3260 C.3   185  LEU185      0.0001
     15  N        -73.7330   28.8180   -1.2660 N.3   212  THR212     -0.1203
     16  CA       -74.9840   28.6410   -1.9840 C.3   212  THR212      0.1994
     17  C        -76.1720   29.2060   -1.1920 C.2   212  THR212      0.2618
     18  O        -76.3600   28.9140   -0.0220 O.2   212  THR212     -0.2717
     19  CB       -75.2330   27.1560   -2.2890 C.3   212  THR212      0.1784
     20  OG1      -74.0670   26.6030   -2.8870 O.3   212  THR212     -0.2211
     21  CG2      -76.3320   26.9990   -3.2690 C.3   212  THR212      0.0376
     22  N        -76.9720   30.0030   -1.8760 N.am  213  GLY213     -0.1942
     23  CA       -78.1880   30.5870   -1.3280 C.3   213  GLY213      0.2014
     24  C        -77.9300   31.8180   -0.4890 C.2   213  GLY213      0.2640
     25  O        -78.6900   32.0910    0.4010 O.2   213  GLY213     -0.2714
     26  N        -76.8600   32.5550   -0.7730 N.am  214  SER214     -0.1935
     27  CA       -76.4690   33.7360   -0.0080 C.3   214  SER214      0.2055
     28  C        -76.9650   35.0450   -0.6420 C.2   214  SER214      0.2644
     29  O        -76.7110   36.1180   -0.1190 O.2   214  SER214     -0.2714
     30  CB       -74.9410   33.7700    0.1450 C.3   214  SER214      0.2130
     31  OG       -74.2900   33.6330   -1.0950 O.3   214  SER214     -0.2179
     32  N        -77.6520   34.9430   -1.7700 N.am  215  GLY215     -0.1939
     33  CA       -78.2060   36.1020   -2.4620 C.3   215  GLY215      0.2014
     34  C        -77.1930   36.8850   -3.2620 C.2   215  GLY215      0.2639
     35  O        -77.2860   38.1080   -3.3310 O.2   215  GLY215     -0.2714
     36  N        -76.2300   36.1810   -3.8650 N.am  216  LYS216     -0.1963
     37  CA       -75.1770   36.8300   -4.6500 C.3   216  LYS216      0.1728
     38  C        -75.7200   37.2890   -5.9880 C.2   216  LYS216      0.2617
     39  O        -75.4070   38.3970   -6.4220 O.2   216  LYS216     -0.2715
     40  CB       -74.0030   35.8820   -4.9030 C.3   216  LYS216      0.0311
     41  CG       -73.3320   35.3370   -3.6650 C.3   216  LYS216      0.0038
     42  CD       -72.1300   34.4700   -4.0060 C.3   216  LYS216      0.0206
     43  CE       -72.5070   33.1400   -4.6210 C.3   216  LYS216      0.1093
     44  NZ       -73.3210   32.2650   -3.7380 N.3   216  LYS216     -0.1314
     45  N        -76.5120   36.4320   -6.6350 N.am  217  SER217     -0.1936
     46  CA       -77.1190   36.7590   -7.9310 C.3   217  SER217      0.2055
     47  C        -78.1010   37.9220   -7.7980 C.2   217  SER217      0.2643
     48  O        -78.1050   38.8310   -8.6020 O.2   217  SER217     -0.2714
     49  CB       -77.8290   35.5380   -8.5280 C.3   217  SER217      0.2130
     50  OG       -76.9230   34.4880   -8.8170 O.3   217  SER217     -0.2179
     51  N        -78.9380   37.8760   -6.7660 N.am  218  THR218     -0.1950
     52  CA       -79.9240   38.9250   -6.5050 C.3   218  THR218      0.1897
     53  C        -79.2570   40.2720   -6.2600 C.2   218  THR218      0.2313
     54  O        -79.7750   41.3050   -6.6760 O.2   218  THR218     -0.2863
     55  CB       -80.8050   38.5640   -5.3120 C.3   218  THR218      0.1794
     56  OG1      -81.3810   37.2760   -5.5310 O.3   218  THR218     -0.2208
     57  CG2      -81.9140   39.5900   -5.0970 C.3   218  THR218      0.0378
     58  N        -81.0490   34.0240  -14.7280 N.3   242  GLU242     -0.1245
     59  CA       -82.0010   33.8870  -13.6140 C.3   242  GLU242      0.1567
     60  C        -83.3270   34.5510  -13.9680 C.2   242  GLU242      0.2260
     61  O        -84.3680   33.9290  -13.8490 O.2   242  GLU242     -0.2867
     62  CB       -81.4640   34.5140  -12.3250 C.3   242  GLU242      0.0388
     63  CG       -80.1130   33.9910  -11.8540 C.3   242  GLU242      0.1160
     64  CD       -80.0950   32.5110  -11.5390 C.2   242  GLU242      0.3649
     65  OE1      -81.1270   31.9650  -11.1090 O.co2 242  GLU242     -0.2457
     66  OE2      -79.0240   31.9070  -11.7050 O.co2 242  GLU242     -0.2457
     67  N        -67.4910   31.3450   -4.4480 N.3   305  HIS305     -0.1241
     68  CA       -68.0990   30.6330   -3.3280 C.3   305  HIS305      0.1621
     69  C        -67.1330   30.4920   -2.1700 C.2   305  HIS305      0.2264
     70  O        -66.8770   29.3930   -1.7030 O.2   305  HIS305     -0.2867
     71  CB       -68.5820   29.2670   -3.7870 C.3   305  HIS305      0.0745
     72  CG       -69.6200   29.3240   -4.8580 C.ar  305  HIS305      0.0817
     73  ND1      -70.9700   29.4280   -4.5850 N.ar  305  HIS305     -0.2268
     74  CD2      -69.5100   29.2750   -6.2040 C.ar  305  HIS305      0.1154
     75  CE1      -71.6450   29.4410   -5.7190 C.ar  305  HIS305      0.1986
     76  NE2      -70.7810   29.3570   -6.7150 N.ar  305  HIS305     -0.2212
     77  N        -71.4010   38.1230    1.6390 N.3   336  GLN336     -0.1245
     78  CA       -72.8470   38.2380    1.8820 C.3   336  GLN336      0.1566
     79  C        -73.4830   36.9610    2.3960 C.2   336  GLN336      0.2260
     80  O        -73.1320   35.8820    1.9740 O.2   336  GLN336     -0.2867
     81  CB       -73.5350   38.6370    0.5660 C.3   336  GLN336      0.0367
     82  CG       -75.0200   38.9170    0.6790 C.3   336  GLN336      0.0905
     83  CD       -75.6140   39.3980   -0.6120 C.2   336  GLN336      0.2608
     84  OE1      -74.9600   40.0570   -1.4100 O.2   336  GLN336     -0.2717
     85  NE2      -76.8700   39.0960   -0.8140 N.am  336  GLN336     -0.0878
     86  N        -77.6480   35.5280    3.9090 N.3   338  LEU338     -0.1245
     87  CA       -79.0640   35.8150    4.1290 C.3   338  LEU338      0.1561
     88  C        -79.4770   35.3010    5.4880 C.2   338  LEU338      0.2260
     89  O        -79.1190   34.2120    5.8740 O.2   338  LEU338     -0.2867
     90  CB       -79.9670   35.1860    3.0670 C.3   338  LEU338      0.0270
     91  CG       -79.8180   35.6710    1.6300 C.3   338  LEU338      0.0019
     92  CD1      -80.7800   34.9220    0.7380 C.3   338  LEU338      0.0001
     93  CD2      -80.0570   37.1730    1.5200 C.3   338  LEU338      0.0001
     94  N        -86.7990   36.9320    4.3400 N.3   382  ARG382     -0.1231
     95  CA       -85.3640   36.9830    4.5750 C.3   382  ARG382      0.1694
     96  C        -84.7750   38.3710    4.2120 C.2   382  ARG382      0.2593
     97  O        -85.3980   39.1640    3.5120 O.2   382  ARG382     -0.2718
     98  CB       -84.6660   35.8680    3.7710 C.3   382  ARG382      0.0321
     99  CG       -84.6790   34.5170    4.4810 C.3   382  ARG382      0.0489
    100  CD       -83.7140   33.5210    3.8490 C.3   382  ARG382      0.2205
    101  NE       -84.0010   33.3300    2.4340 N.pl3 382  ARG382     -0.0865
    102  CZ       -84.8110   32.3970    1.9440 C.cat 382  ARG382      0.5346
    103  NH1      -85.3010   31.4510    2.7350 N.pl3 382  ARG382      0.1354
    104  NH2      -85.0800   32.3720    0.6490 N.pl3 382  ARG382      0.1354
    105  N        -83.5710   38.6360    4.7200 N.am  383  THR383     -0.1939
    106  CA       -82.8530   39.8750    4.4270 C.3   383  THR383      0.2028
    107  C        -81.3540   39.6340    4.4570 C.2   383  THR383      0.2642
    108  O        -80.8760   38.7090    5.0960 O.2   383  THR383     -0.2714
    109  CB       -83.2240   40.9980    5.4090 C.3   383  THR383      0.1808
    110  OG1      -82.6620   42.2310    4.9650 O.3   383  THR383     -0.2208
    111  CG2      -82.7480   40.6730    6.8210 C.3   383  THR383      0.0379
    112  N        -80.6150   40.4760    3.7530 N.am  384  GLY384     -0.1954
    113  CA       -79.1870   40.2660    3.5710 C.3   384  GLY384      0.1869
    114  C        -78.3290   40.9790    4.5890 C.2   384  GLY384      0.2309
    115  O        -78.6410   42.1000    4.9990 O.2   384  GLY384     -0.2863
@<TRIPOS>BOND
     1    58    59    1
     2    60    61    2
     3    60    59    1
     4    59    62    1
     5    62    63    1
     6    63    64    1
     7    66    64   ar
     8    64    65   ar
     9    50    49    1
    10    48    47    2
    11    49    46    1
    12    46    47    1
    13    46    45    1
    14    47    51   am
    15    51    52    1
    16    76    74   ar
    17    76    75   ar
    18    54    53    2
    19    45    38   am
    20    52    53    1
    21    52    55    1
    22    39    38    2
    23    74    72   ar
    24    38    37    1
    25    75    73   ar
    26    56    55    1
    27    55    57    1
    28    40    37    1
    29    40    41    1
    30    72    73   ar
    31    72    71    1
    32    37    36    1
    33    43    42    1
    34    43    44    1
    35    67    68    1
    36    42    41    1
    37    36    34   am
    38    71    68    1
    39    13    12    1
    40    35    34    2
    41    68    69    1
    42    21    19    1
    43    34    33    1
    44    20    19    1
    45    33    32    1
    46    14    12    1
    47    12    11    1
    48    19    16    1
    49    69    70    2
    50    16    15    1
    51    16    17    1
    52    22    23    1
    53    22    17   am
    54    32    28   am
    55    84    83    2
    56    23    24    1
    57    17    18    2
    58    31    30    1
    59    11     8    1
    60    85    83   am
    61    26    24   am
    62    26    27    1
    63    28    29    2
    64    28    27    1
    65    83    82    1
    66    24    25    2
    67     6     5    1
    68     5     2    1
    69    27    30    1
    70     7     8    1
    71     7     3   am
    72     8     9    1
    73     1     2    1
    74    81    82    1
    75    81    78    1
    76   104   102    1
    77    92    91    1
    78     2     3    1
    79     3     4    2
    80     9    10    2
    81    93    91    1
    82    91    90    1
    83    77    78    1
    84    78    79    1
    85   102   101    2
    86   102   103    1
    87    80    79    2
    88   101   100    1
    89    90    87    1
    90    97    96    2
    91   113   112    1
    92   113   114    1
    93   112   107   am
    94    98    99    1
    95    98    95    1
    96   100    99    1
    97    86    87    1
    98    87    88    1
    99    96    95    1
   100    96   105   am
   101    94    95    1
   102   106   107    1
   103   106   105    1
   104   106   109    1
   105   107   108    2
   106   114   115    2
   107   110   109    1
   108   109   111    1
   109    88    89    2
