@<TRIPOS>MOLECULE
tmp/4phuA00.pdb
 165 158 0 0 0
SMALL
GASTEIGER

@<TRIPOS>ATOM
      1  N        -50.4250    3.8950   62.1050 N.3    80  PRO80      -0.2102
      2  CA       -50.5840    2.8590   61.0700 C.3    80  PRO80       0.1504
      3  C        -50.3840    3.3440   59.6330 C.2    80  PRO80       0.2575
      4  O        -49.8170    2.6290   58.8200 O.2    80  PRO80      -0.2718
      5  CB       -52.0260    2.3800   61.2590 C.3    80  PRO80       0.0282
      6  CG       -52.3800    2.7550   62.6600 C.3    80  PRO80       0.0208
      7  CD       -51.6410    4.0330   62.9250 C.3    80  PRO80       0.0893
      8  N        -50.8730    4.5330   59.3170 N.am   81  VAL81      -0.1980
      9  CA       -50.6110    5.1290   58.0200 C.3    81  VAL81       0.1595
     10  C        -49.1000    5.3220   57.8520 C.2    81  VAL81       0.2287
     11  O        -48.5510    5.0470   56.7870 O.2    81  VAL81      -0.2864
     12  CB       -51.3340    6.4830   57.8460 C.3    81  VAL81       0.0276
     13  CG1      -50.9420    7.1370   56.5290 C.3    81  VAL81       0.0022
     14  CG2      -52.8420    6.2900   57.9070 C.3    81  VAL81       0.0022
     15  N        -46.7880    3.6390   59.3820 N.3    83  ALA83      -0.1231
     16  CA       -46.2140    2.3070   59.3120 C.3    83  ALA83       0.1694
     17  C        -46.1180    1.8390   57.8570 C.2    83  ALA83       0.2591
     18  O        -45.0570    1.4530   57.3860 O.2    83  ALA83      -0.2718
     19  CB       -47.0460    1.3340   60.1310 C.3    83  ALA83       0.0304
     20  N        -47.2420    1.8830   57.1610 N.am   84  VAL84      -0.1980
     21  CA       -47.2950    1.4000   55.7940 C.3    84  VAL84       0.1595
     22  C        -46.5130    2.3080   54.8480 C.2    84  VAL84       0.2287
     23  O        -45.6740    1.8250   54.0920 O.2    84  VAL84      -0.2864
     24  CB       -48.7460    1.1700   55.3090 C.3    84  VAL84       0.0276
     25  CG1      -49.5240    2.4810   55.1860 C.3    84  VAL84       0.0022
     26  CG2      -48.7330    0.4140   53.9870 C.3    84  VAL84       0.0022
     27  N        -42.5410    1.7420   55.7170 N.3    87  PHE87      -0.1241
     28  CA       -41.8570    0.4690   55.5780 C.3    87  PHE87       0.1605
     29  C        -42.2130   -0.3150   54.3190 C.2    87  PHE87       0.2264
     30  O        -41.3780   -1.0690   53.8370 O.2    87  PHE87      -0.2867
     31  CB       -42.0470   -0.3790   56.8360 C.3    87  PHE87       0.0534
     32  CG       -41.2670    0.1240   58.0030 C.ar   87  PHE87      -0.0203
     33  CD1      -39.9410   -0.2550   58.1800 C.ar   87  PHE87      -0.0042
     34  CD2      -41.8370    1.0050   58.9000 C.ar   87  PHE87      -0.0042
     35  CE1      -39.2130    0.2020   59.2590 C.ar   87  PHE87      -0.0003
     36  CE2      -41.1120    1.4780   59.9790 C.ar   87  PHE87      -0.0003
     37  CZ       -39.7930    1.0760   60.1530 C.ar   87  PHE87      -0.0000
     38  N        -39.0730   -1.9360   51.6960 N.3    91  TYR91      -0.1241
     39  CA       -38.9170   -3.3120   51.2440 C.3    91  TYR91       0.1605
     40  C        -39.1940   -3.4640   49.7300 C.2    91  TYR91       0.2264
     41  O        -38.4220   -4.1250   49.0260 O.2    91  TYR91      -0.2867
     42  CB       -39.8270   -4.2270   52.0610 C.3    91  TYR91       0.0534
     43  CG       -39.3430   -4.4590   53.4690 C.ar   91  TYR91      -0.0201
     44  CD1      -38.3120   -5.3620   53.7310 C.ar   91  TYR91      -0.0009
     45  CD2      -39.9220   -3.7950   54.5400 C.ar   91  TYR91      -0.0009
     46  CE1      -37.8600   -5.5750   55.0220 C.ar   91  TYR91       0.0417
     47  CE2      -39.4880   -4.0060   55.8320 C.ar   91  TYR91       0.0417
     48  CZ       -38.4610   -4.8980   56.0710 C.ar   91  TYR91       0.1957
     49  OH       -38.0320   -5.1040   57.3560 O.3    91  TYR91      -0.2866
     50  N        -47.4210   -5.8410   51.1440 N.3   127  LEU127     -0.1245
     51  CA       -48.5920   -5.3500   51.8620 C.3   127  LEU127      0.1561
     52  C        -49.2730   -6.4310   52.6790 C.2   127  LEU127      0.2260
     53  O        -49.7060   -6.1680   53.8000 O.2   127  LEU127     -0.2867
     54  CB       -49.5940   -4.6610   50.9160 C.3   127  LEU127      0.0270
     55  CG       -49.0450   -3.3440   50.3420 C.3   127  LEU127      0.0019
     56  CD1      -49.8910   -2.8580   49.1650 C.3   127  LEU127      0.0001
     57  CD2      -48.9560   -2.2710   51.4220 C.3   127  LEU127      0.0001
     58  N        -46.5080   -7.2690   55.6320 N.3   130  LEU130     -0.1231
     59  CA       -46.4770   -6.2590   56.6670 C.3   130  LEU130      0.1693
     60  C        -47.8380   -6.1270   57.3200 C.2   130  LEU130      0.2592
     61  O        -47.9270   -6.0280   58.5350 O.2   130  LEU130     -0.2718
     62  CB       -46.0110   -4.9290   56.1040 C.3   130  LEU130      0.0284
     63  CG       -44.5680   -4.9470   55.6050 C.3   130  LEU130      0.0019
     64  CD1      -44.2740   -3.6630   54.8490 C.3   130  LEU130      0.0001
     65  CD2      -43.5690   -5.1380   56.7290 C.3   130  LEU130      0.0001
     66  N        -48.8910   -6.1630   56.5120 N.am  131  GLY131     -0.1957
     67  CA       -50.2410   -5.9430   56.9990 C.3   131  GLY131      0.1869
     68  C        -50.7330   -7.0400   57.9080 C.2   131  GLY131      0.2309
     69  O        -51.3980   -6.7820   58.9040 O.2   131  GLY131     -0.2863
     70  N        -48.8580   -9.2770   59.6760 N.3   133  VAL133     -0.1231
     71  CA       -48.1110   -9.2700   60.9280 C.3   133  VAL133      0.1692
     72  C        -48.5490   -8.1140   61.8300 C.2   133  VAL133      0.2592
     73  O        -48.8070   -8.3110   63.0240 O.2   133  VAL133     -0.2718
     74  CB       -46.6040   -9.1650   60.6850 C.3   133  VAL133      0.0266
     75  CG1      -45.8590   -8.9440   61.9920 C.3   133  VAL133      0.0020
     76  CG2      -46.0910  -10.4250   59.9930 C.3   133  VAL133      0.0020
     77  N        -48.6260   -6.9220   61.2430 N.am  134  PHE134     -0.1962
     78  CA       -49.0750   -5.7140   61.9300 C.3   134  PHE134      0.1771
     79  C        -50.4990   -5.8300   62.4500 C.2   134  PHE134      0.2620
     80  O        -50.7500   -5.5950   63.6220 O.2   134  PHE134     -0.2715
     81  CB       -48.9930   -4.5300   60.9730 C.3   134  PHE134      0.0574
     82  CG       -49.2110   -3.2020   61.6220 C.ar  134  PHE134     -0.0200
     83  CD1      -48.1790   -2.5690   62.3030 C.ar  134  PHE134     -0.0042
     84  CD2      -50.4460   -2.5700   61.5450 C.ar  134  PHE134     -0.0042
     85  CE1      -48.3820   -1.3330   62.9050 C.ar  134  PHE134     -0.0003
     86  CE2      -50.6480   -1.3310   62.1400 C.ar  134  PHE134     -0.0003
     87  CZ       -49.6200   -0.7100   62.8220 C.ar  134  PHE134     -0.0000
     88  N        -51.4250   -6.1990   61.5730 N.am  135  GLY135     -0.1954
     89  CA       -52.8300   -6.3580   61.9340 C.3   135  GLY135      0.1869
     90  C        -53.0550   -7.3780   63.0280 C.2   135  GLY135      0.2309
     91  O        -53.9730   -7.2470   63.8480 O.2   135  GLY135     -0.2863
     92  N        -53.4730    1.1700   67.6860 N.3   150  LEU150     -0.1245
     93  CA       -52.7890    0.2660   66.7860 C.3   150  LEU150      0.1561
     94  C        -51.3790    0.7800   66.4900 C.2   150  LEU150      0.2260
     95  O        -51.2040    1.9130   66.0750 O.2   150  LEU150     -0.2867
     96  CB       -53.6000    0.0990   65.5010 C.3   150  LEU150      0.0270
     97  CG       -53.1220   -0.9950   64.5430 C.3   150  LEU150      0.0019
     98  CD1      -53.1460   -2.3750   65.1890 C.3   150  LEU150      0.0001
     99  CD2      -53.9970   -0.9830   63.2960 C.3   150  LEU150      0.0001
    100  N        -44.2730    1.7680   66.5440 N.3   163  LEU163     -0.1245
    101  CA       -43.4860    0.6780   65.9440 C.3   163  LEU163      0.1561
    102  C        -42.1950    0.2450   66.6360 C.2   163  LEU163      0.2260
    103  O        -41.9670   -0.9560   66.8300 O.2   163  LEU163     -0.2867
    104  CB       -43.1370    1.0010   64.4750 C.3   163  LEU163      0.0270
    105  CG       -44.3350    1.1010   63.5540 C.3   163  LEU163      0.0019
    106  CD1      -43.8810    1.5740   62.1760 C.3   163  LEU163      0.0001
    107  CD2      -45.0280   -0.2450   63.4690 C.3   163  LEU163      0.0001
    108  N        -41.9670   -2.1500   69.5320 N.3   166  TRP166     -0.1241
    109  CA       -42.6110   -3.4350   69.2740 C.3   166  TRP166      0.1605
    110  C        -41.7650   -4.6290   69.7380 C.2   166  TRP166      0.2264
    111  O        -40.5870   -4.7310   69.4050 O.2   166  TRP166     -0.2867
    112  CB       -42.8540   -3.5410   67.7710 C.3   166  TRP166      0.0550
    113  CG       -43.7690   -4.6210   67.2820 C.ar  166  TRP166      0.0003
    114  CD1      -44.2930   -5.6730   67.9820 C.ar  166  TRP166      0.0946
    115  CD2      -44.2570   -4.7460   65.9540 C.ar  166  TRP166      0.0152
    116  NE1      -45.0880   -6.4360   67.1650 N.ar  166  TRP166     -0.2442
    117  CE2      -45.0710   -5.8920   65.9090 C.ar  166  TRP166      0.0810
    118  CE3      -44.0840   -3.9950   64.7940 C.ar  166  TRP166      0.0012
    119  CZ2      -45.7150   -6.2980   64.7510 C.ar  166  TRP166      0.0191
    120  CZ3      -44.7240   -4.3960   63.6520 C.ar  166  TRP166      0.0001
    121  CH2      -45.5290   -5.5350   63.6350 C.ar  166  TRP166      0.0015
    122  N        -41.7090   -8.6700   65.7740 N.3   171  ALA171     -0.1245
    123  CA       -41.2180   -7.8260   64.6960 C.3   171  ALA171      0.1562
    124  C        -39.9970   -8.4410   64.0100 C.2   171  ALA171      0.2260
    125  O        -39.7880   -8.2250   62.8250 O.2   171  ALA171     -0.2867
    126  CB       -40.9030   -6.4370   65.2220 C.3   171  ALA171      0.0290
    127  N        -40.5870  -11.2110   61.2980 N.3   174  ALA174     -0.1231
    128  CA       -41.1880  -10.5150   60.1590 C.3   174  ALA174      0.1694
    129  C        -40.1630   -9.7100   59.3760 C.2   174  ALA174      0.2591
    130  O        -40.1030   -9.8030   58.1640 O.2   174  ALA174     -0.2718
    131  CB       -42.3030   -9.6010   60.6260 C.3   174  ALA174      0.0304
    132  N        -39.3720   -8.9000   60.0660 N.am  175  ARG175     -0.1980
    133  CA       -38.2990   -8.1480   59.4110 C.3   175  ARG175      0.1597
    134  C        -37.3370   -9.0710   58.6940 C.2   175  ARG175      0.2287
    135  O        -37.0280   -8.8710   57.5320 O.2   175  ARG175     -0.2864
    136  CB       -37.4710   -7.4200   60.4320 C.3   175  ARG175      0.0334
    137  CG       -38.0720   -6.1590   60.9640 C.3   175  ARG175      0.0492
    138  CD       -37.4100   -5.8440   62.2810 C.3   175  ARG175      0.2205
    139  NE       -38.0710   -4.7300   62.9400 N.pl3 175  ARG175     -0.0865
    140  CZ       -37.9520   -4.4490   64.2320 C.cat 175  ARG175      0.5346
    141  NH1      -37.1920   -5.2010   65.0280 N.pl3 175  ARG175      0.1354
    142  NH2      -38.6160   -3.4070   64.7250 N.pl3 175  ARG175      0.1354
    143  N        -29.9260   -1.2580   56.6470 N.3   394  TYR394     -0.1241
    144  CA       -31.1620   -1.5240   57.3430 C.3   394  TYR394      0.1605
    145  C        -31.4800   -3.0170   57.3290 C.2   394  TYR394      0.2264
    146  O        -31.7770   -3.6130   58.3770 O.2   394  TYR394     -0.2867
    147  CB       -32.3270   -0.7520   56.7240 C.3   394  TYR394      0.0534
    148  CG       -33.6390   -1.1690   57.3220 C.ar  394  TYR394     -0.0201
    149  CD1      -33.9190   -0.9220   58.6660 C.ar  394  TYR394     -0.0009
    150  CD2      -34.5760   -1.8580   56.5730 C.ar  394  TYR394     -0.0009
    151  CE1      -35.1180   -1.3280   59.2330 C.ar  394  TYR394      0.0417
    152  CE2      -35.7710   -2.2720   57.1290 C.ar  394  TYR394      0.0417
    153  CZ       -36.0290   -2.0020   58.4560 C.ar  394  TYR394      0.1957
    154  OH       -37.2040   -2.4210   59.0010 O.3   394  TYR394     -0.2866
    155  N        -29.6600   -0.4570   64.0750 N.3   412  ARG412     -0.1245
    156  CA       -30.9570   -0.2850   63.4430 C.3   412  ARG412      0.1563
    157  C        -31.2480    1.2000   63.1790 C.2   412  ARG412      0.2260
    158  O        -31.6860    1.5550   62.0800 O.2   412  ARG412     -0.2867
    159  CB       -32.0620   -0.9250   64.2800 C.3   412  ARG412      0.0307
    160  CG       -33.4510   -0.7310   63.7100 C.3   412  ARG412      0.0489
    161  CD       -34.5390   -1.3810   64.5460 C.3   412  ARG412      0.2205
    162  NE       -35.8340   -0.9940   64.0040 N.pl3 412  ARG412     -0.0865
    163  CZ       -36.4320   -1.5750   62.9670 C.cat 412  ARG412      0.5346
    164  NH1      -35.8810   -2.6140   62.3580 N.pl3 412  ARG412      0.1354
    165  NH2      -37.5960   -1.1150   62.5360 N.pl3 412  ARG412      0.1354
@<TRIPOS>BOND
     1    41    40    2
     2    56    55    1
     3    40    39    1
     4    55    54    1
     5    55    57    1
     6    54    51    1
     7    50    51    1
     8    39    38    1
     9    39    42    1
    10    51    52    1
    11    42    43    1
    12    52    53    2
    13    43    44   ar
    14    43    45   ar
    15    44    46   ar
    16    30    29    2
    17    26    24    1
    18    23    22    2
    19    29    28    1
    20    45    47   ar
    21    22    21    1
    22    64    63    1
    23    46    48   ar
    24    25    24    1
    25    24    21    1
    26    28    27    1
    27    28    31    1
    28    63    62    1
    29    63    65    1
    30    58    59    1
    31    21    20    1
    32    47    48   ar
    33    48    49    1
    34    62    59    1
    35    66    67    1
    36    66    60   am
    37    13    12    1
    38   150   152   ar
    39   150   148   ar
    40   143   144    1
    41    59    60    1
    42   147   148    1
    43   147   144    1
    44    11    10    2
    45    31    32    1
    46    67    68    1
    47   152   153   ar
    48    20    17   am
    49    60    61    2
    50   148   149   ar
    51   145   144    1
    52   145   146    2
    53    18    17    2
    54   135   134    2
    55    12    14    1
    56    12     9    1
    57    10     9    1
    58    17    16    1
    59    68    69    2
    60    32    33   ar
    61    32    34   ar
    62     9     8    1
    63   130   129    2
    64    33    35   ar
    65   153   154    1
    66   153   151   ar
    67   149   151   ar
    68   134   133    1
    69     4     3    2
    70    34    36   ar
    71    35    37   ar
    72    16    15    1
    73    16    19    1
    74     8     3   am
    75   129   132   am
    76   129   128    1
    77   133   132    1
    78   133   136    1
    79     3     2    1
    80    70    71    1
    81    36    37   ar
    82    76    74    1
    83   128   131    1
    84   128   127    1
    85   136   137    1
    86    74    71    1
    87    74    75    1
    88    71    72    1
    89   137   138    1
    90    81    82    1
    91    81    78    1
    92     2     5    1
    93     2     1    1
    94    77    72   am
    95    77    78    1
    96     5     6    1
    97    84    82   ar
    98    84    86   ar
    99    88    89    1
   100    88    79   am
   101    82    83   ar
   102    72    73    2
   103    78    79    1
   104    89    90    1
   105   158   157    2
   106     1     7    1
   107    86    87   ar
   108   106   105    1
   109   138   139    1
   110    83    85   ar
   111   164   163    1
   112    79    80    2
   113   165   163    1
   114     6     7    1
   115    87    85   ar
   116   125   124    2
   117   139   140    2
   118   163   162    2
   119    90    91    2
   120   157   156    1
   121    99    97    1
   122   156   155    1
   123   156   159    1
   124   107   105    1
   125   105   104    1
   126   121   120   ar
   127   121   119   ar
   128   120   118   ar
   129   160   159    1
   130   160   161    1
   131   162   161    1
   132   124   123    1
   133   140   142    1
   134   140   141    1
   135   104   101    1
   136    97    98    1
   137    97    96    1
   138   123   126    1
   139   123   122    1
   140   119   117   ar
   141   118   115   ar
   142    96    93    1
   143   117   115   ar
   144   117   116   ar
   145   101   100    1
   146   101   102    1
   147   115   113   ar
   148    95    94    2
   149    94    93    1
   150   102   103    2
   151    93    92    1
   152   116   114   ar
   153   113   112    1
   154   113   114   ar
   155   112   109    1
   156   109   108    1
   157   109   110    1
   158   111   110    2
