@<TRIPOS>MOLECULE
tmp/4phvA00.pdb
 105 98 0 0 0
SMALL
GASTEIGER

@<TRIPOS>ATOM
      1  N         26.9450   24.0850    5.9240 N.3     8  ARG8       -0.1245
      2  CA        25.6760   24.7560    6.3120 C.3     8  ARG8        0.1563
      3  C         26.0400   26.1740    6.7480 C.2     8  ARG8        0.2260
      4  O         27.0900   26.3300    7.4030 O.2     8  ARG8       -0.2867
      5  CB        25.1340   24.0090    7.4980 C.3     8  ARG8        0.0307
      6  CG        24.6910   22.5910    7.1720 C.3     8  ARG8        0.0489
      7  CD        23.9140   22.1010    8.3810 C.3     8  ARG8        0.2205
      8  NE        23.2020   20.9270    7.9430 N.pl3   8  ARG8       -0.0865
      9  CZ        22.5070   20.1440    8.7230 C.cat   8  ARG8        0.5346
     10  NH1       22.4270   20.4630   10.0210 N.pl3   8  ARG8        0.1354
     11  NH2       21.8630   19.0660    8.2770 N.pl3   8  ARG8        0.1354
     12  N         21.0160   28.6150   11.6310 N.3    23  LEU23      -0.1301
     13  CA        21.0880   28.4130   10.2030 C.3    23  LEU23       0.1247
     14  C         20.4390   29.5320    9.3990 C.3    23  LEU23       0.2009
     15  O         19.2320   29.6910    9.6630 O.3    23  LEU23      -0.2188
     16  CB        20.2610   27.1260   10.0140 C.3    23  LEU23       0.0217
     17  CG        20.3730   26.4880    8.6440 C.3    23  LEU23       0.0015
     18  CD1       21.7860   25.9350    8.4470 C.3    23  LEU23       0.0000
     19  CD2       19.3500   25.3570    8.5990 C.3    23  LEU23       0.0000
     20  N         18.4300   30.3690    6.6750 N.3    25  ASP25      -0.1239
     21  CA        17.6290   29.4720    5.7960 C.3    25  ASP25       0.1674
     22  C         16.7360   30.2060    4.8230 C.2    25  ASP25       0.2266
     23  O         15.6650   30.6040    5.2480 O.2    25  ASP25      -0.2867
     24  CB        16.9140   28.5400    6.7780 C.3    25  ASP25       0.1410
     25  CG        16.2840   27.3400    6.0970 C.2    25  ASP25       0.3668
     26  OD1       15.9880   27.3900    4.8930 O.co2  25  ASP25      -0.2456
     27  OD2       16.1040   26.3090    6.7420 O.co2  25  ASP25      -0.2456
     28  N         15.0340   29.0190    2.5220 N.3    27  GLY27      -0.1210
     29  CA        13.8800   28.1410    2.2210 C.3    27  GLY27       0.1956
     30  C         12.8510   28.2510    3.3410 C.2    27  GLY27       0.2612
     31  O         11.7170   27.7580    3.1890 O.2    27  GLY27      -0.2717
     32  N         13.2130   28.9000    4.4600 N.am   28  ALA28      -0.1965
     33  CA        12.2630   29.0700    5.5930 C.3    28  ALA28       0.1728
     34  C         11.5150   30.3870    5.5670 C.2    28  ALA28       0.2616
     35  O         12.1500   31.4560    5.6170 O.2    28  ALA28      -0.2715
     36  CB        13.0180   28.9650    6.9390 C.3    28  ALA28       0.0334
     37  N         10.1930   30.3710    5.5550 N.am   29  ASP29      -0.1957
     38  CA         9.3940   31.6060    5.5680 C.3    29  ASP29       0.1840
     39  C          9.4870   32.3480    6.9190 C.2    29  ASP29       0.2622
     40  O          9.5100   33.5840    6.9250 O.2    29  ASP29      -0.2715
     41  CB         7.9620   31.2750    5.2820 C.3    29  ASP29       0.1450
     42  CG         7.7220   30.7530    3.8790 C.2    29  ASP29       0.3671
     43  OD1        8.3620   31.1510    2.9310 O.co2  29  ASP29      -0.2456
     44  OD2        6.8170   29.9180    3.7850 O.co2  29  ASP29      -0.2456
     45  N          9.5530   31.5520    7.9940 N.am   30  ASP30      -0.1971
     46  CA         9.6080   32.1000    9.3410 C.3    30  ASP30       0.1709
     47  C         10.8860   31.6850   10.0700 C.2    30  ASP30       0.2293
     48  O         11.6770   30.8700    9.5870 O.2    30  ASP30      -0.2864
     49  CB         8.4150   31.6370   10.1790 C.3    30  ASP30       0.1436
     50  CG         7.1030   32.0010    9.5020 C.2    30  ASP30       0.3671
     51  OD1        6.8010   33.1700    9.1890 O.co2  30  ASP30      -0.2456
     52  OD2        6.3330   31.0240    9.2730 O.co2  30  ASP30      -0.2456
     53  N         12.2530   30.0420   13.5070 N.3    32  VAL32      -0.1245
     54  CA        11.8600   29.0940   14.5570 C.3    32  VAL32       0.1561
     55  C         13.0780   28.6870   15.3660 C.2    32  VAL32       0.2260
     56  O         14.1080   28.3360   14.7370 O.2    32  VAL32      -0.2867
     57  CB        11.0530   27.9150   13.9760 C.3    32  VAL32       0.0252
     58  CG1       11.7910   27.1410   12.9060 C.3    32  VAL32       0.0019
     59  CG2       10.5550   26.9870   15.0820 C.3    32  VAL32       0.0019
     60  N          3.3810   25.0060   11.6620 N.3    47  ILE47      -0.1231
     61  CA         4.2340   25.2650   10.4840 C.3    47  ILE47       0.1692
     62  C          4.5740   23.9060    9.8840 C.2    47  ILE47       0.2593
     63  O          4.7650   22.9410   10.6600 O.2    47  ILE47      -0.2718
     64  CB         5.4780   26.1330   10.8050 C.3    47  ILE47       0.0266
     65  CG1        6.3380   25.3450   11.8230 C.3    47  ILE47       0.0019
     66  CG2        5.1430   27.5690   11.2760 C.3    47  ILE47       0.0020
     67  CD1        7.6330   26.0700   12.2710 C.3    47  ILE47       0.0001
     68  N          4.5880   23.7920    8.5910 N.am   48  GLY48      -0.1942
     69  CA         4.8350   22.5100    7.9110 C.3    48  GLY48       0.2014
     70  C          6.1210   22.5840    7.1230 C.2    48  GLY48       0.2639
     71  O          6.5200   23.6750    6.6470 O.2    48  GLY48      -0.2714
     72  N          6.7870   21.4830    7.0140 N.am   49  GLY49      -0.1939
     73  CA         8.0510   21.3840    6.2640 C.3    49  GLY49       0.2014
     74  C          8.0500   19.9490    5.7040 C.2    49  GLY49       0.2638
     75  O          6.9990   19.3040    5.6140 O.2    49  GLY49      -0.2714
     76  N          9.2680   19.5370    5.4800 N.am   50  ILE50      -0.1977
     77  CA         9.5270   18.1660    5.0190 C.3    50  ILE50       0.1596
     78  C          9.2550   17.2930    6.2470 C.2    50  ILE50       0.2287
     79  O          9.8640   17.6120    7.3310 O.2    50  ILE50      -0.2864
     80  CB        11.0590   18.0900    4.6780 C.3    50  ILE50       0.0276
     81  CG1       11.1840   18.8820    3.3580 C.3    50  ILE50       0.0022
     82  CG2       11.5490   16.6370    4.7440 C.3    50  ILE50       0.0022
     83  CD1       11.9080   18.1840    2.2320 C.3    50  ILE50       0.0001
     84  N         14.5310   20.8750   15.0650 N.3    81  PRO81      -0.2102
     85  CA        15.8110   20.1910   15.2340 C.3    81  PRO81       0.1504
     86  C         16.9710   21.1850   15.2160 C.2    81  PRO81       0.2575
     87  O         18.0750   20.8180   15.7200 O.2    81  PRO81      -0.2718
     88  CB        15.8700   19.2040   14.0540 C.3    81  PRO81       0.0282
     89  CG        15.0500   19.8840   13.0010 C.3    81  PRO81       0.0208
     90  CD        13.9280   20.6140   13.7330 C.3    81  PRO81       0.0893
     91  N         16.7970   22.3740   14.6660 N.am   82  VAL82      -0.1980
     92  CA        17.9540   23.3360   14.6410 C.3    82  VAL82       0.1595
     93  C         17.3020   24.7050   14.7170 C.2    82  VAL82       0.2287
     94  O         16.0780   24.7810   14.4250 O.2    82  VAL82      -0.2864
     95  CB        18.8950   22.9450   13.5180 C.3    82  VAL82       0.0276
     96  CG1       18.2460   22.0650   12.4310 C.3    82  VAL82       0.0022
     97  CG2       19.5460   24.0210   12.6630 C.3    82  VAL82       0.0022
     98  N         16.4030   28.1580   13.3000 N.3    84  ILE84      -0.1245
     99  CA        16.5050   28.6160   11.8730 C.3    84  ILE84       0.1561
    100  C         16.1390   30.0720   11.7510 C.2    84  ILE84       0.2260
    101  O         15.1360   30.4360   12.3560 O.2    84  ILE84      -0.2867
    102  CB        15.4500   27.7140   11.1280 C.3    84  ILE84       0.0252
    103  CG1       16.0060   26.2420   11.1110 C.3    84  ILE84       0.0019
    104  CG2       14.9950   28.1990    9.7640 C.3    84  ILE84       0.0019
    105  CD1       14.8020   25.3270   10.7140 C.3    84  ILE84       0.0001
@<TRIPOS>BOND
     1    29    28    1
     2    29    30    1
     3    83    81    1
     4    43    42   ar
     5    31    30    2
     6    30    32   am
     7    81    80    1
     8    44    42   ar
     9    42    41    1
    10    32    33    1
    11    80    82    1
    12    80    77    1
    13    22    23    2
    14    22    21    1
    15    26    25   ar
    16    77    76    1
    17    77    78    1
    18    41    38    1
    19    76    74   am
    20    37    34   am
    21    37    38    1
    22    34    33    1
    23    34    35    2
    24    38    39    1
    25    33    36    1
    26    75    74    2
    27    74    73    1
    28    21    20    1
    29    21    24    1
    30     1     2    1
    31    25    27   ar
    32    25    24    1
    33    78    79    2
    34    73    72    1
    35     2     3    1
    36     2     5    1
    37    71    70    2
    38     3     4    2
    39    39    40    2
    40    39    45   am
    41    72    70   am
    42    70    69    1
    43     6     5    1
    44     6     7    1
    45    69    68    1
    46     8     7    1
    47     8     9    2
    48    45    46    1
    49    11     9    1
    50    18    17    1
    51    68    62   am
    52    19    17    1
    53    17    16    1
    54     9    10    1
    55    51    50   ar
    56    52    50   ar
    57    46    47    1
    58    46    49    1
    59    14    15    1
    60    14    13    1
    61    50    49    1
    62    48    47    2
    63   104   102    1
    64    62    61    1
    65    62    63    2
    66    16    13    1
    67    13    12    1
    68    61    64    1
    69    61    60    1
    70   105   103    1
    71    64    66    1
    72    64    65    1
    73   103   102    1
    74   102    99    1
    75   100    99    1
    76   100   101    2
    77    65    67    1
    78    99    98    1
    79    96    95    1
    80    97    95    1
    81    58    57    1
    82    89    90    1
    83    89    88    1
    84    53    54    1
    85    95    92    1
    86    90    84    1
    87    57    54    1
    88    57    59    1
    89    88    85    1
    90    94    93    2
    91    54    55    1
    92    92    91    1
    93    92    93    1
    94    91    86   am
    95    56    55    2
    96    84    85    1
    97    86    85    1
    98    86    87    2
