@<TRIPOS>MOLECULE
tmp/4phwB00.pdb
 192 188 0 0 0
SMALL
GASTEIGER

@<TRIPOS>ATOM
      1  N        -16.4250   31.3000   32.0480 N.3    61  TYR61      -0.1227
      2  CA       -15.4340   32.3760   32.1700 C.3    61  TYR61       0.1736
      3  C        -14.0010   31.9490   31.8260 C.2    61  TYR61       0.2595
      4  O        -13.3250   32.6210   31.0580 O.2    61  TYR61      -0.2718
      5  CB       -15.4770   32.9820   33.5810 C.3    61  TYR61       0.0548
      6  CG       -14.4360   34.0530   33.8030 C.ar   61  TYR61      -0.0200
      7  CD1      -14.5310   35.2950   33.1650 C.ar   61  TYR61      -0.0009
      8  CD2      -13.3440   33.8240   34.6340 C.ar   61  TYR61      -0.0009
      9  CE1      -13.5710   36.2720   33.3560 C.ar   61  TYR61       0.0417
     10  CE2      -12.3790   34.7980   34.8360 C.ar   61  TYR61       0.0417
     11  CZ       -12.4980   36.0130   34.1930 C.ar   61  TYR61       0.1957
     12  OH       -11.5410   36.9540   34.3960 O.3    61  TYR61      -0.2866
     13  N        -13.5410   30.8380   32.3940 N.am   62  HIS62      -0.1975
     14  CA       -12.1580   30.3850   32.2130 C.3    62  HIS62       0.1656
     15  C        -11.9790   29.6050   30.9100 C.2    62  HIS62       0.2291
     16  O        -11.5910   28.4390   30.9050 O.2    62  HIS62      -0.2864
     17  CB       -11.7170   29.5450   33.4120 C.3    62  HIS62       0.0771
     18  CG       -11.5590   30.3340   34.6690 C.ar   62  HIS62       0.0820
     19  ND1      -12.3470   30.1300   35.7800 N.ar   62  HIS62      -0.2267
     20  CD2      -10.7110   31.3370   34.9890 C.ar   62  HIS62       0.1154
     21  CE1      -11.9820   30.9650   36.7360 C.ar   62  HIS62       0.1986
     22  NE2      -10.9910   31.7080   36.2810 N.ar   62  HIS62      -0.2212
     23  N         -4.2060   33.1570   42.9220 N.3   172  LEU172     -0.1245
     24  CA        -4.5000   34.4110   43.6110 C.3   172  LEU172      0.1561
     25  C         -4.1020   34.3830   45.0940 C.2   172  LEU172      0.2260
     26  O         -3.8630   35.4390   45.6940 O.2   172  LEU172     -0.2867
     27  CB        -5.9790   34.7860   43.4390 C.3   172  LEU172      0.0270
     28  CG        -6.3870   36.2400   43.7430 C.3   172  LEU172      0.0019
     29  CD1       -5.6330   37.2380   42.8740 C.3   172  LEU172      0.0001
     30  CD2       -7.8890   36.4230   43.5660 C.3   172  LEU172      0.0001
     31  N         -4.4960   38.8100   34.6040 N.3   211  ASP211     -0.1225
     32  CA        -5.5340   37.8250   34.8970 C.3   211  ASP211      0.1805
     33  C         -6.8180   38.5030   35.3800 C.2   211  ASP211      0.2597
     34  O         -7.9140   38.0910   35.0090 O.2   211  ASP211     -0.2718
     35  CB        -5.0280   36.8110   35.9270 C.3   211  ASP211      0.1424
     36  CG        -5.8300   35.5380   35.9330 C.2   211  ASP211      0.3668
     37  OD1       -6.4110   35.1720   34.8920 O.co2 211  ASP211     -0.2456
     38  OD2       -5.8740   34.8880   36.9860 O.co2 211  ASP211     -0.2456
     39  N         -6.6630   39.5640   36.1730 N.am  212  LEU212     -0.1979
     40  CA        -7.7880   40.3420   36.7140 C.3   212  LEU212      0.1596
     41  C         -8.3000   41.4540   35.7980 C.2   212  LEU212      0.2287
     42  O         -9.1540   42.2410   36.2150 O.2   212  LEU212     -0.2864
     43  CB        -7.3890   40.9660   38.0580 C.3   212  LEU212      0.0297
     44  CG        -7.7160   40.1990   39.3330 C.3   212  LEU212      0.0022
     45  CD1       -7.5220   38.6980   39.1840 C.3   212  LEU212      0.0001
     46  CD2       -6.8640   40.7480   40.4640 C.3   212  LEU212      0.0001
     47  N        -10.4300   42.1830   33.6390 N.3   214  SER214     -0.1202
     48  CA       -11.8370   42.5560   33.3900 C.3   214  SER214      0.2020
     49  C        -12.2610   43.7920   34.2030 C.2   214  SER214      0.2618
     50  O        -13.1470   44.5340   33.7710 O.2   214  SER214     -0.2717
     51  CB       -12.8070   41.3830   33.6270 C.3   214  SER214      0.2103
     52  OG       -13.1270   41.2310   34.9940 O.3   214  SER214     -0.2182
     53  N        -11.6140   44.0180   35.3530 N.am  215  VAL215     -0.1979
     54  CA       -11.8480   45.2310   36.1550 C.3   215  VAL215      0.1595
     55  C        -11.2530   46.5030   35.5360 C.2   215  VAL215      0.2287
     56  O        -11.5880   47.6030   35.9600 O.2   215  VAL215     -0.2864
     57  CB       -11.3060   45.1100   37.6030 C.3   215  VAL215      0.0276
     58  CG1      -11.8450   43.8640   38.2830 C.3   215  VAL215      0.0022
     59  CG2       -9.7800   45.1410   37.6410 C.3   215  VAL215      0.0022
     60  N        -16.9620   45.2820   31.6020 N.3   222  THR222     -0.1218
     61  CA       -16.7680   44.7930   32.9660 C.3   222  THR222      0.1862
     62  C        -18.0530   44.2100   33.5530 C.2   222  THR222      0.2287
     63  O        -18.0130   43.1750   34.2170 O.2   222  THR222     -0.2866
     64  CB       -16.2550   45.9190   33.8840 C.3   222  THR222      0.1770
     65  OG1      -15.0270   46.4340   33.3570 O.3   222  THR222     -0.2211
     66  CG2      -16.0150   45.4140   35.2970 C.3   222  THR222      0.0375
     67  N        -18.7600   40.1630   34.4130 N.3   226  ALA226     -0.1245
     68  CA       -19.2060   39.7480   35.7510 C.3   226  ALA226      0.1562
     69  C        -20.3190   38.7010   35.7110 C.2   226  ALA226      0.2260
     70  O        -20.4010   37.8730   36.6160 O.2   226  ALA226     -0.2867
     71  CB       -19.6630   40.9520   36.5770 C.3   226  ALA226      0.0290
     72  N        -18.3980   35.3680   35.2480 N.3   229  ILE229     -0.1231
     73  CA       -17.6840   34.9960   36.4610 C.3   229  ILE229      0.1692
     74  C        -18.6320   34.3170   37.4580 C.2   229  ILE229      0.2592
     75  O        -18.3300   33.2440   38.0010 O.2   229  ILE229     -0.2718
     76  CB       -17.0250   36.2330   37.1120 C.3   229  ILE229      0.0266
     77  CG1      -15.8170   36.6800   36.2720 C.3   229  ILE229      0.0019
     78  CG2      -16.6020   35.9390   38.5510 C.3   229  ILE229      0.0020
     79  CD1      -15.4180   38.1290   36.4820 C.3   229  ILE229      0.0001
     80  N        -19.7750   34.9500   37.6920 N.am  230  TYR230     -0.1976
     81  CA       -20.7180   34.4550   38.6790 C.3   230  TYR230      0.1639
     82  C        -21.4640   33.1990   38.2160 C.2   230  TYR230      0.2290
     83  O        -21.8450   32.3730   39.0540 O.2   230  TYR230     -0.2864
     84  CB       -21.6850   35.5670   39.1180 C.3   230  TYR230      0.0560
     85  CG       -21.0620   36.5450   40.1010 C.ar  230  TYR230     -0.0198
     86  CD1      -20.7880   36.1670   41.4150 C.ar  230  TYR230     -0.0009
     87  CD2      -20.7540   37.8480   39.7230 C.ar  230  TYR230     -0.0009
     88  CE1      -20.2300   37.0600   42.3190 C.ar  230  TYR230      0.0417
     89  CE2      -20.1980   38.7450   40.6180 C.ar  230  TYR230      0.0417
     90  CZ       -19.9370   38.3460   41.9140 C.ar  230  TYR230      0.1957
     91  OH       -19.3790   39.2420   42.7960 O.3   230  TYR230     -0.2866
     92  N        -19.0010   30.6480   39.3450 N.3   233  PHE233     -0.1227
     93  CA       -18.9450   30.6520   40.8010 C.3   233  PHE233      0.1736
     94  C        -20.1940   30.0100   41.4050 C.2   233  PHE233      0.2595
     95  O        -20.0850   29.2020   42.3200 O.2   233  PHE233     -0.2718
     96  CB       -18.7740   32.0890   41.3230 C.3   233  PHE233      0.0547
     97  CG       -17.3420   32.5600   41.4010 C.ar  233  PHE233     -0.0202
     98  CD1      -16.3440   32.0210   40.5820 C.ar  233  PHE233     -0.0042
     99  CD2      -16.9930   33.5730   42.2920 C.ar  233  PHE233     -0.0042
    100  CE1      -15.0320   32.4740   40.6720 C.ar  233  PHE233     -0.0003
    101  CE2      -15.6830   34.0270   42.3830 C.ar  233  PHE233     -0.0003
    102  CZ       -14.7020   33.4790   41.5750 C.ar  233  PHE233     -0.0000
    103  N        -21.3720   30.3580   40.8820 N.am  234  TRP234     -0.1976
    104  CA       -22.6310   29.8180   41.4000 C.3   234  TRP234      0.1640
    105  C        -22.7760   28.3210   41.1030 C.2   234  TRP234      0.2290
    106  O        -23.3460   27.5810   41.9070 O.2   234  TRP234     -0.2864
    107  CB       -23.8320   30.6060   40.8690 C.3   234  TRP234      0.0576
    108  CG       -23.9000   32.0410   41.3710 C.ar  234  TRP234      0.0006
    109  CD1      -23.4250   32.5200   42.5630 C.ar  234  TRP234      0.0946
    110  CD2      -24.4940   33.1640   40.7010 C.ar  234  TRP234      0.0152
    111  NE1      -23.6670   33.8640   42.6650 N.ar  234  TRP234     -0.2442
    112  CE2      -24.3280   34.2880   41.5440 C.ar  234  TRP234      0.0810
    113  CE3      -25.1410   33.3320   39.4670 C.ar  234  TRP234      0.0012
    114  CZ2      -24.7880   35.5620   41.1970 C.ar  234  TRP234      0.0191
    115  CZ3      -25.5970   34.6050   39.1170 C.ar  234  TRP234      0.0001
    116  CH2      -25.4180   35.7020   39.9830 C.ar  234  TRP234      0.0015
    117  N        -20.8100   33.0170   50.6060 N.3   249  PRO249     -0.2102
    118  CA       -21.7830   33.8580   49.8800 C.3   249  PRO249      0.1504
    119  C        -21.4020   34.2250   48.4280 C.2   249  PRO249      0.2575
    120  O        -22.2820   34.4050   47.5790 O.2   249  PRO249     -0.2718
    121  CB       -21.8540   35.1270   50.7420 C.3   249  PRO249      0.0282
    122  CG       -21.5050   34.6740   52.1110 C.3   249  PRO249      0.0208
    123  CD       -20.4650   33.6090   51.9170 C.3   249  PRO249      0.0893
    124  N        -20.1020   34.3480   48.1790 N.am  250  MET250     -0.1980
    125  CA       -19.5390   34.6360   46.8590 C.3   250  MET250      0.1605
    126  C        -19.9940   33.6480   45.7780 C.2   250  MET250      0.2287
    127  O        -20.1990   34.0270   44.6200 O.2   250  MET250     -0.2864
    128  CB       -18.0140   34.6060   46.9930 C.3   250  MET250      0.0413
    129  CG       -17.2000   34.7930   45.7330 C.3   250  MET250      0.0598
    130  SD       -15.4590   34.8860   46.1970 S.3   250  MET250     -0.1393
    131  CE       -14.9600   33.1690   46.1530 C.3   250  MET250      0.0692
    132  N        -27.4990   34.4280   47.3290 N.3   255  LYS255     -0.1245
    133  CA       -26.9870   35.7260   47.7750 C.3   255  LYS255      0.1561
    134  C        -26.7750   36.7050   46.6160 C.2   255  LYS255      0.2260
    135  O        -26.0820   37.7060   46.7820 O.2   255  LYS255     -0.2867
    136  CB       -25.6630   35.5480   48.5340 C.3   255  LYS255      0.0271
    137  CG       -25.6780   34.5050   49.6500 C.3   255  LYS255      0.0035
    138  CD       -26.7830   34.7520   50.6620 C.3   255  LYS255      0.0206
    139  CE       -26.5770   33.9500   51.9380 C.3   255  LYS255      0.1093
    140  NZ       -25.6030   34.6050   52.8570 N.3   255  LYS255     -0.1314
    141  N        -26.2990   40.5760   47.0450 N.3   258  GLU258     -0.1231
    142  CA       -25.1060   41.1040   47.7400 C.3   258  GLU258      0.1699
    143  C        -23.8900   41.2440   46.8040 C.2   258  GLU258      0.2592
    144  O        -22.8130   41.6280   47.2620 O.2   258  GLU258     -0.2718
    145  CB       -24.6960   40.2110   48.9280 C.3   258  GLU258      0.0402
    146  CG       -25.6420   40.1720   50.1230 C.3   258  GLU258      0.1161
    147  CD       -25.3740   38.9680   51.0220 C.2   258  GLU258      0.3649
    148  OE1      -26.3470   38.2970   51.4300 O.co2 258  GLU258     -0.2457
    149  OE2      -24.1880   38.6680   51.2950 O.co2 258  GLU258     -0.2457
    150  N        -24.0480   40.9230   45.5160 N.am  259  VAL259     -0.1980
    151  CA       -22.9410   41.0070   44.5390 C.3   259  VAL259      0.1595
    152  C        -22.2500   42.3900   44.4940 C.2   259  VAL259      0.2287
    153  O        -21.0200   42.4520   44.5130 O.2   259  VAL259     -0.2864
    154  CB       -23.3890   40.5630   43.1130 C.3   259  VAL259      0.0276
    155  CG1      -22.4350   41.0620   42.0390 C.3   259  VAL259      0.0022
    156  CG2      -23.5010   39.0480   43.0330 C.3   259  VAL259      0.0022
    157  N        -20.0180   42.8060   47.4120 N.3   262  GLY262     -0.1210
    158  CA       -18.9290   41.8600   47.2060 C.3   262  GLY262      0.1956
    159  C        -17.8920   42.3450   46.2010 C.2   262  GLY262      0.2611
    160  O        -16.6800   42.2070   46.4270 O.2   262  GLY262     -0.2717
    161  N        -18.3630   42.9110   45.0920 N.am  263  GLN263     -0.1979
    162  CA       -17.4680   43.5480   44.1270 C.3   263  GLN263      0.1601
    163  C        -16.6920   44.7320   44.7280 C.2   263  GLN263      0.2287
    164  O        -15.4820   44.7980   44.5920 O.2   263  GLN263     -0.2864
    165  CB       -18.2330   43.9750   42.8700 C.3   263  GLN263      0.0394
    166  CG       -18.5680   42.8170   41.9510 C.3   263  GLN263      0.0908
    167  CD       -17.3420   42.2280   41.2710 C.2   263  GLN263      0.2608
    168  OE1      -16.6600   42.8990   40.5080 O.2   263  GLN263     -0.2717
    169  NE2      -17.0670   40.9640   41.5420 N.am  263  GLN263     -0.0878
    170  N        -13.9160   43.6720   46.9230 N.3   266  PHE266     -0.1227
    171  CA       -12.8440   43.1200   46.0860 C.3   266  PHE266      0.1736
    172  C        -11.9770   44.2150   45.4570 C.2   266  PHE266      0.2595
    173  O        -10.7480   44.1000   45.4430 O.2   266  PHE266     -0.2718
    174  CB       -13.4410   42.2150   44.9960 C.3   266  PHE266      0.0547
    175  CG       -12.4250   41.6190   44.0560 C.ar  266  PHE266     -0.0202
    176  CD1      -11.6810   40.5040   44.4250 C.ar  266  PHE266     -0.0042
    177  CD2      -12.2390   42.1510   42.7820 C.ar  266  PHE266     -0.0042
    178  CE1      -10.7590   39.9470   43.5520 C.ar  266  PHE266     -0.0003
    179  CE2      -11.3180   41.6000   41.9070 C.ar  266  PHE266     -0.0003
    180  CZ       -10.5760   40.4990   42.2930 C.ar  266  PHE266     -0.0000
    181  N        -12.6050   45.2710   44.9470 N.am  267  TYR267     -0.1976
    182  CA       -11.8490   46.3790   44.3740 C.3   267  TYR267      0.1639
    183  C        -10.9500   47.0450   45.4310 C.2   267  TYR267      0.2290
    184  O         -9.7600   47.2600   45.1850 O.2   267  TYR267     -0.2864
    185  CB       -12.7730   47.4020   43.6970 C.3   267  TYR267      0.0560
    186  CG       -13.1920   47.0250   42.2810 C.ar  267  TYR267     -0.0198
    187  CD1      -14.0460   45.9520   42.0460 C.ar  267  TYR267     -0.0009
    188  CD2      -12.7410   47.7480   41.1840 C.ar  267  TYR267     -0.0009
    189  CE1      -14.4340   45.6070   40.7630 C.ar  267  TYR267      0.0417
    190  CE2      -13.1250   47.4110   39.8920 C.ar  267  TYR267      0.0417
    191  CZ       -13.9750   46.3430   39.6870 C.ar  267  TYR267      0.1957
    192  OH       -14.3640   45.9980   38.4130 O.3   267  TYR267     -0.2866
@<TRIPOS>BOND
     1    16    15    2
     2    15    14    1
     3     4     3    2
     4    60    61    1
     5     3     2    1
     6     3    13   am
     7     1     2    1
     8     2     5    1
     9    14    13    1
    10    14    17    1
    11    61    62    1
    12    61    64    1
    13     7     9   ar
    14     7     6   ar
    15     9    11   ar
    16    65    64    1
    17    48    51    1
    18    48    47    1
    19    48    49    1
    20    17    18    1
    21    62    63    2
    22     5     6    1
    23    51    52    1
    24    50    49    2
    25     6     8   ar
    26    64    66    1
    27    11    12    1
    28    11    10   ar
    29    49    53   am
    30    67    68    1
    31    31    32    1
    32     8    10   ar
    33    18    20   ar
    34    18    19   ar
    35    37    36   ar
    36    32    33    1
    37    32    35    1
    38    20    22   ar
    39    34    33    2
    40    72    73    1
    41    53    54    1
    42    33    39   am
    43    55    56    2
    44    55    54    1
    45    69    68    1
    46    69    70    2
    47    68    71    1
    48    19    21   ar
    49    41    42    2
    50    41    40    1
    51    35    36    1
    52    36    38   ar
    53    54    57    1
    54    39    40    1
    55    77    79    1
    56    77    76    1
    57    22    21   ar
    58    73    76    1
    59    73    74    1
    60    40    43    1
    61    76    78    1
    62    74    80   am
    63    74    75    2
    64    57    59    1
    65    57    58    1
    66    80    81    1
    67    43    44    1
    68    82    81    1
    69    82    83    2
    70   192   191    1
    71    81    84    1
    72   115   113   ar
    73   115   116   ar
    74    84    85    1
    75    45    44    1
    76    44    46    1
    77    92    93    1
    78   113   110   ar
    79   191   190   ar
    80   191   189   ar
    81    87    85   ar
    82    87    89   ar
    83   190   188   ar
    84   116   114   ar
    85    85    86   ar
    86   168   167    2
    87    98   100   ar
    88    98    97   ar
    89    89    90   ar
    90   100   102   ar
    91   110   108   ar
    92   110   112   ar
    93   189   187   ar
    94    93    96    1
    95    93    94    1
    96   107   108    1
    97   107   104    1
    98   103   104    1
    99   103    94   am
   100   105   104    1
   101   105   106    2
   102   188   186   ar
   103   114   112   ar
   104   167   169   am
   105   167   166    1
   106    96    97    1
   107   108   109   ar
   108    97    99   ar
   109    94    95    2
   110    86    88   ar
   111   112   111   ar
   112   102   101   ar
   113   179   180   ar
   114   179   177   ar
   115    90    88   ar
   116    90    91    1
   117   166   165    1
   118   155   154    1
   119   187   186   ar
   120   186   185    1
   121    99   101   ar
   122   180   178   ar
   123   109   111   ar
   124   177   175   ar
   125   165   162    1
   126    29    28    1
   127    23    24    1
   128   156   154    1
   129   154   151    1
   130    27    24    1
   131    27    28    1
   132   178   176   ar
   133    30    28    1
   134    24    25    1
   135   185   182    1
   136   175   176   ar
   137   175   174    1
   138   162   163    1
   139   162   161    1
   140   182   181    1
   141   182   183    1
   142   152   153    2
   143   152   151    1
   144   151   150    1
   145   164   163    2
   146   127   126    2
   147   181   172   am
   148   174   171    1
   149   161   159   am
   150    25    26    2
   151   184   183    2
   152   173   172    2
   153   172   171    1
   154   150   143   am
   155   129   130    1
   156   129   128    1
   157   126   125    1
   158   171   170    1
   159   131   130    1
   160   159   160    2
   161   159   158    1
   162   134   135    2
   163   134   133    1
   164   143   144    2
   165   143   142    1
   166   125   128    1
   167   125   124    1
   168   141   142    1
   169   158   157    1
   170   132   133    1
   171   120   119    2
   172   142   145    1
   173   133   136    1
   174   124   119   am
   175   119   118    1
   176   136   137    1
   177   145   146    1
   178   137   138    1
   179   118   117    1
   180   118   121    1
   181   146   147    1
   182   117   123    1
   183   138   139    1
   184   121   122    1
   185   147   149   ar
   186   147   148   ar
   187   123   122    1
   188   139   140    1
