@<TRIPOS>MOLECULE
tmp/4phzK00.pdb
 241 226 0 0 0
SMALL
GASTEIGER

@<TRIPOS>ATOM
      1  N         20.8570  -52.9710  -85.9670 N.3     5  ASP5       -0.1239
      2  CA        21.1230  -52.3580  -87.2850 C.3     5  ASP5        0.1674
      3  C         22.1430  -51.1880  -87.2400 C.2     5  ASP5        0.2266
      4  O         23.2320  -51.2890  -87.8350 O.2     5  ASP5       -0.2867
      5  CB        19.8310  -51.9490  -88.0010 C.3     5  ASP5        0.1410
      6  CG        20.0090  -51.8530  -89.5250 C.2     5  ASP5        0.3668
      7  OD1       21.0380  -51.3220  -89.9960 O.co2   5  ASP5       -0.2456
      8  OD2       19.1130  -52.3040  -90.2720 O.co2   5  ASP5       -0.2456
      9  N         20.4430  -46.2190  -88.8190 N.3     8  GLY8       -0.1210
     10  CA        19.6010  -45.0980  -88.4030 C.3     8  GLY8        0.1956
     11  C         20.3010  -44.1340  -87.4680 C.2     8  GLY8        0.2611
     12  O         20.2700  -42.9270  -87.6920 O.2     8  GLY8       -0.2717
     13  N         20.9330  -44.6740  -86.4280 N.am    9  MET9       -0.1979
     14  CA        21.7710  -43.8910  -85.5370 C.3     9  MET9        0.1605
     15  C         22.8090  -43.0960  -86.3220 C.2     9  MET9        0.2287
     16  O         22.7800  -41.8600  -86.3000 O.2     9  MET9       -0.2864
     17  CB        22.4690  -44.7920  -84.5450 C.3     9  MET9        0.0413
     18  CG        23.3240  -44.0510  -83.5590 C.3     9  MET9        0.0598
     19  SD        23.8280  -45.1590  -82.2470 S.3     9  MET9       -0.1393
     20  CE        25.5840  -45.3720  -82.5640 C.3     9  MET9        0.0692
     21  N         23.0390  -42.3130  -89.3880 N.3    11  ILE11      -0.1231
     22  CA        22.3640  -41.3050  -90.1900 C.3    11  ILE11       0.1692
     23  C         22.1340  -40.0440  -89.3540 C.2    11  ILE11       0.2592
     24  O         22.6390  -38.9780  -89.7210 O.2    11  ILE11      -0.2718
     25  CB        21.0620  -41.8470  -90.8220 C.3    11  ILE11       0.0266
     26  CG1       21.3960  -42.7620  -92.0130 C.3    11  ILE11       0.0019
     27  CG2       20.1320  -40.7190  -91.2520 C.3    11  ILE11       0.0020
     28  CD1       20.3820  -43.8620  -92.2750 C.3    11  ILE11       0.0001
     29  N         21.4230  -40.1770  -88.2280 N.am   12  GLY12      -0.1957
     30  CA        21.1560  -39.0670  -87.3020 C.3    12  GLY12       0.1869
     31  C         22.3960  -38.3700  -86.7360 C.2    12  GLY12       0.2309
     32  O         22.4900  -37.1390  -86.7850 O.2    12  GLY12      -0.2863
     33  N         24.0510  -36.5640  -89.6620 N.3    15  LEU15      -0.1231
     34  CA        23.1600  -35.4540  -90.0240 C.3    15  LEU15       0.1693
     35  C         23.0070  -34.3710  -88.9580 C.2    15  LEU15       0.2591
     36  O         22.2810  -33.3880  -89.1560 O.2    15  LEU15      -0.2718
     37  CB        21.7610  -35.9770  -90.3090 C.3    15  LEU15       0.0284
     38  CG        21.2780  -36.4380  -91.6830 C.3    15  LEU15       0.0019
     39  CD1       19.9900  -37.2320  -91.4970 C.3    15  LEU15       0.0001
     40  CD2       21.0410  -35.2620  -92.6200 C.3    15  LEU15       0.0001
     41  N         23.6470  -34.5640  -87.8140 N.am   16  LEU16      -0.1980
     42  CA        23.4980  -33.6370  -86.7150 C.3    16  LEU16       0.1596
     43  C         24.8110  -32.9100  -86.5160 C.2    16  LEU16       0.2287
     44  O         24.8860  -31.7030  -86.7610 O.2    16  LEU16      -0.2864
     45  CB        23.0670  -34.3750  -85.4430 C.3    16  LEU16       0.0297
     46  CG        22.2690  -33.5610  -84.4220 C.3    16  LEU16       0.0022
     47  CD1       20.9340  -33.1100  -85.0070 C.3    16  LEU16       0.0001
     48  CD2       22.0790  -34.3570  -83.1380 C.3    16  LEU16       0.0001
     49  N         25.4200  -30.7870  -89.3350 N.3    19  PHE19      -0.1241
     50  CA        24.6000  -29.5980  -89.3910 C.3    19  PHE19       0.1605
     51  C         25.1070  -28.5310  -88.4290 C.2    19  PHE19       0.2264
     52  O         25.2330  -27.3690  -88.7950 O.2    19  PHE19      -0.2867
     53  CB        23.1570  -29.9310  -89.0930 C.3    19  PHE19       0.0534
     54  CG        22.3000  -28.7340  -88.9140 C.ar   19  PHE19      -0.0203
     55  CD1       21.8920  -27.9990  -90.0110 C.ar   19  PHE19      -0.0042
     56  CD2       21.9050  -28.3340  -87.6480 C.ar   19  PHE19      -0.0042
     57  CE1       21.0850  -26.8810  -89.8560 C.ar   19  PHE19      -0.0003
     58  CE2       21.1050  -27.2170  -87.4810 C.ar   19  PHE19      -0.0003
     59  CZ        20.6920  -26.4860  -88.5900 C.ar   19  PHE19      -0.0000
     60  N          9.5610  -24.3360  -89.2210 N.3    57  LEU57      -0.1245
     61  CA        10.1650  -25.5950  -89.6790 C.3    57  LEU57       0.1561
     62  C         10.3240  -26.6280  -88.5560 C.2    57  LEU57       0.2260
     63  O         10.1270  -27.8180  -88.7900 O.2    57  LEU57      -0.2867
     64  CB        11.5160  -25.3220  -90.3480 C.3    57  LEU57       0.0270
     65  CG        12.1650  -26.4010  -91.2240 C.3    57  LEU57       0.0019
     66  CD1       13.1190  -25.8080  -92.2530 C.3    57  LEU57       0.0001
     67  CD2       12.8980  -27.4230  -90.3750 C.3    57  LEU57       0.0001
     68  N          6.8490  -28.0220  -87.4310 N.3    60  VAL60      -0.1231
     69  CA         6.3220  -28.9780  -88.3820 C.3    60  VAL60       0.1692
     70  C          7.0580  -30.3120  -88.2780 C.2    60  VAL60       0.2592
     71  O          6.4160  -31.3670  -88.2740 O.2    60  VAL60      -0.2718
     72  CB         6.2130  -28.3960  -89.8100 C.3    60  VAL60       0.0266
     73  CG1        6.6160  -29.4090  -90.8820 C.3    60  VAL60       0.0020
     74  CG2        4.7870  -27.8850  -90.0250 C.3    60  VAL60       0.0020
     75  N          8.3810  -30.2650  -88.1360 N.am   61  SER61      -0.1952
     76  CA         9.1710  -31.4780  -87.8710 C.3    61  SER61       0.1924
     77  C          8.6610  -32.2290  -86.6520 C.2    61  SER61       0.2314
     78  O          8.5170  -33.4530  -86.6790 O.2    61  SER61      -0.2863
     79  CB        10.6400  -31.1390  -87.6230 C.3    61  SER61       0.2116
     80  OG        11.2400  -30.5570  -88.7580 O.3    61  SER61      -0.2180
     81  N          5.2450  -33.5650  -87.1950 N.3    64  GLY64      -0.1210
     82  CA         5.4180  -34.5330  -88.2670 C.3    64  GLY64       0.1956
     83  C          5.8910  -35.8360  -87.6820 C.2    64  GLY64       0.2611
     84  O          5.2010  -36.8480  -87.7590 O.2    64  GLY64      -0.2717
     85  N          7.0680  -35.7880  -87.0690 N.am   65  LEU65      -0.1979
     86  CA         7.6760  -36.9460  -86.3940 C.3    65  LEU65       0.1596
     87  C          6.7050  -37.6370  -85.4380 C.2    65  LEU65       0.2287
     88  O          6.6910  -38.8650  -85.3270 O.2    65  LEU65      -0.2864
     89  CB         8.9230  -36.5010  -85.6260 C.3    65  LEU65       0.0297
     90  CG         9.7840  -37.5580  -84.9470 C.3    65  LEU65       0.0022
     91  CD1       10.0470  -38.7130  -85.8960 C.3    65  LEU65       0.0001
     92  CD2       11.1000  -36.9800  -84.4500 C.3    65  LEU65       0.0001
     93  N          3.5030  -39.2780  -87.5940 N.3    68  TYR68      -0.1227
     94  CA         3.9890  -40.4070  -88.3580 C.3    68  TYR68       0.1736
     95  C          4.1690  -41.6200  -87.4660 C.2    68  TYR68       0.2595
     96  O          3.7510  -42.7240  -87.8110 O.2    68  TYR68      -0.2718
     97  CB         5.3070  -40.0720  -89.0350 C.3    68  TYR68       0.0548
     98  CG         6.0270  -41.2920  -89.5690 C.ar   68  TYR68      -0.0200
     99  CD1        5.7620  -41.7820  -90.8620 C.ar   68  TYR68      -0.0009
    100  CD2        6.9620  -41.9750  -88.7800 C.ar   68  TYR68      -0.0009
    101  CE1        6.4250  -42.9060  -91.3580 C.ar   68  TYR68       0.0417
    102  CE2        7.6160  -43.1040  -89.2620 C.ar   68  TYR68       0.0417
    103  CZ         7.3540  -43.5640  -90.5500 C.ar   68  TYR68       0.1957
    104  OH         8.0140  -44.6800  -91.0260 O.3    68  TYR68      -0.2866
    105  N          4.7970  -41.4190  -86.3170 N.am   69  LEU69      -0.1980
    106  CA         5.0560  -42.5270  -85.4080 C.3    69  LEU69       0.1596
    107  C          3.8280  -43.0930  -84.7140 C.2    69  LEU69       0.2287
    108  O          3.7840  -44.2850  -84.4070 O.2    69  LEU69      -0.2864
    109  CB         6.1290  -42.1620  -84.4000 C.3    69  LEU69       0.0297
    110  CG         7.4670  -42.3610  -85.0810 C.3    69  LEU69       0.0022
    111  CD1        8.6000  -42.0370  -84.1260 C.3    69  LEU69       0.0001
    112  CD2        7.5940  -43.7880  -85.5900 C.3    69  LEU69       0.0001
    113  N          2.2300  -45.1950  -87.7540 N.3    72  THR72      -0.1218
    114  CA         2.9230  -46.4700  -87.9590 C.3    72  THR72       0.1862
    115  C          3.0870  -47.2760  -86.6680 C.2    72  THR72       0.2287
    116  O          3.8700  -48.2240  -86.6150 O.2    72  THR72      -0.2866
    117  CB         4.2790  -46.2740  -88.6480 C.3    72  THR72       0.1770
    118  OG1        5.1900  -45.6060  -87.7590 O.3    72  THR72      -0.2211
    119  CG2        4.0940  -45.4460  -89.9100 C.3    72  THR72       0.0375
    120  N          2.5690  -49.9920  -83.9310 N.3    74  ASP74      -0.1239
    121  CA         2.1770  -51.3970  -83.8630 C.3    74  ASP74       0.1674
    122  C          0.8160  -51.5840  -83.1510 C.2    74  ASP74       0.2266
    123  O          0.7260  -51.5560  -81.9180 O.2    74  ASP74      -0.2867
    124  CB         3.2990  -52.1870  -83.1790 C.3    74  ASP74       0.1410
    125  CG         3.0410  -53.6770  -83.1380 C.2    74  ASP74       0.3668
    126  OD1        2.0020  -54.1670  -83.6410 O.co2  74  ASP74      -0.2456
    127  OD2        3.9040  -54.3720  -82.5750 O.co2  74  ASP74      -0.2456
    128  N         11.8700  -59.5610  -81.8470 N.3    84  GLU84      -0.1245
    129  CA        11.3600  -58.3080  -82.3780 C.3    84  GLU84       0.1567
    130  C         11.3630  -57.2020  -81.3050 C.2    84  GLU84       0.2260
    131  O         11.6550  -56.0400  -81.6070 O.2    84  GLU84      -0.2867
    132  CB         9.9720  -58.5070  -83.0130 C.3    84  GLU84       0.0388
    133  CG         9.2660  -57.2310  -83.4880 C.3    84  GLU84       0.1160
    134  CD        10.0460  -56.4240  -84.5270 C.2    84  GLU84       0.3649
    135  OE1       11.1010  -56.9080  -84.9970 O.co2  84  GLU84      -0.2457
    136  OE2        9.6030  -55.2970  -84.8770 O.co2  84  GLU84      -0.2457
    137  N         14.9760  -56.1300  -80.8490 N.3    87  ARG87      -0.1231
    138  CA        15.3400  -55.2150  -81.9030 C.3    87  ARG87       0.1694
    139  C         14.8360  -53.8000  -81.5650 C.2    87  ARG87       0.2591
    140  O         15.6130  -52.8440  -81.5530 O.2    87  ARG87      -0.2718
    141  CB        14.7970  -55.6890  -83.2460 C.3    87  ARG87       0.0321
    142  CG        15.4010  -54.9310  -84.4120 C.3    87  ARG87       0.0489
    143  CD        14.5250  -55.0380  -85.6350 C.3    87  ARG87       0.2205
    144  NE        13.2100  -54.4190  -85.4600 N.pl3  87  ARG87      -0.0865
    145  CZ        12.9290  -53.1460  -85.7280 C.cat  87  ARG87       0.5346
    146  NH1       13.8660  -52.3090  -86.1630 N.pl3  87  ARG87       0.1354
    147  NH2       11.6970  -52.7030  -85.5520 N.pl3  87  ARG87       0.1354
    148  N         13.5470  -53.6880  -81.2610 N.am   88  ARG88      -0.1980
    149  CA        12.9140  -52.4030  -80.9450 C.3    88  ARG88       0.1597
    150  C         13.5570  -51.6320  -79.7700 C.2    88  ARG88       0.2287
    151  O         13.7430  -50.4160  -79.8670 O.2    88  ARG88      -0.2864
    152  CB        11.4050  -52.5840  -80.7380 C.3    88  ARG88       0.0334
    153  CG        10.6960  -53.1670  -81.9560 C.3    88  ARG88       0.0492
    154  CD         9.2500  -53.5350  -81.6570 C.3    88  ARG88       0.2205
    155  NE         8.4690  -53.6940  -82.8890 N.pl3  88  ARG88      -0.0865
    156  CZ         7.1380  -53.8130  -82.9590 C.cat  88  ARG88       0.5346
    157  NH1        6.3830  -53.8100  -81.8730 N.pl3  88  ARG88       0.1354
    158  NH2        6.5470  -53.9340  -84.1380 N.pl3  88  ARG88       0.1354
    159  N         16.6530  -50.1430  -81.2050 N.3    91  VAL91      -0.1245
    160  CA        16.2950  -48.9000  -81.9080 C.3    91  VAL91       0.1561
    161  C         16.0200  -47.7520  -80.9120 C.2    91  VAL91       0.2260
    162  O         16.4220  -46.5920  -81.1300 O.2    91  VAL91      -0.2867
    163  CB        15.1040  -49.1070  -82.8630 C.3    91  VAL91       0.0252
    164  CG1       14.6300  -47.7920  -83.4670 C.3    91  VAL91       0.0019
    165  CG2       15.5030  -50.0650  -83.9650 C.3    91  VAL91       0.0019
    166  N         19.1160  -46.3530  -79.7490 N.3    94  GLN94      -0.1231
    167  CA        19.6170  -45.4860  -80.8120 C.3    94  GLN94       0.1698
    168  C         19.0510  -44.0730  -80.7160 C.2    94  GLN94       0.2592
    169  O         19.8330  -43.1130  -80.5720 O.2    94  GLN94      -0.2718
    170  CB        19.3550  -46.0820  -82.1840 C.3    94  GLN94       0.0381
    171  CG        20.5100  -46.9170  -82.6960 C.3    94  GLN94       0.0905
    172  CD        20.0490  -47.8990  -83.7360 C.2    94  GLN94       0.2608
    173  OE1       19.5510  -47.5160  -84.8090 O.2    94  GLN94      -0.2717
    174  NE2       20.1900  -49.1850  -83.4210 N.am   94  GLN94      -0.0878
    175  N         17.7130  -43.9660  -80.7790 N.am   95  TRP95      -0.1976
    176  CA        16.9930  -42.7200  -80.5110 C.3    95  TRP95       0.1640
    177  C         17.5610  -41.9590  -79.3670 C.2    95  TRP95       0.2290
    178  O         17.7150  -40.7430  -79.4460 O.2    95  TRP95      -0.2864
    179  CB        15.5620  -43.0060  -80.1740 C.3    95  TRP95       0.0576
    180  CG        14.6970  -43.0620  -81.3820 C.ar   95  TRP95       0.0006
    181  CD1       14.2770  -44.1970  -82.0860 C.ar   95  TRP95       0.0946
    182  CD2       14.1110  -41.9270  -82.0950 C.ar   95  TRP95       0.0152
    183  NE1       13.4830  -43.8460  -83.1540 N.ar   95  TRP95      -0.2442
    184  CE2       13.3460  -42.5020  -83.2210 C.ar   95  TRP95       0.0810
    185  CE3       14.1470  -40.5450  -81.9320 C.ar   95  TRP95       0.0012
    186  CZ2       12.6550  -41.7080  -84.1130 C.ar   95  TRP95       0.0191
    187  CZ3       13.4440  -39.7560  -82.8420 C.ar   95  TRP95       0.0001
    188  CH2       12.7170  -40.3230  -83.9080 C.ar   95  TRP95       0.0015
    189  N         21.1080  -40.4120  -80.0230 N.3    98  VAL98      -0.1245
    190  CA        20.9090  -39.1580  -80.7350 C.3    98  VAL98       0.1561
    191  C         20.4160  -38.0320  -79.8080 C.2    98  VAL98       0.2260
    192  O         20.9800  -36.9300  -79.8010 O.2    98  VAL98      -0.2867
    193  CB        20.0000  -39.3690  -81.9530 C.3    98  VAL98       0.0252
    194  CG1       19.3760  -38.0560  -82.4220 C.3    98  VAL98       0.0019
    195  CG2       20.8100  -40.0400  -83.0550 C.3    98  VAL98       0.0019
    196  N         15.5270  -28.4000  -81.2510 N.3   141  ILE141     -0.1245
    197  CA        15.9800  -29.5960  -81.9500 C.3   141  ILE141      0.1561
    198  C         16.0170  -30.7630  -80.9950 C.2   141  ILE141      0.2260
    199  O         15.3610  -31.7710  -81.2400 O.2   141  ILE141     -0.2867
    200  CB        17.3410  -29.3990  -82.6450 C.3   141  ILE141      0.0252
    201  CG1       17.1330  -28.6220  -83.9540 C.3   141  ILE141      0.0019
    202  CG2       17.9920  -30.7540  -82.9340 C.3   141  ILE141      0.0019
    203  CD1       18.4100  -28.2130  -84.6740 C.3   141  ILE141      0.0001
    204  N         12.4920  -31.9030  -80.0770 N.3   144  VAL144     -0.1231
    205  CA        11.8270  -32.7420  -81.0640 C.3   144  VAL144      0.1692
    206  C         12.3190  -34.1840  -80.9170 C.2   144  VAL144      0.2591
    207  O         11.5180  -35.1180  -80.8630 O.2   144  VAL144     -0.2718
    208  CB        12.0770  -32.2230  -82.5010 C.3   144  VAL144      0.0266
    209  CG1       11.7110  -33.2640  -83.5440 C.3   144  VAL144      0.0020
    210  CG2       11.2960  -30.9440  -82.7580 C.3   144  VAL144      0.0020
    211  N         13.6290  -34.3640  -80.8310 N.am  145  ILE145     -0.1980
    212  CA        14.2010  -35.7040  -80.7000 C.3   145  ILE145      0.1595
    213  C         13.7320  -36.4450  -79.4350 C.2   145  ILE145      0.2287
    214  O         13.4770  -37.6500  -79.4800 O.2   145  ILE145     -0.2864
    215  CB        15.7300  -35.6420  -80.8290 C.3   145  ILE145      0.0276
    216  CG1       16.0740  -35.4840  -82.3040 C.3   145  ILE145      0.0022
    217  CG2       16.4030  -36.8560  -80.2090 C.3   145  ILE145      0.0022
    218  CD1       17.3650  -34.7420  -82.5490 C.3   145  ILE145      0.0001
    219  N          8.4600  -43.3600  -80.1640 N.3   152  TYR152     -0.1241
    220  CA         8.9230  -44.6130  -80.6570 C.3   152  TYR152      0.1605
    221  C          8.5750  -45.6690  -79.6190 C.2   152  TYR152      0.2264
    222  O          7.7700  -46.5670  -79.9030 O.2   152  TYR152     -0.2867
    223  CB        10.4070  -44.5900  -80.8930 C.3   152  TYR152      0.0534
    224  CG        10.8500  -45.8930  -81.4650 C.ar  152  TYR152     -0.0201
    225  CD1       10.5130  -46.2490  -82.7820 C.ar  152  TYR152     -0.0009
    226  CD2       11.5690  -46.8050  -80.6850 C.ar  152  TYR152     -0.0009
    227  CE1       10.9060  -47.4640  -83.3060 C.ar  152  TYR152      0.0417
    228  CE2       11.9760  -48.0210  -81.2070 C.ar  152  TYR152      0.0417
    229  CZ        11.6420  -48.3500  -82.5110 C.ar  152  TYR152      0.1957
    230  OH        12.0590  -49.5660  -83.0140 O.3   152  TYR152     -0.2866
    231  N          5.9580  -48.8330  -80.0380 N.3   156  ARG156     -0.1245
    232  CA         6.6900  -50.0240  -80.4520 C.3   156  ARG156      0.1563
    233  C          7.0000  -50.9640  -79.3110 C.2   156  ARG156      0.2260
    234  O          7.3710  -52.1010  -79.5460 O.2   156  ARG156     -0.2867
    235  CB         8.0170  -49.6630  -81.1390 C.3   156  ARG156      0.0307
    236  CG         7.9830  -49.4980  -82.6510 C.3   156  ARG156      0.0489
    237  CD         7.4860  -48.1190  -83.0420 C.3   156  ARG156      0.2205
    238  NE         7.5900  -47.9020  -84.4830 N.pl3 156  ARG156     -0.0865
    239  CZ         6.7170  -47.1870  -85.1900 C.cat 156  ARG156      0.5346
    240  NH1        6.8750  -47.0350  -86.5080 N.pl3 156  ARG156      0.1354
    241  NH2        5.6730  -46.6410  -84.5720 N.pl3 156  ARG156      0.1354
@<TRIPOS>BOND
     1    40    38    1
     2    28    26    1
     3    66    65    1
     4    26    25    1
     5    38    39    1
     6    38    37    1
     7   101    99   ar
     8   101   103   ar
     9    27    25    1
    10    65    67    1
    11    65    64    1
    12   104   103    1
    13    73    72    1
    14    99    98   ar
    15    25    22    1
    16   103   102   ar
    17    64    61    1
    18    37    34    1
    19     8     6   ar
    20    22    21    1
    21    22    23    1
    22    74    72    1
    23    34    33    1
    24    34    35    1
    25    55    57   ar
    26    55    54   ar
    27     7     6   ar
    28   119   117    1
    29    57    59   ar
    30    72    69    1
    31    24    23    2
    32    61    60    1
    33    61    62    1
    34    98    97    1
    35    98   100   ar
    36     6     5    1
    37    50    49    1
    38    50    53    1
    39    50    51    1
    40    23    29   am
    41   102   100   ar
    42    36    35    2
    43    53    54    1
    44    97    94    1
    45    35    41   am
    46    54    56   ar
    47     9    10    1
    48    52    51    2
    49    63    62    2
    50    80    79    1
    51   117   114    1
    52   117   118    1
    53    59    58   ar
    54    10    11    1
    55    69    70    1
    56    69    68    1
    57    94    93    1
    58    94    95    1
    59    70    71    2
    60    70    75   am
    61    82    83    1
    62    82    81    1
    63    29    30    1
    64    75    76    1
    65     5     2    1
    66   114   113    1
    67   114   115    1
    68    76    79    1
    69    76    77    1
    70     4     3    2
    71    41    42    1
    72    96    95    2
    73    84    83    2
    74    12    11    2
    75    83    85   am
    76    56    58   ar
    77    11    13   am
    78    95   105   am
    79    30    31    1
    80     2     3    1
    81     2     1    1
    82    85    86    1
    83    32    31    2
    84    44    43    2
    85    42    43    1
    86    42    45    1
    87    78    77    2
    88   115   116    2
    89   240   239    1
    90    13    14    1
    91    86    89    1
    92    86    87    1
    93    15    16    2
    94    15    14    1
    95   105   106    1
    96   146   145    1
    97    91    90    1
    98   145   147    1
    99   145   144    2
   100   143   144    1
   101   143   142    1
   102    89    90    1
   103   112   110    1
   104    14    17    1
   105    45    46    1
   106    87    88    2
   107   106   107    1
   108   106   109    1
   109   239   241    1
   110   239   238    2
   111   110   109    1
   112   110   111    1
   113    47    46    1
   114   135   134   ar
   115    90    92    1
   116   136   134   ar
   117   173   172    2
   118   107   108    2
   119   203   201    1
   120    17    18    1
   121   134   133    1
   122   238   237    1
   123    46    48    1
   124   142   141    1
   125   158   156    1
   126   186   188   ar
   127   186   184   ar
   128   165   163    1
   129   201   200    1
   130   120   121    1
   131   188   187   ar
   132   121   124    1
   133   121   122    1
   134   172   174   am
   135   172   171    1
   136   126   125   ar
   137    18    19    1
   138   209   208    1
   139   133   132    1
   140   164   163    1
   141   227   225   ar
   142   227   229   ar
   143   141   138    1
   144   184   183   ar
   145   184   182   ar
   146   124   125    1
   147   183   181   ar
   148   122   123    2
   149   125   127   ar
   150   195   193    1
   151   237   236    1
   152   230   229    1
   153   132   129    1
   154   156   155    2
   155   156   157    1
   156   202   200    1
   157   155   154    1
   158   163   160    1
   159   187   185   ar
   160   225   224   ar
   161   210   208    1
   162   171   170    1
   163   236   235    1
   164   200   197    1
   165    20    19    1
   166   218   216    1
   167   229   228   ar
   168   208   205    1
   169   194   193    1
   170   129   128    1
   171   129   130    1
   172   216   215    1
   173   170   167    1
   174   182   185   ar
   175   182   180   ar
   176   181   180   ar
   177   153   154    1
   178   153   152    1
   179   193   190    1
   180   197   196    1
   181   197   198    1
   182   160   159    1
   183   160   161    1
   184   138   139    1
   185   138   137    1
   186   131   130    2
   187   139   140    2
   188   139   148   am
   189   224   223    1
   190   224   226   ar
   191   180   179    1
   192   148   149    1
   193   199   198    2
   194   228   226   ar
   195   235   232    1
   196   162   161    2
   197   205   206    1
   198   205   204    1
   199   149   152    1
   200   149   150    1
   201   206   207    2
   202   206   211   am
   203   223   220    1
   204   211   212    1
   205   215   212    1
   206   215   217    1
   207   167   168    1
   208   167   166    1
   209   175   168   am
   210   175   176    1
   211   190   189    1
   212   190   191    1
   213   168   169    2
   214   212   213    1
   215   220   219    1
   216   220   221    1
   217   176   179    1
   218   176   177    1
   219   232   231    1
   220   232   233    1
   221   222   221    2
   222   151   150    2
   223   191   192    2
   224   234   233    2
   225   214   213    2
   226   178   177    2
