@<TRIPOS>MOLECULE
tmp/4phzL01.pdb
 176 170 0 0 0
SMALL
GASTEIGER

@<TRIPOS>ATOM
      1  N        -18.8500   -9.8750  -30.9260 N.3    55  ILE55      -0.1245
      2  CA       -17.8930  -10.9200  -30.5370 C.3    55  ILE55       0.1561
      3  C        -18.4440  -11.9170  -29.4900 C.2    55  ILE55       0.2260
      4  O        -18.4740  -13.1220  -29.7600 O.2    55  ILE55      -0.2867
      5  CB       -16.5080  -10.3320  -30.1870 C.3    55  ILE55       0.0252
      6  CG1      -15.7740  -10.0050  -31.4860 C.3    55  ILE55       0.0019
      7  CG2      -15.6810  -11.2950  -29.3410 C.3    55  ILE55       0.0019
      8  CD1      -14.8640   -8.8040  -31.3700 C.3    55  ILE55       0.0001
      9  N        -21.3070  -13.7360  -31.1330 N.3    58  GLU58      -0.1231
     10  CA       -20.8880  -14.7210  -32.1490 C.3    58  GLU58       0.1699
     11  C        -20.3860  -16.0130  -31.5150 C.2    58  GLU58       0.2592
     12  O        -20.6700  -17.1190  -31.9990 O.2    58  GLU58      -0.2718
     13  CB       -19.7850  -14.1540  -33.0600 C.3    58  GLU58       0.0402
     14  CG       -20.2800  -13.3640  -34.2740 C.3    58  GLU58       0.1161
     15  CD       -19.3300  -12.2420  -34.7030 C.2    58  GLU58       0.3649
     16  OE1      -18.2980  -12.0190  -34.0320 O.co2  58  GLU58      -0.2457
     17  OE2      -19.6260  -11.5740  -35.7170 O.co2  58  GLU58      -0.2457
     18  N        -19.6180  -15.8540  -30.4400 N.am   59  LEU59      -0.1980
     19  CA       -19.0550  -16.9710  -29.6950 C.3    59  LEU59       0.1596
     20  C        -20.1370  -17.8370  -29.0380 C.2    59  LEU59       0.2287
     21  O        -19.9840  -19.0520  -28.9300 O.2    59  LEU59      -0.2864
     22  CB       -18.0790  -16.4440  -28.6460 C.3    59  LEU59       0.0297
     23  CG       -17.0850  -17.4640  -28.0840 C.3    59  LEU59       0.0022
     24  CD1      -16.0480  -17.8550  -29.1300 C.3    59  LEU59       0.0001
     25  CD2      -16.4130  -16.9080  -26.8370 C.3    59  LEU59       0.0001
     26  N        -22.0160  -19.7160  -31.8970 N.3    62  GLY62      -0.1210
     27  CA       -21.1400  -20.7500  -32.4370 C.3    62  GLY62       0.1956
     28  C        -21.1660  -22.0180  -31.6130 C.2    62  GLY62       0.2611
     29  O        -21.2910  -23.1130  -32.1650 O.2    62  GLY62      -0.2717
     30  N        -21.0350  -21.8690  -30.2920 N.am   63  LEU63      -0.1979
     31  CA       -21.1220  -23.0000  -29.3570 C.3    63  LEU63       0.1596
     32  C        -22.5610  -23.4830  -29.2150 C.2    63  LEU63       0.2287
     33  O        -22.8090  -24.6740  -29.0950 O.2    63  LEU63      -0.2864
     34  CB       -20.5270  -22.6300  -27.9960 C.3    63  LEU63       0.0297
     35  CG       -19.0100  -22.3750  -27.9600 C.3    63  LEU63       0.0022
     36  CD1      -18.6140  -21.8810  -26.5700 C.3    63  LEU63       0.0001
     37  CD2      -18.1710  -23.5880  -28.3690 C.3    63  LEU63       0.0001
     38  N        -23.3390  -25.5030  -32.2530 N.3    66  ALA66      -0.1231
     39  CA       -22.5770  -26.7300  -32.0790 C.3    66  ALA66       0.1694
     40  C        -23.2890  -27.7140  -31.1170 C.2    66  ALA66       0.2592
     41  O        -23.7560  -28.7720  -31.5510 O.2    66  ALA66      -0.2718
     42  CB       -21.1480  -26.4150  -31.6190 C.3    66  ALA66       0.0304
     43  N        -23.3880  -27.3580  -29.8340 N.am   67  GLY67      -0.1957
     44  CA       -24.0300  -28.1980  -28.8380 C.3    67  GLY67       0.1869
     45  C        -25.3920  -28.7010  -29.2880 C.2    67  GLY67       0.2309
     46  O        -25.6140  -29.9170  -29.3370 O.2    67  GLY67      -0.2863
     47  N        -25.0690  -31.4840  -31.7860 N.3    70  TRP70      -0.1241
     48  CA       -24.5680  -32.6910  -31.1700 C.3    70  TRP70       0.1605
     49  C        -25.6660  -33.3530  -30.3890 C.2    70  TRP70       0.2264
     50  O        -25.8830  -34.5460  -30.5280 O.2    70  TRP70      -0.2867
     51  CB       -23.4010  -32.3670  -30.2680 C.3    70  TRP70       0.0550
     52  CG       -22.7520  -33.5850  -29.6920 C.ar   70  TRP70       0.0003
     53  CD1      -22.6870  -33.9550  -28.3540 C.ar   70  TRP70       0.0946
     54  CD2      -22.0710  -34.6660  -30.4270 C.ar   70  TRP70       0.0152
     55  NE1      -22.0140  -35.1510  -28.2090 N.ar   70  TRP70      -0.2442
     56  CE2      -21.6150  -35.6280  -29.4110 C.ar   70  TRP70       0.0810
     57  CE3      -21.7950  -34.9170  -31.7660 C.ar   70  TRP70       0.0012
     58  CZ2      -20.9180  -36.7800  -29.7460 C.ar   70  TRP70       0.0191
     59  CZ3      -21.0810  -36.0790  -32.0910 C.ar   70  TRP70       0.0001
     60  CH2      -20.6620  -36.9890  -31.1030 C.ar   70  TRP70       0.0015
     61  N        -16.1710  -14.0990  -38.5670 N.3   140  PRO140     -0.2116
     62  CA       -16.8140  -14.9830  -37.6340 C.3   140  PRO140      0.1372
     63  C        -18.1700  -15.5470  -38.1120 C.2   140  PRO140      0.2244
     64  O        -18.4360  -16.7230  -37.8830 O.2   140  PRO140     -0.2868
     65  CB       -16.9970  -14.0960  -36.4060 C.3   140  PRO140      0.0268
     66  CG       -15.7770  -13.2700  -36.4160 C.3   140  PRO140      0.0207
     67  CD       -15.5900  -12.9410  -37.8680 C.3   140  PRO140      0.0892
     68  N        -17.6970  -18.3840  -40.4370 N.3   143  SER143     -0.1202
     69  CA       -17.0170  -19.3930  -39.6340 C.3   143  SER143      0.2020
     70  C        -18.0070  -20.2120  -38.8090 C.2   143  SER143      0.2618
     71  O        -17.9360  -21.4320  -38.7950 O.2   143  SER143     -0.2717
     72  CB       -16.0090  -18.7160  -38.7220 C.3   143  SER143      0.2103
     73  OG       -14.9790  -19.6190  -38.3970 O.3   143  SER143     -0.2182
     74  N        -18.9280  -19.5370  -38.1290 N.am  144  VAL144     -0.1979
     75  CA       -20.0570  -20.1860  -37.4560 C.3   144  VAL144      0.1595
     76  C        -20.8230  -21.0950  -38.4070 C.2   144  VAL144      0.2287
     77  O        -21.1400  -22.2250  -38.0550 O.2   144  VAL144     -0.2864
     78  CB       -21.0670  -19.1640  -36.8650 C.3   144  VAL144      0.0276
     79  CG1      -22.3560  -19.8520  -36.4620 C.3   144  VAL144      0.0022
     80  CG2      -20.4800  -18.4150  -35.6740 C.3   144  VAL144      0.0022
     81  N        -18.9290  -24.4000  -39.3750 N.3   147  VAL147     -0.1245
     82  CA       -19.0710  -25.3120  -38.2450 C.3   147  VAL147      0.1561
     83  C        -20.4730  -25.9530  -38.2010 C.2   147  VAL147      0.2260
     84  O        -20.6170  -27.1690  -38.0310 O.2   147  VAL147     -0.2867
     85  CB       -18.7230  -24.5660  -36.9420 C.3   147  VAL147      0.0252
     86  CG1      -19.6800  -24.9080  -35.8050 C.3   147  VAL147      0.0019
     87  CG2      -17.2570  -24.8150  -36.5820 C.3   147  VAL147      0.0019
     88  N        -20.7400  -28.5850  -40.8330 N.3   150  PHE150     -0.1227
     89  CA       -19.8360  -29.6850  -40.4680 C.3   150  PHE150      0.1736
     90  C        -20.4540  -30.6060  -39.4520 C.2   150  PHE150      0.2595
     91  O        -20.3660  -31.8270  -39.5750 O.2   150  PHE150     -0.2718
     92  CB       -18.5610  -29.1310  -39.8670 C.3   150  PHE150      0.0547
     93  CG       -17.5950  -30.1820  -39.4200 C.ar  150  PHE150     -0.0202
     94  CD1      -16.7470  -30.8240  -40.3440 C.ar  150  PHE150     -0.0042
     95  CD2      -17.4990  -30.5220  -38.0860 C.ar  150  PHE150     -0.0042
     96  CE1      -15.8420  -31.7910  -39.9380 C.ar  150  PHE150     -0.0003
     97  CE2      -16.5870  -31.4890  -37.6830 C.ar  150  PHE150     -0.0003
     98  CZ       -15.7660  -32.1150  -38.6030 C.ar  150  PHE150     -0.0000
     99  N        -21.0570  -30.0090  -38.4320 N.am  151  PHE151     -0.1976
    100  CA       -21.7380  -30.7760  -37.4090 C.3   151  PHE151      0.1639
    101  C        -23.0090  -31.3800  -37.9190 C.2   151  PHE151      0.2290
    102  O        -23.3510  -32.4880  -37.5230 O.2   151  PHE151     -0.2864
    103  CB       -21.9700  -29.9710  -36.1360 C.3   151  PHE151      0.0560
    104  CG       -20.8300  -30.0790  -35.1850 C.ar  151  PHE151     -0.0200
    105  CD1      -19.6430  -29.4050  -35.4300 C.ar  151  PHE151     -0.0042
    106  CD2      -20.8960  -30.9220  -34.0950 C.ar  151  PHE151     -0.0042
    107  CE1      -18.5530  -29.5270  -34.5830 C.ar  151  PHE151     -0.0003
    108  CE2      -19.8110  -31.0560  -33.2410 C.ar  151  PHE151     -0.0003
    109  CZ       -18.6410  -30.3500  -33.4840 C.ar  151  PHE151     -0.0000
    110  N        -21.8080  -34.4160  -39.5780 N.3   154  LYS154     -0.1245
    111  CA       -21.3280  -35.3140  -38.5310 C.3   154  LYS154      0.1561
    112  C        -22.4530  -35.9980  -37.7670 C.2   154  LYS154      0.2260
    113  O        -22.3480  -37.1720  -37.4070 O.2   154  LYS154     -0.2867
    114  CB       -20.5050  -34.5250  -37.5270 C.3   154  LYS154      0.0271
    115  CG       -19.6940  -35.3620  -36.5630 C.3   154  LYS154      0.0035
    116  CD       -18.4630  -35.8610  -37.2710 C.3   154  LYS154      0.0206
    117  CE       -17.6330  -36.6680  -36.3130 C.3   154  LYS154      0.1093
    118  NZ       -16.6880  -37.5490  -37.0530 N.3   154  LYS154     -0.1314
    119  N        -20.5060  -39.3650  -40.0190 N.3   161  ALA161     -0.1231
    120  CA       -20.6310  -39.6750  -38.6100 C.3   161  ALA161      0.1694
    121  C        -19.3780  -40.3990  -38.1670 C.2   161  ALA161      0.2592
    122  O        -18.8500  -40.1060  -37.1030 O.2   161  ALA161     -0.2718
    123  CB       -21.8860  -40.4950  -38.3280 C.3   161  ALA161      0.0304
    124  N        -18.8730  -41.3240  -38.9690 N.am  162  HIS162     -0.1962
    125  CA       -17.6490  -41.9710  -38.5330 C.3   162  HIS162      0.1787
    126  C        -16.4100  -41.6910  -39.3300 C.2   162  HIS162      0.2621
    127  O        -16.3300  -41.9060  -40.5530 O.2   162  HIS162     -0.2715
    128  CB       -17.7850  -43.4760  -38.1760 C.3   162  HIS162      0.0785
    129  CG       -19.1310  -44.0950  -38.4920 C.ar  162  HIS162      0.0821
    130  ND1      -19.5480  -44.3310  -39.7590 N.ar  162  HIS162     -0.2267
    131  CD2      -20.1350  -44.5800  -37.6430 C.ar  162  HIS162      0.1154
    132  CE1      -20.7640  -44.9090  -39.7240 C.ar  162  HIS162      0.1986
    133  NE2      -21.1230  -45.0590  -38.4280 N.ar  162  HIS162     -0.2212
    134  N        -15.4150  -41.2410  -38.5810 N.am  163  GLY163     -0.1940
    135  CA       -14.2510  -40.6150  -39.1460 C.3   163  GLY163      0.2014
    136  C        -14.5110  -39.1250  -39.3440 C.2   163  GLY163      0.2638
    137  O        -15.6120  -38.6090  -39.0600 O.2   163  GLY163     -0.2714
    138  N        -13.4930  -38.4240  -39.8360 N.am  164  TYR164     -0.1973
    139  CA       -13.6570  -37.0210  -40.1980 C.3   164  TYR164      0.1639
    140  C        -13.3140  -36.8560  -41.6550 C.2   164  TYR164      0.2290
    141  O        -12.2510  -37.3010  -42.1060 O.2   164  TYR164     -0.2864
    142  CB       -12.7520  -36.1490  -39.3720 C.3   164  TYR164      0.0560
    143  CG       -12.9430  -36.3040  -37.8960 C.ar  164  TYR164     -0.0198
    144  CD1      -13.8970  -35.5460  -37.2070 C.ar  164  TYR164     -0.0009
    145  CD2      -12.1580  -37.1990  -37.1710 C.ar  164  TYR164     -0.0009
    146  CE1      -14.0620  -35.6750  -35.8350 C.ar  164  TYR164      0.0417
    147  CE2      -12.3150  -37.3430  -35.7980 C.ar  164  TYR164      0.0417
    148  CZ       -13.2630  -36.5790  -35.1360 C.ar  164  TYR164      0.1957
    149  OH       -13.3960  -36.7300  -33.7760 O.3   164  TYR164     -0.2866
    150  N        -13.1450  -30.9960  -42.5090 N.3   169  LEU169     -0.1245
    151  CA       -12.2960  -30.5020  -41.4310 C.3   169  LEU169      0.1561
    152  C        -11.5400  -29.2320  -41.8010 C.2   169  LEU169      0.2260
    153  O        -11.5750  -28.2320  -41.0710 O.2   169  LEU169     -0.2867
    154  CB       -11.2760  -31.5730  -41.1880 C.3   169  LEU169      0.0270
    155  CG       -10.8740  -31.8840  -39.7900 C.3   169  LEU169      0.0019
    156  CD1      -12.0660  -31.7460  -38.8640 C.3   169  LEU169      0.0001
    157  CD2      -10.3620  -33.3160  -39.9070 C.3   169  LEU169      0.0001
    158  N        -12.1560  -25.6380  -40.1270 N.3   173  ILE173     -0.1245
    159  CA       -11.0750  -25.1300  -39.2880 C.3   173  ILE173      0.1561
    160  C        -10.1740  -24.1740  -40.0410 C.2   173  ILE173      0.2260
    161  O         -9.7070  -23.1980  -39.4740 O.2   173  ILE173     -0.2867
    162  CB       -10.2760  -26.2840  -38.6710 C.3   173  ILE173      0.0252
    163  CG1      -11.0080  -26.7930  -37.4260 C.3   173  ILE173      0.0019
    164  CG2       -8.8370  -25.8770  -38.3500 C.3   173  ILE173      0.0019
    165  CD1      -12.3420  -27.4560  -37.7220 C.3   173  ILE173      0.0001
    166  N        -10.1240  -20.4610  -39.0300 N.3   176  PHE176     -0.1241
    167  CA        -9.3540  -19.9780  -37.8800 C.3   176  PHE176      0.1605
    168  C         -7.8540  -19.8200  -38.1500 C.2   176  PHE176      0.2264
    169  O         -7.0830  -19.5660  -37.2380 O.2   176  PHE176     -0.2867
    170  CB        -9.5860  -20.8750  -36.6720 C.3   176  PHE176      0.0534
    171  CG       -11.0350  -21.0790  -36.3280 C.ar  176  PHE176     -0.0203
    172  CD1      -11.8050  -20.0330  -35.8210 C.ar  176  PHE176     -0.0042
    173  CD2      -11.6300  -22.3220  -36.4820 C.ar  176  PHE176     -0.0042
    174  CE1      -13.1460  -20.2250  -35.4860 C.ar  176  PHE176     -0.0003
    175  CE2      -12.9700  -22.5170  -36.1490 C.ar  176  PHE176     -0.0003
    176  CZ       -13.7300  -21.4700  -35.6490 C.ar  176  PHE176     -0.0000
@<TRIPOS>BOND
     1   150   151    1
     2   141   140    2
     3   152   151    1
     4   152   153    2
     5   140   139    1
     6   151   154    1
     7   154   155    1
     8    88    89    1
     9   127   126    2
    10    89    92    1
    11    89    90    1
    12    68    69    1
    13    94    96   ar
    14    94    93   ar
    15   139   138    1
    16   139   142    1
    17   158   159    1
    18   160   161    2
    19   160   159    1
    20   119   120    1
    21    96    98   ar
    22   157   155    1
    23    92    93    1
    24   138   136   am
    25   155   156    1
    26   130   132   ar
    27   130   129   ar
    28   132   133   ar
    29    69    70    1
    30    69    72    1
    31   110   111    1
    32    91    90    2
    33    90    99   am
    34    93    95   ar
    35    81    82    1
    36   142   143    1
    37   136   135    1
    38   136   137    2
    39   126   134   am
    40   126   125    1
    41   159   162    1
    42   135   134    1
    43   166   167    1
    44   124   125    1
    45   124   121   am
    46    70    71    2
    47    70    74   am
    48    72    73    1
    49   162   164    1
    50   162   163    1
    51   120   123    1
    52   120   121    1
    53    98    97   ar
    54    61    67    1
    55    61    62    1
    56   125   128    1
    57   111   112    1
    58   111   114    1
    59   129   128    1
    60   129   131   ar
    61    99   100    1
    62   133   131   ar
    63    76    77    2
    64    76    75    1
    65    82    83    1
    66    82    85    1
    67    83    84    2
    68   121   122    2
    69   168   167    1
    70   168   169    2
    71    74    75    1
    72    63    64    2
    73    63    62    1
    74    95    97   ar
    75   101   102    2
    76   101   100    1
    77   143   144   ar
    78   143   145   ar
    79   167   170    1
    80    67    66    1
    81   112   113    2
    82   165   163    1
    83    62    65    1
    84   114   115    1
    85    75    78    1
    86   100   103    1
    87   116   115    1
    88   116   117    1
    89   144   146   ar
    90   145   147   ar
    91   118   117    1
    92    85    87    1
    93    85    86    1
    94    78    79    1
    95    78    80    1
    96   170   171    1
    97   173   171   ar
    98   173   175   ar
    99    66    65    1
   100   171   172   ar
   101   175   176   ar
   102   103   104    1
   103   146   148   ar
   104   172   174   ar
   105   147   148   ar
   106    17    15   ar
   107   176   174   ar
   108   105   104   ar
   109   105   107   ar
   110   104   106   ar
   111   148   149    1
   112    15    14    1
   113    15    16   ar
   114   107   109   ar
   115    14    13    1
   116   106   108   ar
   117   109   108   ar
   118    13    10    1
   119    27    26    1
   120    27    28    1
   121    38    39    1
   122    29    28    2
   123    10    11    1
   124    10     9    1
   125    59    57   ar
   126    59    60   ar
   127    39    42    1
   128    39    40    1
   129    12    11    2
   130    47    48    1
   131    57    54   ar
   132    28    30   am
   133    41    40    2
   134    11    18   am
   135     6     8    1
   136     6     5    1
   137    48    49    1
   138    48    51    1
   139    40    43   am
   140    60    58   ar
   141     1     2    1
   142     2     5    1
   143     2     3    1
   144    50    49    2
   145    18    19    1
   146    54    52   ar
   147    54    56   ar
   148    30    31    1
   149    51    52    1
   150     5     7    1
   151    43    44    1
   152     4     3    2
   153    58    56   ar
   154    19    20    1
   155    19    22    1
   156    52    53   ar
   157    56    55   ar
   158    31    32    1
   159    31    34    1
   160    46    45    2
   161    45    44    1
   162    32    33    2
   163    24    23    1
   164    20    21    2
   165    22    23    1
   166    37    35    1
   167    53    55   ar
   168    23    25    1
   169    34    35    1
   170    35    36    1
