@<TRIPOS>MOLECULE
tmp/4pi3B01.pdb
 183 177 0 0 0
SMALL
GASTEIGER

@<TRIPOS>ATOM
      1  N         30.8610   12.5220  -29.4700 N.3    19  GLN19      -0.1245
      2  CA        29.7810   11.6060  -29.9090 C.3    19  GLN19       0.1566
      3  C         28.6900   12.3930  -30.6210 C.2    19  GLN19       0.2260
      4  O         27.8800   11.8410  -31.3450 O.2    19  GLN19      -0.2867
      5  CB        29.2390   10.7390  -28.7410 C.3    19  GLN19       0.0367
      6  CG        28.6760   11.5830  -27.6830 C.3    19  GLN19       0.0905
      7  CD        28.3970   10.6700  -26.4360 C.2    19  GLN19       0.2608
      8  OE1       29.2470   10.3050  -25.5810 O.2    19  GLN19      -0.2717
      9  NE2       27.1370   10.5340  -26.2360 N.am   19  GLN19      -0.0878
     10  N         24.0170   11.9920  -30.1250 N.3    22  CYS22      -0.1221
     11  CA        23.7940   10.5740  -30.2930 C.3    22  CYS22       0.1808
     12  C         24.2160    9.8770  -29.0350 C.2    22  CYS22       0.2601
     13  O         25.2950   10.2210  -28.5030 O.2    22  CYS22      -0.2717
     14  CB        24.6540    9.9800  -31.4820 C.3    22  CYS22       0.0970
     15  SG        24.6300    8.2610  -31.7590 S.3    22  CYS22      -0.0800
     16  N         23.4120    8.9670  -28.5150 N.am   23  GLY23      -0.1957
     17  CA        23.7730    8.2840  -27.2740 C.3    23  GLY23       0.1869
     18  C         24.6960    7.0780  -27.5030 C.2    23  GLY23       0.2309
     19  O         24.4320    5.9380  -27.0990 O.2    23  GLY23      -0.2863
     20  N         27.8070    6.7640  -26.4700 N.3    25  CYS25      -0.1221
     21  CA        28.9190    6.7990  -25.4610 C.3    25  CYS25       0.1808
     22  C         29.4210    5.3920  -25.3170 C.2    25  CYS25       0.2601
     23  O         30.6530    5.1610  -25.1440 O.2    25  CYS25      -0.2717
     24  CB        28.3690    7.2590  -24.1310 C.3    25  CYS25       0.0970
     25  SG        26.9340    6.2730  -23.4930 S.3    25  CYS25      -0.0800
     26  N         28.5900    4.3400  -25.2720 N.am   26  TRP26      -0.1976
     27  CA        28.9720    2.9360  -25.0790 C.3    26  TRP26       0.1640
     28  C         29.9880    2.5530  -26.1320 C.2    26  TRP26       0.2290
     29  O         30.9160    1.7160  -25.9110 O.2    26  TRP26      -0.2864
     30  CB        27.7110    2.0410  -25.1060 C.3    26  TRP26       0.0576
     31  CG        26.9130    2.1050  -26.3610 C.ar   26  TRP26       0.0006
     32  CD1       25.9480    3.0730  -26.6760 C.ar   26  TRP26       0.0946
     33  CD2       27.0450    1.2690  -27.5300 C.ar   26  TRP26       0.0152
     34  NE1       25.4830    2.9060  -27.9520 N.ar   26  TRP26      -0.2442
     35  CE2       26.1050    1.7570  -28.5000 C.ar   26  TRP26       0.0810
     36  CE3       27.8190    0.1100  -27.8490 C.ar   26  TRP26       0.0012
     37  CZ2       26.0100    1.2040  -29.7770 C.ar   26  TRP26       0.0191
     38  CZ3       27.6910   -0.4180  -29.1050 C.ar   26  TRP26       0.0001
     39  CH2       26.7510    0.0490  -30.0390 C.ar   26  TRP26       0.0015
     40  N         23.1150   -4.0290  -29.3380 N.3    60  ASP60      -0.1225
     41  CA        22.9940   -2.7320  -28.7600 C.3    60  ASP60       0.1805
     42  C         22.0230   -1.8220  -29.5580 C.2    60  ASP60       0.2598
     43  O         21.4420   -2.3260  -30.5570 O.2    60  ASP60      -0.2718
     44  CB        24.4050   -2.1560  -28.5990 C.3    60  ASP60       0.1424
     45  CG        25.1660   -2.8850  -27.5360 C.2    60  ASP60       0.3668
     46  OD1       24.6840   -2.9130  -26.3940 O.co2  60  ASP60      -0.2456
     47  OD2       26.2620   -3.5510  -27.8370 O.co2  60  ASP60      -0.2456
     48  N         21.8470   -0.5740  -29.1540 N.am   61  SER61      -0.1952
     49  CA        20.7010    0.2100  -29.7050 C.3    61  SER61       0.1924
     50  C         21.1640    1.5200  -30.2600 C.2    61  SER61       0.2314
     51  O         20.4950    2.5400  -30.2330 O.2    61  SER61      -0.2863
     52  CB        19.7110    0.5350  -28.5770 C.3    61  SER61       0.2116
     53  OG        19.1210   -0.7060  -28.2400 O.3    61  SER61      -0.2180
     54  N         22.2080    5.0460  -31.3450 N.3    63  CYS63      -0.1221
     55  CA        22.0960    6.3170  -30.6600 C.3    63  CYS63       0.1808
     56  C         21.1760    6.2860  -29.4320 C.2    63  CYS63       0.2602
     57  O         21.1090    7.2950  -28.7780 O.2    63  CYS63      -0.2717
     58  CB        21.6550    7.4100  -31.6640 C.3    63  CYS63       0.0970
     59  SG        22.9640    7.8540  -32.8570 S.3    63  CYS63      -0.0800
     60  N         20.5230    5.1900  -29.2040 N.am   64  SER64      -0.1938
     61  CA        19.6740    5.0360  -28.0010 C.3    64  SER64       0.2055
     62  C         20.3290    4.1870  -26.9500 C.2    64  SER64       0.2644
     63  O         19.7080    3.7620  -25.9660 O.2    64  SER64      -0.2714
     64  CB        18.3100    4.4310  -28.3750 C.3    64  SER64       0.2130
     65  OG        17.6150    5.3810  -29.1770 O.3    64  SER64      -0.2179
     66  N         21.6330    3.9020  -27.0610 N.am   65  GLY65      -0.1939
     67  CA        22.4130    3.3330  -25.9490 C.3    65  GLY65       0.2014
     68  C         22.8340    1.8850  -26.1150 C.2    65  GLY65       0.2639
     69  O         22.4570    1.2150  -27.1000 O.2    65  GLY65      -0.2714
     70  N         23.6760    1.3970  -25.1820 N.am   66  GLY66      -0.1939
     71  CA        24.2500    0.0080  -25.3310 C.3    66  GLY66       0.2014
     72  C         25.0850   -0.2660  -24.1410 C.2    66  GLY66       0.2639
     73  O         25.1450    0.5270  -23.1520 O.2    66  GLY66      -0.2714
     74  N         25.7380   -1.4380  -24.2010 N.am   67  LEU67      -0.1963
     75  CA        26.6470   -1.7740  -23.1430 C.3    67  LEU67       0.1728
     76  C         28.0070   -2.0710  -23.7800 C.2    67  LEU67       0.2616
     77  O         28.0530   -2.8620  -24.7760 O.2    67  LEU67      -0.2715
     78  CB        26.1830   -3.1290  -22.5140 C.3    67  LEU67       0.0311
     79  CG        24.8260   -3.0900  -21.7520 C.3    67  LEU67       0.0022
     80  CD1       24.9180   -4.3810  -20.8680 C.3    67  LEU67       0.0001
     81  CD2       24.6350   -1.9480  -20.8240 C.3    67  LEU67       0.0001
     82  N         29.0780   -1.6750  -23.1330 N.am   68  MET68      -0.1977
     83  CA        30.3840   -1.9890  -23.6620 C.3    68  MET68       0.1605
     84  C         30.6270   -3.4990  -23.6910 C.2    68  MET68       0.2287
     85  O         31.2350   -4.0570  -24.6230 O.2    68  MET68      -0.2864
     86  CB        31.5060   -1.3260  -22.8190 C.3    68  MET68       0.0413
     87  CG        31.5360    0.1530  -22.9870 C.3    68  MET68       0.0598
     88  SD        30.2270    1.0260  -22.0280 S.3    68  MET68      -0.1393
     89  CE        30.9330    0.9010  -20.3710 C.3    68  MET68       0.0692
     90  N         28.4440   -5.8430  -24.2370 N.3    70  ASN70      -0.1240
     91  CA        27.7800   -6.3930  -25.4040 C.3    70  ASN70       0.1653
     92  C         28.5410   -6.0440  -26.6900 C.2    70  ASN70       0.2266
     93  O         28.6330   -6.9200  -27.5870 O.2    70  ASN70      -0.2867
     94  CB        26.3890   -5.7920  -25.6390 C.3    70  ASN70       0.1155
     95  CG        25.3130   -6.2450  -24.6560 C.2    70  ASN70       0.2627
     96  OD1       25.5340   -7.0890  -23.8140 O.2    70  ASN70      -0.2716
     97  ND2       24.1790   -5.5440  -24.6910 N.am   70  ASN70      -0.0877
     98  N         31.3230    1.6480  -17.0010 N.3   138  ALA138     -0.1245
     99  CA        30.0560    2.3490  -16.9010 C.3   138  ALA138      0.1562
    100  C         30.0120    3.2430  -15.6930 C.2   138  ALA138      0.2260
    101  O         30.5610    2.9370  -14.6320 O.2   138  ALA138     -0.2867
    102  CB        28.9350    1.3650  -16.8010 C.3   138  ALA138      0.0290
    103  N         26.7550    9.3590  -14.9540 N.3   141  ALA141     -0.1231
    104  CA        27.2490   10.6520  -15.3260 C.3   141  ALA141      0.1694
    105  C         26.2220   11.8320  -15.3600 C.2   141  ALA141      0.2592
    106  O         26.4140   12.9370  -15.8610 O.2   141  ALA141     -0.2718
    107  CB        27.9460   10.5710  -16.6820 C.3   141  ALA141      0.0304
    108  N         25.1060   11.5590  -14.6590 N.am  142  SER142     -0.1952
    109  CA        23.9870   12.5130  -14.6020 C.3   142  SER142      0.1924
    110  C         24.4160   13.8320  -13.9880 C.2   142  SER142      0.2314
    111  O         23.9430   14.9100  -14.4120 O.2   142  SER142     -0.2863
    112  CB        22.7960   11.8620  -13.8640 C.3   142  SER142      0.2116
    113  OG        23.1320   11.6460  -12.5100 O.3   142  SER142     -0.2180
    114  N         27.0900   17.5100  -15.7670 N.3   145  MET145     -0.1245
    115  CA        26.7560   18.5620  -16.6980 C.3   145  MET145      0.1570
    116  C         27.4150   19.8860  -16.4040 C.2   145  MET145      0.2261
    117  O         27.4340   20.7380  -17.2840 O.2   145  MET145     -0.2867
    118  CB        25.2150   18.7710  -16.6940 C.3   145  MET145      0.0387
    119  CG        24.4480   17.4950  -16.9160 C.3   145  MET145      0.0595
    120  SD        24.6850   16.7780  -18.5510 S.3   145  MET145     -0.1393
    121  CE        25.7880   15.4720  -18.1970 C.3   145  MET145      0.0692
    122  N         22.6110    5.4780  -10.8460 N.3   159  GLN159     -0.1231
    123  CA        22.1550    4.6520  -11.9980 C.3   159  GLN159      0.1698
    124  C         23.2410    4.7040  -13.1080 C.2   159  GLN159      0.2592
    125  O         23.5820    5.8440  -13.4630 O.2   159  GLN159     -0.2718
    126  CB        20.7810    5.1890  -12.5480 C.3   159  GLN159      0.0381
    127  CG        20.2230    4.5180  -13.8180 C.3   159  GLN159      0.0905
    128  CD        19.8200    3.0840  -13.4990 C.2   159  GLN159      0.2608
    129  OE1       19.4410    2.7890  -12.3550 O.2   159  GLN159     -0.2717
    130  NE2       19.9530    2.1860  -14.4630 N.am  159  GLN159     -0.0878
    131  N         23.7030    3.5270  -13.5390 N.am  160  LEU160     -0.1966
    132  CA        24.7200    3.5380  -14.6260 C.3   160  LEU160      0.1728
    133  C         24.0110    4.0860  -15.8650 C.2   160  LEU160      0.2616
    134  O         22.9350    3.5770  -16.2370 O.2   160  LEU160     -0.2715
    135  CB        25.1660    2.1010  -14.8330 C.3   160  LEU160      0.0311
    136  CG        25.9500    1.5380  -13.6730 C.3   160  LEU160      0.0022
    137  CD1       26.2200    0.1150  -14.0070 C.3   160  LEU160      0.0001
    138  CD2       27.2480    2.3360  -13.4050 C.3   160  LEU160      0.0001
    139  N         24.5050    5.1440  -16.4900 N.am  161  ASP161     -0.1957
    140  CA        23.8460    5.7280  -17.6470 C.3   161  ASP161      0.1840
    141  C         24.8120    6.1380  -18.7560 C.2   161  ASP161      0.2622
    142  O         24.3680    6.7730  -19.7230 O.2   161  ASP161     -0.2715
    143  CB        22.9280    6.9360  -17.1960 C.3   161  ASP161      0.1450
    144  CG        23.7010    8.1070  -16.5870 C.2   161  ASP161      0.3671
    145  OD1       23.1870    9.0780  -15.9180 O.co2 161  ASP161     -0.2456
    146  OD2       24.9740    8.1930  -16.7540 O.co2 161  ASP161     -0.2456
    147  N         26.1200    5.8790  -18.5590 N.am  162  HIS162     -0.1959
    148  CA        27.1720    6.4370  -19.4720 C.3   162  HIS162      0.1787
    149  C         28.2950    5.4510  -19.4660 C.2   162  HIS162      0.2620
    150  O         28.4800    4.6710  -18.5600 O.2   162  HIS162     -0.2715
    151  CB        27.5810    7.7780  -18.9420 C.3   162  HIS162      0.0785
    152  CG        28.5000    8.5340  -19.8220 C.ar  162  HIS162      0.0821
    153  ND1       28.4750    8.4140  -21.1810 N.ar  162  HIS162     -0.2267
    154  CD2       29.4780    9.4600  -19.5060 C.ar  162  HIS162      0.1154
    155  CE1       29.3740    9.2660  -21.6890 C.ar  162  HIS162      0.1986
    156  NE2       29.9930    9.9000  -20.7080 N.ar  162  HIS162     -0.2212
    157  N         29.0040    5.4580  -20.6040 N.am  163  GLY163     -0.1954
    158  CA        30.2580    4.6190  -20.7110 C.3   163  GLY163      0.1869
    159  C         31.4340    5.5200  -21.0740 C.2   163  GLY163      0.2309
    160  O         31.3250    6.4080  -21.9350 O.2   163  GLY163     -0.2863
    161  N         32.8640   13.9420  -25.0330 N.3   184  TRP184     -0.1241
    162  CA        31.9990   15.1230  -25.1740 C.3   184  TRP184      0.1605
    163  C         32.7910   16.3000  -25.6550 C.2   184  TRP184      0.2264
    164  O         32.5020   17.4320  -25.2100 O.2   184  TRP184     -0.2867
    165  CB        31.3310   15.4180  -23.8540 C.3   184  TRP184      0.0550
    166  CG        30.3610   14.3900  -23.3330 C.ar  184  TRP184      0.0003
    167  CD1       29.8750   13.2410  -23.9740 C.ar  184  TRP184      0.0946
    168  CD2       29.7930   14.3710  -21.9830 C.ar  184  TRP184      0.0152
    169  NE1       29.0090   12.5580  -23.1410 N.ar  184  TRP184     -0.2442
    170  CE2       28.9650   13.1870  -21.9060 C.ar  184  TRP184      0.0810
    171  CE3       29.8590   15.2360  -20.8800 C.ar  184  TRP184      0.0012
    172  CZ2       28.2400   12.8610  -20.7820 C.ar  184  TRP184      0.0191
    173  CZ3       29.1570   14.9160  -19.7500 C.ar  184  TRP184      0.0001
    174  CH2       28.3540   13.7560  -19.6690 C.ar  184  TRP184      0.0015
    175  N         30.9180   -1.8250  -13.3450 N.3   208  GLU208     -0.1245
    176  CA        30.8870   -2.5450  -14.6040 C.3   208  GLU208      0.1567
    177  C         32.0940   -2.1720  -15.4340 C.2   208  GLU208      0.2260
    178  O         32.0220   -1.3870  -16.4260 O.2   208  GLU208     -0.2867
    179  CB        29.5990   -2.2690  -15.4050 C.3   208  GLU208      0.0388
    180  CG        29.3840   -3.1840  -16.5870 C.3   208  GLU208      0.1160
    181  CD        28.0250   -2.9180  -17.2330 C.2   208  GLU208      0.3649
    182  OE1       27.9040   -2.0250  -18.0960 O.co2 208  GLU208     -0.2457
    183  OE2       27.0520   -3.6330  -16.8400 O.co2 208  GLU208     -0.2457
@<TRIPOS>BOND
     1    59    15    1
     2    59    58    1
     3    15    14    1
     4    58    55    1
     5    14    11    1
     6     4     3    2
     7    54    55    1
     8    55    56    1
     9     3     2    1
    10    43    42    2
    11    11    10    1
    12    11    12    1
    13    50    51    2
    14    50    49    1
    15    39    37   ar
    16    39    38   ar
    17     2     1    1
    18     2     5    1
    19    37    35   ar
    20    49    48    1
    21    49    52    1
    22    42    48   am
    23    42    41    1
    24    56    60   am
    25    56    57    2
    26    40    41    1
    27    60    61    1
    28    65    64    1
    29    38    36   ar
    30    12    16   am
    31    12    13    2
    32    41    44    1
    33     5     6    1
    34    44    45    1
    35    52    53    1
    36    16    17    1
    37    35    34   ar
    38    35    33   ar
    39    64    61    1
    40    61    62    1
    41    34    32   ar
    42    36    33   ar
    43    47    45   ar
    44     6     7    1
    45    93    92    2
    46    45    46   ar
    47    33    31   ar
    48    18    17    1
    49    18    19    2
    50    69    68    2
    51    66    62   am
    52    66    67    1
    53    62    63    2
    54    92    91    1
    55    32    31   ar
    56    20    21    1
    57     7     9   am
    58     7     8    2
    59    31    30    1
    60    28    29    2
    61    28    27    1
    62    68    67    1
    63    68    70   am
    64   163   164    2
    65   163   162    1
    66    94    91    1
    67    94    95    1
    68    21    22    1
    69    21    24    1
    70    91    90    1
    71    71    70    1
    72    71    72    1
    73    22    26   am
    74    22    23    2
    75    26    27    1
    76   162   161    1
    77   162   165    1
    78    30    27    1
    79    77    76    2
    80    97    95   am
    81    95    96    2
    82    85    84    2
    83    74    72   am
    84    74    75    1
    85    72    73    2
    86    24    25    1
    87   167   166   ar
    88   167   169   ar
    89   165   166    1
    90    76    75    1
    91    76    82   am
    92    84    83    1
    93    83    82    1
    94    83    86    1
    95   166   168   ar
    96    75    78    1
    97   169   170   ar
    98    87    86    1
    99    87    88    1
   100    78    79    1
   101    88    89    1
   102   168   170   ar
   103   168   171   ar
   104   160   159    2
   105   170   172   ar
   106    79    80    1
   107    79    81    1
   108   155   153   ar
   109   155   156   ar
   110   153   152   ar
   111   159   158    1
   112   171   173   ar
   113   172   174   ar
   114   158   157    1
   115   156   154   ar
   116   157   149   am
   117   152   154   ar
   118   152   151    1
   119   173   174   ar
   120   142   141    2
   121   148   149    1
   122   148   151    1
   123   148   147    1
   124   149   150    2
   125   141   147   am
   126   141   140    1
   127   120   121    1
   128   120   119    1
   129   182   181   ar
   130   140   143    1
   131   140   139    1
   132   117   116    2
   133   181   183   ar
   134   181   180    1
   135   143   144    1
   136    98    99    1
   137   119   118    1
   138    99   102    1
   139    99   100    1
   140   146   144   ar
   141   115   118    1
   142   115   116    1
   143   115   114    1
   144   107   104    1
   145   180   179    1
   146   144   145   ar
   147   139   133   am
   148   178   177    2
   149   134   133    2
   150   133   132    1
   151   106   105    2
   152   100   101    2
   153   177   176    1
   154   179   176    1
   155   105   104    1
   156   105   108   am
   157   104   103    1
   158   135   132    1
   159   135   136    1
   160   108   109    1
   161   132   131    1
   162   176   175    1
   163   109   110    1
   164   109   112    1
   165   130   128   am
   166   111   110    2
   167   137   136    1
   168   112   113    1
   169   127   128    1
   170   127   126    1
   171   136   138    1
   172   131   124   am
   173   128   129    2
   174   125   124    2
   175   124   123    1
   176   126   123    1
   177   123   122    1
