@<TRIPOS>MOLECULE
tmp/4pi7A01.pdb
 88 87 0 0 0
SMALL
GASTEIGER

@<TRIPOS>ATOM
      1  N          4.3100   12.4550   -9.1730 N.3    23  VAL23      -0.1245
      2  CA         4.5560   11.8090   -7.8730 C.3    23  VAL23       0.1561
      3  C          5.4860   10.5920   -7.9990 C.2    23  VAL23       0.2260
      4  O          5.1620    9.6280   -8.7030 O.2    23  VAL23      -0.2867
      5  CB         3.2380   11.4080   -7.2330 C.3    23  VAL23       0.0252
      6  CG1        3.5000   10.7800   -5.8610 C.3    23  VAL23       0.0019
      7  CG2        2.3230   12.6260   -7.1350 C.3    23  VAL23       0.0019
      8  N         -3.9000   -2.3990   -6.0760 N.3   127  GLY127     -0.1210
      9  CA        -3.6390   -0.9530   -6.1200 C.3   127  GLY127      0.1956
     10  C         -4.1810   -0.2440   -7.3180 C.2   127  GLY127      0.2612
     11  O         -3.5370    0.6940   -7.8230 O.2   127  GLY127     -0.2717
     12  N         -5.3740   -0.6250   -7.7790 N.am  128  ILE128     -0.1965
     13  CA        -5.9900   -0.1310   -8.9820 C.3   128  ILE128      0.1727
     14  C         -6.9690    0.9850   -8.6360 C.2   128  ILE128      0.2616
     15  O         -8.0160    0.7570   -7.9980 O.2   128  ILE128     -0.2715
     16  CB        -6.6870   -1.2450   -9.7840 C.3   128  ILE128      0.0290
     17  CG1       -5.6660   -2.3250  -10.1820 C.3   128  ILE128      0.0022
     18  CG2       -7.3530   -0.7000  -11.0230 C.3   128  ILE128      0.0023
     19  CD1       -6.3050   -3.6440  -10.5800 C.3   128  ILE128      0.0001
     20  N         -6.6210    2.1940   -9.0950 N.am  129  GLY129     -0.1955
     21  CA        -7.4930    3.3530   -8.9520 C.3   129  GLY129      0.1869
     22  C         -7.6200    3.7950   -7.5190 C.2   129  GLY129      0.2309
     23  O         -6.8120    3.4450   -6.6650 O.2   129  GLY129     -0.2863
     24  N         -7.8210   -6.2470  -15.6050 N.3   161  PHE161     -0.1241
     25  CA        -7.3370   -4.8750  -15.7160 C.3   161  PHE161      0.1605
     26  C         -5.8810   -4.8750  -16.2070 C.2   161  PHE161      0.2264
     27  O         -5.4970   -4.1320  -17.1410 O.2   161  PHE161     -0.2867
     28  CB        -7.4170   -4.1790  -14.3730 C.3   161  PHE161      0.0534
     29  CG        -6.7810   -2.8160  -14.3660 C.ar  161  PHE161     -0.0203
     30  CD1       -7.4970   -1.7120  -14.7830 C.ar  161  PHE161     -0.0042
     31  CD2       -5.5170   -2.6520  -13.8940 C.ar  161  PHE161     -0.0042
     32  CE1       -6.9310   -0.4380  -14.7670 C.ar  161  PHE161     -0.0003
     33  CE2       -4.9480   -1.3860  -13.8610 C.ar  161  PHE161     -0.0003
     34  CZ        -5.6590   -0.2920  -14.2960 C.ar  161  PHE161     -0.0000
     35  N         -2.5380   -2.7400  -19.3060 N.3   166  TYR166     -0.1241
     36  CA        -1.0960   -2.7360  -19.3860 C.3   166  TYR166      0.1605
     37  C         -0.5460   -3.6840  -20.4570 C.2   166  TYR166      0.2264
     38  O          0.2020   -3.2450  -21.3680 O.2   166  TYR166     -0.2867
     39  CB        -0.4590   -2.9860  -17.9740 C.3   166  TYR166      0.0534
     40  CG        -0.5730   -1.7320  -17.1260 C.ar  166  TYR166     -0.0201
     41  CD1       -1.7560   -1.4130  -16.4860 C.ar  166  TYR166     -0.0009
     42  CD2        0.4780   -0.8200  -17.0320 C.ar  166  TYR166     -0.0009
     43  CE1       -1.8940   -0.2610  -15.7550 C.ar  166  TYR166      0.0417
     44  CE2        0.3300    0.3480  -16.3380 C.ar  166  TYR166      0.0417
     45  CZ        -0.8500    0.6300  -15.7060 C.ar  166  TYR166      0.1957
     46  OH        -0.9550    1.8210  -15.0200 O.3   166  TYR166     -0.2866
     47  N          0.9720    6.7750  -17.7960 N.3   187  HIS187     -0.1226
     48  CA         0.4070    5.4470  -17.6320 C.3   187  HIS187      0.1752
     49  C          1.3450    4.4900  -16.8790 C.2   187  HIS187      0.2596
     50  O          1.6620    3.3860  -17.3680 O.2   187  HIS187     -0.2718
     51  CB         0.0300    4.8320  -18.9650 C.3   187  HIS187      0.0759
     52  CG        -0.9700    3.7450  -18.7970 C.ar  187  HIS187      0.0818
     53  ND1       -0.6700    2.4110  -18.9520 N.ar  187  HIS187     -0.2268
     54  CD2       -2.2490    3.7900  -18.3420 C.ar  187  HIS187      0.1154
     55  CE1       -1.7330    1.6840  -18.7020 C.ar  187  HIS187      0.1986
     56  NE2       -2.6910    2.4850  -18.2570 N.ar  187  HIS187     -0.2212
     57  N          1.7860    4.9460  -15.7220 N.am  188  GLN188     -0.1965
     58  CA         2.6870    4.1650  -14.8780 C.3   188  GLN188      0.1733
     59  C          1.9410    3.5890  -13.7060 C.2   188  GLN188      0.2616
     60  O          1.1000    4.2430  -13.0730 O.2   188  GLN188     -0.2715
     61  CB         3.8610    5.0370  -14.4510 C.3   188  GLN188      0.0408
     62  CG         4.7290    5.3300  -15.6620 C.3   188  GLN188      0.0908
     63  CD         5.9490    6.2430  -15.4890 C.2   188  GLN188      0.2608
     64  OE1        6.7390    6.3360  -16.4570 O.2   188  GLN188     -0.2717
     65  NE2        6.1350    6.8950  -14.3440 N.am  188  GLN188     -0.0878
     66  N          2.3100    2.3600  -13.3530 N.am  189  TYR189     -0.1960
     67  CA         1.4510    1.5850  -12.4310 C.3   189  TYR189      0.1771
     68  C          1.4660    2.1120  -11.0100 C.2   189  TYR189      0.2619
     69  O          0.4480    2.0100  -10.3010 O.2   189  TYR189     -0.2715
     70  CB         1.8340    0.0980  -12.4750 C.3   189  TYR189      0.0574
     71  CG         0.6600   -0.7950  -12.0140 C.ar  189  TYR189     -0.0198
     72  CD1        0.4180   -0.9590  -10.6550 C.ar  189  TYR189     -0.0009
     73  CD2       -0.1630   -1.4140  -12.9200 C.ar  189  TYR189     -0.0009
     74  CE1       -0.6600   -1.6990  -10.2220 C.ar  189  TYR189      0.0417
     75  CE2       -1.2730   -2.1560  -12.4820 C.ar  189  TYR189      0.0417
     76  CZ        -1.4810   -2.2680  -11.1350 C.ar  189  TYR189      0.1957
     77  OH        -2.5760   -3.0440  -10.7370 O.3   189  TYR189     -0.2866
     78  N          2.5890    2.6710  -10.5730 N.am  190  ALA190     -0.1963
     79  CA         2.7880    3.0280   -9.1970 C.3   190  ALA190      0.1728
     80  C          3.7620    4.1980   -9.0780 C.2   190  ALA190      0.2616
     81  O          4.5740    4.4500  -10.0030 O.2   190  ALA190     -0.2715
     82  CB         3.3030    1.8070   -8.4310 C.3   190  ALA190      0.0334
     83  N          3.6940    4.9060   -7.9430 N.am  191  SER191     -0.1950
     84  CA         4.6050    5.9790   -7.6340 C.3   191  SER191      0.1924
     85  C          5.8420    5.5150   -6.8830 C.2   191  SER191      0.2314
     86  O          6.8720    6.1450   -6.9610 O.2   191  SER191     -0.2863
     87  CB         3.8860    7.0930   -6.8610 C.3   191  SER191      0.2116
     88  OG         3.5730    6.7180   -5.5230 O.3   191  SER191     -0.2180
@<TRIPOS>BOND
     1    38    37    2
     2    37    36    1
     3    36    35    1
     4    36    39    1
     5    51    52    1
     6    51    48    1
     7    53    52   ar
     8    53    55   ar
     9    52    54   ar
    10    55    56   ar
    11    54    56   ar
    12    39    40    1
    13    47    48    1
    14    48    49    1
    15    50    49    2
    16    27    26    2
    17    40    42   ar
    18    40    41   ar
    19    42    44   ar
    20    49    57   am
    21    41    43   ar
    22    64    63    2
    23    44    45   ar
    24    26    25    1
    25    43    45   ar
    26    57    58    1
    27    25    24    1
    28    25    28    1
    29    45    46    1
    30    62    63    1
    31    62    61    1
    32    63    65   am
    33    58    61    1
    34    58    59    1
    35    30    32   ar
    36    30    29   ar
    37    32    34   ar
    38    28    29    1
    39    29    31   ar
    40    34    33   ar
    41    31    33   ar
    42    59    66   am
    43    59    60    2
    44    66    67    1
    45    73    75   ar
    46    73    71   ar
    47    75    76   ar
    48    70    67    1
    49    70    71    1
    50    67    68    1
    51    71    72   ar
    52    76    77    1
    53    76    74   ar
    54    18    16    1
    55    68    78   am
    56    68    69    2
    57    72    74   ar
    58    19    17    1
    59    78    79    1
    60    17    16    1
    61    81    80    2
    62    16    13    1
    63    79    80    1
    64    79    82    1
    65     1     2    1
    66    20    21    1
    67    20    14   am
    68    80    83   am
    69    13    14    1
    70    13    12    1
    71    21    22    1
    72     4     3    2
    73    14    15    2
    74     3     2    1
    75    83    84    1
    76     2     5    1
    77    11    10    2
    78    12    10   am
    79    84    85    1
    80    84    87    1
    81    22    23    2
    82    10     9    1
    83     5     7    1
    84     5     6    1
    85    86    85    2
    86    87    88    1
    87     9     8    1
