@<TRIPOS>MOLECULE
tmp/4pi9A00.pdb
 114 113 0 0 0
SMALL
GASTEIGER

@<TRIPOS>ATOM
      1  N          4.8110   12.3100   -9.6930 N.3    22  VAL22      -0.1245
      2  CA         4.9230   11.7430   -8.3890 C.3    22  VAL22       0.1561
      3  C          5.8040   10.4950   -8.4890 C.2    22  VAL22       0.2260
      4  O          5.4420    9.5110   -9.1490 O.2    22  VAL22      -0.2867
      5  CB         3.5380   11.4530   -7.7930 C.3    22  VAL22       0.0252
      6  CG1        3.6810   10.9470   -6.3660 C.3    22  VAL22       0.0019
      7  CG2        2.6960   12.7330   -7.8420 C.3    22  VAL22       0.0019
      8  N         -3.7670   -2.1910   -6.2290 N.3   126  GLY126     -0.1210
      9  CA        -3.4910   -0.7270   -6.2900 C.3   126  GLY126      0.1956
     10  C         -4.0510   -0.0250   -7.5100 C.2   126  GLY126      0.2612
     11  O         -3.3550    0.8400   -8.1140 O.2   126  GLY126     -0.2717
     12  N         -5.2530   -0.4020   -7.9380 N.am  127  ILE127     -0.1965
     13  CA        -5.8430    0.0570   -9.1630 C.3   127  ILE127      0.1727
     14  C         -6.7830    1.2050   -8.8490 C.2   127  ILE127      0.2617
     15  O         -7.8200    1.0360   -8.1650 O.2   127  ILE127     -0.2715
     16  CB        -6.6180   -1.0410   -9.9400 C.3   127  ILE127      0.0290
     17  CG1       -5.6800   -2.1730  -10.3160 C.3   127  ILE127      0.0022
     18  CG2       -7.2850   -0.5000  -11.1690 C.3   127  ILE127      0.0023
     19  CD1       -6.3470   -3.4790  -10.7200 C.3   127  ILE127      0.0001
     20  N         -6.4260    2.3850   -9.3530 N.am  128  GLY128     -0.1940
     21  CA        -7.2220    3.5660   -9.0920 C.3   128  GLY128      0.2014
     22  C         -7.2320    3.9970   -7.6400 C.2   128  GLY128      0.2638
     23  O         -6.4260    3.5890   -6.8150 O.2   128  GLY128     -0.2714
     24  N         -8.1800    4.8860   -7.3680 N.am  129  ALA129     -0.1977
     25  CA        -8.3460    5.4840   -6.0680 C.3   129  ALA129      0.1597
     26  C         -9.1270    4.4950   -5.2070 C.2   129  ALA129      0.2287
     27  O        -10.1850    4.0280   -5.6100 O.2   129  ALA129     -0.2864
     28  CB        -9.1050    6.8010   -6.2040 C.3   129  ALA129      0.0319
     29  N        -12.3380    2.9270   -9.0000 N.3   141  TYR141     -0.1241
     30  CA       -12.3370    1.9550  -10.0760 C.3   141  TYR141      0.1605
     31  C        -13.0490    0.6550   -9.6120 C.2   141  TYR141      0.2264
     32  O        -13.8260    0.0730  -10.3630 O.2   141  TYR141     -0.2867
     33  CB       -10.8810    1.6740  -10.5350 C.3   141  TYR141      0.0534
     34  CG       -10.8100    1.0380  -11.9010 C.ar  141  TYR141     -0.0201
     35  CD1      -10.8420   -0.3510  -12.0410 C.ar  141  TYR141     -0.0009
     36  CD2      -10.7150    1.8130  -13.0510 C.ar  141  TYR141     -0.0009
     37  CE1      -10.8050   -0.9480  -13.2810 C.ar  141  TYR141      0.0417
     38  CE2      -10.6790    1.2280  -14.3030 C.ar  141  TYR141      0.0417
     39  CZ       -10.7170   -0.1560  -14.4140 C.ar  141  TYR141      0.1957
     40  OH       -10.6820   -0.7520  -15.6430 O.3   141  TYR141     -0.2866
     41  N         -7.9120   -6.1270  -15.6830 N.3   160  PHE160     -0.1241
     42  CA        -7.3510   -4.7700  -15.8260 C.3   160  PHE160      0.1605
     43  C         -5.9020   -4.7790  -16.2950 C.2   160  PHE160      0.2264
     44  O         -5.5160   -4.0650  -17.2360 O.2   160  PHE160     -0.2867
     45  CB        -7.4340   -4.0430  -14.5030 C.3   160  PHE160      0.0534
     46  CG        -6.7390   -2.7070  -14.4970 C.ar  160  PHE160     -0.0203
     47  CD1       -7.3660   -1.5730  -14.9440 C.ar  160  PHE160     -0.0042
     48  CD2       -5.4410   -2.6060  -14.0470 C.ar  160  PHE160     -0.0042
     49  CE1       -6.7270   -0.3680  -14.9380 C.ar  160  PHE160     -0.0003
     50  CE2       -4.7710   -1.4020  -14.0420 C.ar  160  PHE160     -0.0003
     51  CZ        -5.4180   -0.2820  -14.4800 C.ar  160  PHE160     -0.0000
     52  N         -5.3450   -3.1730  -19.8500 N.3   164  GLU164     -0.1231
     53  CA        -4.8120   -1.8190  -19.7750 C.3   164  GLU164      0.1699
     54  C         -3.2870   -1.6790  -19.8660 C.2   164  GLU164      0.2592
     55  O         -2.7800   -0.6470  -20.3260 O.2   164  GLU164     -0.2718
     56  CB        -5.3170   -1.1280  -18.5280 C.3   164  GLU164      0.0402
     57  CG        -6.8530   -1.1130  -18.4460 C.3   164  GLU164      0.1161
     58  CD        -7.5180   -0.4750  -19.6590 C.2   164  GLU164      0.3649
     59  OE1       -7.0250    0.5900  -20.0890 O.co2 164  GLU164     -0.2457
     60  OE2       -8.5300   -1.0510  -20.1490 O.co2 164  GLU164     -0.2457
     61  N         -2.5700   -2.7240  -19.4680 N.am  165  TYR165     -0.1976
     62  CA        -1.0760   -2.7540  -19.5400 C.3   165  TYR165      0.1639
     63  C         -0.6140   -3.7040  -20.5910 C.2   165  TYR165      0.2290
     64  O          0.1450   -3.2940  -21.5100 O.2   165  TYR165     -0.2864
     65  CB        -0.4540   -3.0360  -18.1360 C.3   165  TYR165      0.0560
     66  CG        -0.5180   -1.7840  -17.2890 C.ar  165  TYR165     -0.0198
     67  CD1       -1.7370   -1.3740  -16.7280 C.ar  165  TYR165     -0.0009
     68  CD2        0.5360   -0.8630  -17.2370 C.ar  165  TYR165     -0.0009
     69  CE1       -1.8550   -0.1740  -16.0390 C.ar  165  TYR165      0.0417
     70  CE2        0.4100    0.3360  -16.5600 C.ar  165  TYR165      0.0417
     71  CZ        -0.8060    0.7140  -16.0060 C.ar  165  TYR165      0.1957
     72  OH        -0.8660    1.9310  -15.3330 O.3   165  TYR165     -0.2866
     73  N          1.2300    6.7510  -18.0540 N.3   186  HIS186     -0.1226
     74  CA         0.6620    5.4300  -17.9370 C.3   186  HIS186      0.1752
     75  C          1.5970    4.4770  -17.1990 C.2   186  HIS186      0.2596
     76  O          1.8240    3.3460  -17.6460 O.2   186  HIS186     -0.2718
     77  CB         0.2660    4.8410  -19.2740 C.3   186  HIS186      0.0759
     78  CG        -0.7820    3.7980  -19.1500 C.ar  186  HIS186      0.0818
     79  ND1       -0.5150    2.4530  -19.2610 N.ar  186  HIS186     -0.2268
     80  CD2       -2.0870    3.9020  -18.7980 C.ar  186  HIS186      0.1154
     81  CE1       -1.6300    1.7740  -19.0770 C.ar  186  HIS186      0.1986
     82  NE2       -2.5940    2.6250  -18.7410 N.ar  186  HIS186     -0.2212
     83  N          2.0420    4.9330  -16.0320 N.am  187  GLN187     -0.1965
     84  CA         2.9000    4.1410  -15.1520 C.3   187  GLN187      0.1733
     85  C          2.1160    3.5910  -13.9800 C.2   187  GLN187      0.2616
     86  O          1.2680    4.2580  -13.3940 O.2   187  GLN187     -0.2715
     87  CB         4.0630    4.9950  -14.6860 C.3   187  GLN187      0.0408
     88  CG         4.9990    5.1770  -15.8580 C.3   187  GLN187      0.0908
     89  CD         6.2300    6.0390  -15.7420 C.2   187  GLN187      0.2608
     90  OE1        6.9610    6.0850  -16.7500 O.2   187  GLN187     -0.2717
     91  NE2        6.4620    6.7140  -14.6490 N.am  187  GLN187     -0.0878
     92  N          2.4480    2.3420  -13.5990 N.am  188  TYR188     -0.1960
     93  CA         1.5640    1.6010  -12.6940 C.3   188  TYR188      0.1771
     94  C          1.5730    2.1460  -11.2980 C.2   188  TYR188      0.2619
     95  O          0.5370    2.0720  -10.5870 O.2   188  TYR188     -0.2715
     96  CB         1.9000    0.1110  -12.7130 C.3   188  TYR188      0.0574
     97  CG         0.7380   -0.7400  -12.2340 C.ar  188  TYR188     -0.0198
     98  CD1        0.5260   -0.8830  -10.8770 C.ar  188  TYR188     -0.0009
     99  CD2       -0.1020   -1.3540  -13.1140 C.ar  188  TYR188     -0.0009
    100  CE1       -0.5610   -1.5950  -10.4010 C.ar  188  TYR188      0.0417
    101  CE2       -1.1730   -2.1050  -12.6380 C.ar  188  TYR188      0.0417
    102  CZ        -1.3750   -2.1800  -11.2920 C.ar  188  TYR188      0.1957
    103  OH        -2.4790   -2.9210  -10.8720 O.3   188  TYR188     -0.2866
    104  N          2.7250    2.6380  -10.8440 N.am  189  ALA189     -0.1963
    105  CA         2.9050    3.0700   -9.4700 C.3   189  ALA189      0.1728
    106  C          3.9140    4.1710   -9.3760 C.2   189  ALA189      0.2616
    107  O          4.7590    4.3510  -10.2760 O.2   189  ALA189     -0.2715
    108  CB         3.3690    1.8820   -8.6360 C.3   189  ALA189      0.0334
    109  N          3.8240    4.9300   -8.2770 N.am  190  SER190     -0.1950
    110  CA         4.7810    5.9460   -7.9150 C.3   190  SER190      0.1924
    111  C          6.0150    5.4580   -7.1290 C.2   190  SER190      0.2314
    112  O          7.0970    6.0600   -7.2420 O.2   190  SER190     -0.2863
    113  CB         4.1060    7.0160   -7.0700 C.3   190  SER190      0.2116
    114  OG         3.9960    6.5970   -5.7230 O.3   190  SER190     -0.2180
@<TRIPOS>BOND
     1    64    63    2
     2    63    62    1
     3    55    54    2
     4    60    58   ar
     5    59    58   ar
     6    54    53    1
     7    54    61   am
     8    52    53    1
     9    53    56    1
    10    58    57    1
    11    62    61    1
    12    62    65    1
    13    77    78    1
    14    77    74    1
    15    79    78   ar
    16    79    81   ar
    17    78    80   ar
    18    81    82   ar
    19    80    82   ar
    20    56    57    1
    21    65    66    1
    22    73    74    1
    23    74    75    1
    24    76    75    2
    25    66    68   ar
    26    66    67   ar
    27    68    70   ar
    28    44    43    2
    29    75    83   am
    30    90    89    2
    31    67    69   ar
    32    70    71   ar
    33    43    42    1
    34    69    71   ar
    35    83    84    1
    36    71    72    1
    37    88    89    1
    38    88    87    1
    39    42    41    1
    40    42    45    1
    41    89    91   am
    42    40    39    1
    43    84    87    1
    44    84    85    1
    45    47    49   ar
    46    47    46   ar
    47    49    51   ar
    48    45    46    1
    49    46    48   ar
    50    51    50   ar
    51    39    38   ar
    52    39    37   ar
    53    38    36   ar
    54    48    50   ar
    55    85    92   am
    56    85    86    2
    57    92    93    1
    58    37    35   ar
    59    99   101   ar
    60    99    97   ar
    61    36    34   ar
    62    96    93    1
    63    96    97    1
    64    93    94    1
    65   101   102   ar
    66    97    98   ar
    67    35    34   ar
    68    34    33    1
    69    94   104   am
    70    94    95    2
    71   102   103    1
    72   102   100   ar
    73    18    16    1
    74    98   100   ar
    75   104   105    1
    76    19    17    1
    77    33    30    1
    78    32    31    2
    79    17    16    1
    80   107   106    2
    81    30    31    1
    82    30    29    1
    83    16    13    1
    84     1     2    1
    85   105   106    1
    86   105   108    1
    87   106   109   am
    88    20    21    1
    89    20    14   am
    90    13    14    1
    91    13    12    1
    92     4     3    2
    93    21    22    1
    94    14    15    2
    95     3     2    1
    96     2     5    1
    97   109   110    1
    98    11    10    2
    99    12    10   am
   100   110   111    1
   101   110   113    1
   102     7     5    1
   103     5     6    1
   104    22    24   am
   105    22    23    2
   106    10     9    1
   107    24    25    1
   108   112   111    2
   109   113   114    1
   110     9     8    1
   111    28    25    1
   112    25    26    1
   113    27    26    2
