@<TRIPOS>MOLECULE
tmp/4pidA00.pdb
 105 101 0 0 0
SMALL
GASTEIGER

@<TRIPOS>ATOM
      1  N        -31.0190   53.5850   40.0690 N.3     1  MET1       -0.1230
      2  CA       -29.7610   54.0570   40.7220 C.3     1  MET1        0.1702
      3  C        -28.5290   53.8930   39.7830 C.2     1  MET1        0.2593
      4  O        -28.6480   53.2470   38.6920 O.2     1  MET1       -0.2718
      5  CB       -29.6400   53.4700   42.1370 C.3     1  MET1        0.0401
      6  CG       -30.4010   54.3410   43.2600 C.3     1  MET1        0.0596
      7  SD       -31.6420   55.7110   42.8610 S.3     1  MET1       -0.1393
      8  CE       -31.6050   57.0990   44.1460 C.3     1  MET1        0.0692
      9  N        -27.3870   54.5160   40.1260 N.am    2  GLY2       -0.1942
     10  CA       -26.3940   54.7540   39.0670 C.3     2  GLY2        0.2014
     11  C        -26.8180   55.8490   38.0840 C.2     2  GLY2        0.2639
     12  O        -27.6720   56.7040   38.4230 O.2     2  GLY2       -0.2714
     13  N        -26.2430   55.7760   36.8650 N.am    3  SER3       -0.1949
     14  CA       -26.5940   56.8260   35.8660 C.3     3  SER3        0.1924
     15  C        -27.1930   56.1370   34.6170 C.2     3  SER3        0.2314
     16  O        -26.6310   55.1240   34.1050 O.2     3  SER3       -0.2863
     17  CB       -25.2950   57.5200   35.2950 C.3     3  SER3        0.2116
     18  OG       -24.7290   58.2430   36.3970 O.3     3  SER3       -0.2180
     19  N        -29.6770   43.1940   30.0550 N.3    50  THR50      -0.1218
     20  CA       -29.5500   43.3650   31.5600 C.3    50  THR50       0.1862
     21  C        -29.9080   44.7080   32.1840 C.2    50  THR50       0.2287
     22  O        -30.1980   44.7890   33.4250 O.2    50  THR50      -0.2866
     23  CB       -28.0920   43.0500   31.9700 C.3    50  THR50       0.1770
     24  OG1      -27.2900   44.2890   31.6910 O.3    50  THR50      -0.2211
     25  CG2      -27.5990   41.7160   31.2780 C.3    50  THR50       0.0375
     26  N        -27.9580   47.2410   32.2550 N.3    52  GLY52      -0.1210
     27  CA       -26.6470   47.9870   32.5760 C.3    52  GLY52       0.1956
     28  C        -26.0870   47.4740   33.8700 C.2    52  GLY52       0.2612
     29  O        -26.9040   47.2540   34.8530 O.2    52  GLY52      -0.2717
     30  N        -24.7360   47.3320   33.9890 N.am   53  VAL53      -0.1965
     31  CA       -24.1310   46.9410   35.2580 C.3    53  VAL53       0.1727
     32  C        -23.0340   47.9730   35.6520 C.2    53  VAL53       0.2616
     33  O        -22.9850   48.3880   36.7820 O.2    53  VAL53      -0.2715
     34  CB       -23.4990   45.5370   35.1180 C.3    53  VAL53       0.0290
     35  CG1      -22.6110   45.1090   36.2720 C.3    53  VAL53       0.0023
     36  CG2      -24.6900   44.4200   34.9300 C.3    53  VAL53       0.0023
     37  N        -22.1550   48.2620   34.6980 N.am   54  HIS54      -0.1959
     38  CA       -20.9630   49.1430   35.1160 C.3    54  HIS54       0.1787
     39  C        -20.4880   49.8550   33.8330 C.2    54  HIS54       0.2620
     40  O        -20.4700   49.2690   32.7280 O.2    54  HIS54      -0.2715
     41  CB       -19.8330   48.2290   35.6120 C.3    54  HIS54       0.0785
     42  CG       -18.5770   48.9860   36.0740 C.ar   54  HIS54       0.0821
     43  ND1      -18.6120   49.8440   37.1530 N.ar   54  HIS54      -0.2267
     44  CD2      -17.2910   48.9390   35.6240 C.ar   54  HIS54       0.1154
     45  CE1      -17.3760   50.2950   37.3520 C.ar   54  HIS54       0.1986
     46  NE2      -16.5670   49.7930   36.4410 N.ar   54  HIS54      -0.2212
     47  N        -20.0970   51.1520   33.9930 N.am   55  TRP55      -0.1974
     48  CA       -19.6450   51.9770   32.8160 C.3    55  TRP55       0.1640
     49  C        -18.1310   52.1770   32.7460 C.2    55  TRP55       0.2290
     50  O        -17.4860   52.2800   33.7730 O.2    55  TRP55      -0.2864
     51  CB       -20.2510   53.3500   32.9270 C.3    55  TRP55       0.0576
     52  CG       -21.8380   53.4050   32.8270 C.ar   55  TRP55       0.0006
     53  CD1      -22.6930   53.8600   33.7930 C.ar   55  TRP55       0.0946
     54  CD2      -22.5900   53.0950   31.6460 C.ar   55  TRP55       0.0152
     55  NE1      -23.9960   53.8250   33.2710 N.ar   55  TRP55      -0.2442
     56  CE2      -23.9240   53.4060   31.9640 C.ar   55  TRP55       0.0810
     57  CE3      -22.2390   52.6660   30.3860 C.ar   55  TRP55       0.0012
     58  CZ2      -24.9770   53.1980   31.0450 C.ar   55  TRP55       0.0191
     59  CZ3      -23.2830   52.5260   29.4320 C.ar   55  TRP55       0.0001
     60  CH2      -24.6340   52.8050   29.8310 C.ar   55  TRP55       0.0015
     61  N        -12.4930   51.5650   38.2160 N.3    73  PHE73      -0.1241
     62  CA       -11.7140   50.8430   39.2840 C.3    73  PHE73       0.1605
     63  C        -10.3300   50.4510   38.8490 C.2    73  PHE73       0.2264
     64  O         -9.4900   49.9530   39.6460 O.2    73  PHE73      -0.2867
     65  CB       -12.5000   49.5350   39.6740 C.3    73  PHE73       0.0534
     66  CG       -13.7240   49.8180   40.4220 C.ar   73  PHE73      -0.0203
     67  CD1      -14.9360   49.3680   39.9380 C.ar   73  PHE73      -0.0042
     68  CD2      -13.6960   50.4710   41.6840 C.ar   73  PHE73      -0.0042
     69  CE1      -16.1080   49.5980   40.7240 C.ar   73  PHE73      -0.0003
     70  CE2      -14.8390   50.7640   42.3920 C.ar   73  PHE73      -0.0003
     71  CZ       -16.0680   50.2980   41.8810 C.ar   73  PHE73      -0.0000
     72  N        -12.5820   55.3430   42.1040 N.3   115  GLN115     -0.1245
     73  CA       -13.9580   55.1870   42.6820 C.3   115  GLN115      0.1566
     74  C        -13.8580   54.3160   43.9520 C.2   115  GLN115      0.2260
     75  O        -13.1220   53.3680   44.0250 O.2   115  GLN115     -0.2867
     76  CB       -14.8460   54.4730   41.5440 C.3   115  GLN115      0.0367
     77  CG       -16.2690   54.4760   41.9590 C.3   115  GLN115      0.0905
     78  CD       -17.0950   53.8260   40.8850 C.2   115  GLN115      0.2608
     79  OE1      -18.1170   53.0960   41.1760 O.2   115  GLN115     -0.2717
     80  NE2      -16.7780   54.1300   39.7220 N.am  115  GLN115     -0.0878
     81  N        -19.4220   52.9900   45.6810 N.3   119  SER119     -0.1202
     82  CA       -19.9770   54.0720   44.9440 C.3   119  SER119      0.2020
     83  C        -20.6950   53.7070   43.6200 C.2   119  SER119      0.2618
     84  O        -20.3320   52.6920   43.0230 O.2   119  SER119     -0.2717
     85  CB       -18.7120   54.9670   44.5660 C.3   119  SER119      0.2103
     86  OG       -19.1850   56.0160   43.6980 O.3   119  SER119     -0.2182
     87  N        -21.6990   54.5520   43.2820 N.am  120  ALA120     -0.1979
     88  CA       -22.3840   54.3700   42.0550 C.3   120  ALA120      0.1597
     89  C        -22.1200   55.4240   40.9970 C.2   120  ALA120      0.2287
     90  O        -22.9270   55.7210   40.1190 O.2   120  ALA120     -0.2864
     91  CB       -23.9410   54.2020   42.2800 C.3   120  ALA120      0.0319
     92  N        -19.6620   55.5230   38.6640 N.3   122  CYS122     -0.1235
     93  CA       -18.8320   55.0970   37.4880 C.3   122  CYS122      0.1677
     94  C        -19.1550   55.8900   36.2400 C.2   122  CYS122      0.2270
     95  O        -18.1960   56.3100   35.5600 O.2   122  CYS122     -0.2867
     96  CB       -18.8680   53.5690   37.2160 C.3   122  CYS122      0.0956
     97  SG       -20.6830   52.9970   37.0220 S.3   122  CYS122     -0.0801
     98  N        -24.0660   51.6890   47.4020 N.3   201  LEU201     -0.1245
     99  CA       -24.1280   50.2770   47.2880 C.3   201  LEU201      0.1561
    100  C        -23.6910   49.5290   48.5360 C.2   201  LEU201      0.2260
    101  O        -23.4880   48.3020   48.4970 O.2   201  LEU201     -0.2867
    102  CB       -23.3610   49.7850   46.0580 C.3   201  LEU201      0.0270
    103  CG       -23.7190   50.4920   44.7900 C.3   201  LEU201      0.0019
    104  CD1      -22.6500   50.0160   43.7080 C.3   201  LEU201      0.0001
    105  CD2      -25.1320   50.0880   44.2780 C.3   201  LEU201      0.0001
@<TRIPOS>BOND
     1    59    60   ar
     2    59    57   ar
     3    60    58   ar
     4    19    20    1
     5    57    54   ar
     6    58    56   ar
     7    25    23    1
     8    20    23    1
     9    20    21    1
    10    54    56   ar
    11    54    52   ar
    12    24    23    1
    13    56    55   ar
    14    21    22    2
    15    26    27    1
    16    27    28    1
    17    40    39    2
    18    49    48    1
    19    49    50    2
    20    48    51    1
    21    48    47    1
    22    52    51    1
    23    52    53   ar
    24    55    53   ar
    25    39    47   am
    26    39    38    1
    27    28    30   am
    28    28    29    2
    29    30    31    1
    30    16    15    2
    31    15    14    1
    32    37    38    1
    33    37    32   am
    34    36    34    1
    35    38    41    1
    36    34    31    1
    37    34    35    1
    38    31    32    1
    39    17    14    1
    40    17    18    1
    41    95    94    2
    42    41    42    1
    43    44    42   ar
    44    44    46   ar
    45    32    33    2
    46    14    13    1
    47    42    43   ar
    48    94    93    1
    49    46    45   ar
    50    13    11   am
    51    97    96    1
    52    43    45   ar
    53    96    93    1
    54    93    92    1
    55    11    12    2
    56    11    10    1
    57    61    62    1
    58     4     3    2
    59    63    62    1
    60    63    64    2
    61    10     9    1
    62    62    65    1
    63    65    66    1
    64    80    78   am
    65     3     9   am
    66     3     2    1
    67    67    66   ar
    68    67    69   ar
    69     1     2    1
    70    90    89    2
    71    66    68   ar
    72     2     5    1
    73    69    71   ar
    74    78    79    2
    75    78    77    1
    76    89    88    1
    77    76    77    1
    78    76    73    1
    79    68    70   ar
    80    71    70   ar
    81    88    91    1
    82    88    87    1
    83    72    73    1
    84     5     6    1
    85    73    74    1
    86     7     6    1
    87     7     8    1
    88    84    83    2
    89    87    83   am
    90    83    82    1
    91    86    85    1
    92   104   103    1
    93    74    75    2
    94   105   103    1
    95    85    82    1
    96   103   102    1
    97    82    81    1
    98   102    99    1
    99    99    98    1
   100    99   100    1
   101   101   100    2
