@<TRIPOS>MOLECULE
tmp/4pieA01.pdb
 179 174 0 0 0
SMALL
GASTEIGER

@<TRIPOS>ATOM
      1  N          3.8640    2.2120   -0.5550 N.3     1  GLY1       -0.1210
      2  CA         4.7910    2.0570   -1.6930 C.3     1  GLY1        0.1956
      3  C          5.1740    3.4470   -2.1720 C.2     1  GLY1        0.2613
      4  O          5.1730    4.4040   -1.3810 O.2     1  GLY1       -0.2717
      5  N          5.4260    3.5840   -3.4680 N.am    2  SER2       -0.1938
      6  CA         5.8350    4.8780   -4.0520 C.3     2  SER2        0.2055
      7  C          4.7300    5.5410   -4.8420 C.2     2  SER2        0.2644
      8  O          3.9470    4.8510   -5.5170 O.2     2  SER2       -0.2714
      9  CB         7.0110    4.6480   -4.9880 C.3     2  SER2        0.2130
     10  OG         8.1040    4.1690   -4.2400 O.3     2  SER2       -0.2179
     11  N          4.6360    6.8760   -4.7860 N.am    3  SER3       -0.1935
     12  CA         3.6790    7.5310   -5.6510 C.3     3  SER3        0.2055
     13  C          4.3600    7.7630   -7.0130 C.2     3  SER3        0.2643
     14  O          5.5800    7.6950   -7.1570 O.2     3  SER3       -0.2714
     15  CB         3.2670    8.8870   -5.1000 C.3     3  SER3        0.2130
     16  OG         4.4490    9.6830   -4.9800 O.3     3  SER3       -0.2179
     17  N          3.5470    8.0450   -8.0010 N.am    4  GLU4       -0.1963
     18  CA         3.9710    8.4930   -9.3220 C.3     4  GLU4        0.1733
     19  C          4.9190    9.6950   -9.2950 C.2     4  GLU4        0.2616
     20  O          5.8010    9.8190  -10.1300 O.2     4  GLU4       -0.2715
     21  CB         2.7730    9.1090   -9.9390 C.3     4  GLU4        0.0429
     22  CG         1.9510    8.3140  -10.7280 C.3     4  GLU4        0.1163
     23  CD         1.0040    9.2730  -11.4280 C.2     4  GLU4        0.3649
     24  OE1        0.3020   10.0320  -10.7070 O.co2   4  GLU4       -0.2457
     25  OE2        1.0370    9.3030  -12.6830 O.co2   4  GLU4       -0.2457
     26  N          4.6720   10.6030   -8.3750 N.am    5  GLN5       -0.1963
     27  CA         5.4260   11.8490   -8.3180 C.3     5  GLN5        0.1733
     28  C          6.8490   11.5880   -7.8730 C.2     5  GLN5        0.2616
     29  O          7.8240   12.0910   -8.4330 O.2     5  GLN5       -0.2715
     30  CB         4.6750   12.8310   -7.3910 C.3     5  GLN5        0.0408
     31  CG         3.3740   13.3690   -8.0050 C.3     5  GLN5        0.0908
     32  CD         2.1080   12.4600   -7.8810 C.2     5  GLN5        0.2608
     33  OE1        2.0560   11.4650   -7.1140 O.2     5  GLN5       -0.2717
     34  NE2        1.0580   12.8250   -8.6630 N.am    5  GLN5       -0.0878
     35  N          6.9690   10.7330   -6.8820 N.am    6  GLU6       -0.1977
     36  CA         8.2340   10.2540   -6.4250 C.3     6  GLU6        0.1602
     37  C          9.0380    9.5200   -7.5190 C.2     6  GLU6        0.2287
     38  O         10.2020    9.8550   -7.7820 O.2     6  GLU6       -0.2864
     39  CB         7.9150    9.3520   -5.2440 C.3     6  GLU6        0.0415
     40  CG         9.0420    8.6290   -4.5940 C.3     6  GLU6        0.1163
     41  CD         8.4570    7.6960   -3.5150 C.2     6  GLU6        0.3649
     42  OE1        9.0240    6.5730   -3.3080 O.co2   6  GLU6       -0.2457
     43  OE2        7.3800    8.0810   -2.9430 O.co2   6  GLU6       -0.2457
     44  N          2.3100    5.2600  -15.8290 N.3    24  TYR24      -0.1227
     45  CA         0.9500    4.9760  -16.2950 C.3    24  TYR24       0.1736
     46  C          0.3560    3.7820  -15.5910 C.2    24  TYR24       0.2595
     47  O          1.0800    3.0460  -14.8970 O.2    24  TYR24      -0.2718
     48  CB         0.9280    4.5650  -17.7810 C.3    24  TYR24       0.0548
     49  CG         1.5230    5.5520  -18.7450 C.ar   24  TYR24      -0.0200
     50  CD1        2.9050    5.6800  -18.8640 C.ar   24  TYR24      -0.0009
     51  CD2        0.6890    6.3340  -19.5690 C.ar   24  TYR24      -0.0009
     52  CE1        3.4620    6.6110  -19.7550 C.ar   24  TYR24       0.0417
     53  CE2        1.2380    7.2830  -20.4910 C.ar   24  TYR24       0.0417
     54  CZ         2.6050    7.4130  -20.5630 C.ar   24  TYR24       0.1957
     55  OH         3.1440    8.2990  -21.4470 O.3    24  TYR24      -0.2866
     56  N         -0.9460    3.5390  -15.8790 N.am   25  ASP25      -0.1974
     57  CA        -1.6960    2.5010  -15.1980 C.3    25  ASP25       0.1709
     58  C         -1.6280    1.3690  -16.1770 C.2    25  ASP25       0.2293
     59  O         -0.9410    1.4930  -17.2080 O.2    25  ASP25      -0.2864
     60  CB        -3.1460    2.9360  -14.8050 C.3    25  ASP25       0.1436
     61  CG        -4.1410    2.9300  -15.9970 C.2    25  ASP25       0.3671
     62  OD1       -3.7700    2.6870  -17.1810 O.co2  25  ASP25      -0.2456
     63  OD2       -5.3240    3.2020  -15.7240 O.co2  25  ASP25      -0.2456
     64  N          1.8020    0.6470  -13.8810 N.3    43  ASN43      -0.1240
     65  CA         1.0700   -0.0960  -12.8000 C.3    43  ASN43       0.1653
     66  C          0.3310   -1.3360  -13.3310 C.2    43  ASN43       0.2266
     67  O         -0.1520   -1.3300  -14.4670 O.2    43  ASN43      -0.2867
     68  CB         0.1150    0.8880  -12.1130 C.3    43  ASN43       0.1155
     69  CG        -0.1060    0.5440  -10.6490 C.2    43  ASN43       0.2627
     70  OD1       -0.7280   -0.4940  -10.3120 O.2    43  ASN43      -0.2716
     71  ND2        0.4710    1.3440   -9.7880 N.am   43  ASN43      -0.0877
     72  N         -2.3810   -2.2670  -12.2020 N.3    45  ALA45      -0.1231
     73  CA        -3.7930   -1.9810  -11.8920 C.3    45  ALA45       0.1694
     74  C         -4.2440   -0.6790  -12.6100 C.2    45  ALA45       0.2593
     75  O         -3.3880    0.0800  -13.0280 O.2    45  ALA45      -0.2718
     76  CB        -3.9580   -1.8210  -10.3560 C.3    45  ALA45       0.0304
     77  N         -5.5590   -0.4300  -12.7240 N.am   46  GLY46      -0.1942
     78  CA        -6.0970    0.7830  -13.3830 C.3    46  GLY46       0.2014
     79  C         -6.0150    1.9300  -12.4210 C.2    46  GLY46       0.2638
     80  O         -5.9950    1.7190  -11.1940 O.2    46  GLY46      -0.2714
     81  N         -5.9850    3.1750  -12.9020 N.am   47  ARG47      -0.1977
     82  CA        -5.8860    4.2740  -11.9390 C.3    47  ARG47       0.1597
     83  C         -7.0230    4.3550  -10.9490 C.2    47  ARG47       0.2287
     84  O         -6.7960    4.7480   -9.8150 O.2    47  ARG47      -0.2864
     85  CB        -5.8250    5.6330  -12.6030 C.3    47  ARG47       0.0334
     86  CG        -4.4250    6.2200  -12.5630 C.3    47  ARG47       0.0492
     87  CD        -4.3120    7.1530  -13.6870 C.3    47  ARG47       0.2205
     88  NE        -2.9660    7.5230  -14.1040 N.pl3  47  ARG47      -0.0865
     89  CZ        -2.1700    8.3570  -13.4440 C.cat  47  ARG47       0.5346
     90  NH1       -1.0030    8.6560  -13.9890 N.pl3  47  ARG47       0.1354
     91  NH2       -2.5110    8.8730  -12.2610 N.pl3  47  ARG47       0.1354
     92  N         -6.3820    3.2570   -7.3140 N.3    50  GLY50      -0.1210
     93  CA        -5.3470    3.8150   -6.4060 C.3    50  GLY50       0.1956
     94  C         -3.9210    3.3190   -6.7180 C.2    50  GLY50       0.2612
     95  O         -2.9190    3.9770   -6.3910 O.2    50  GLY50      -0.2717
     96  N         -3.8580    2.1890   -7.4080 N.am   51  GLY51      -0.1942
     97  CA        -2.6180    1.6180   -7.8840 C.3    51  GLY51       0.2014
     98  C         -2.1970    0.4400   -7.0020 C.2    51  GLY51       0.2639
     99  O         -2.4650    0.4290   -5.7450 O.2    51  GLY51      -0.2714
    100  N         -1.5760   -0.5550   -7.6140 N.am   52  VAL52      -0.1963
    101  CA        -1.1500   -1.7360   -6.8590 C.3    52  VAL52       0.1727
    102  C          0.4010   -2.0130   -6.9070 C.2    52  VAL52       0.2616
    103  O          1.0550   -2.0490   -5.8650 O.2    52  VAL52      -0.2715
    104  CB        -1.9220   -2.9450   -7.2970 C.3    52  VAL52       0.0290
    105  CG1       -1.4070   -4.1860   -6.6420 C.3    52  VAL52       0.0023
    106  CG2       -3.4420   -2.7600   -6.9960 C.3    52  VAL52       0.0023
    107  N          0.9630   -2.2200   -8.0990 N.am   53  HIS53      -0.1959
    108  CA         2.3440   -2.7290   -8.1880 C.3    53  HIS53       0.1787
    109  C          2.9590   -2.1220   -9.4120 C.2    53  HIS53       0.2620
    110  O          2.2710   -1.9640  -10.4600 O.2    53  HIS53      -0.2715
    111  CB         2.2830   -4.2590   -8.2630 C.3    53  HIS53       0.0785
    112  CG         3.6050   -4.9670   -8.4360 C.ar   53  HIS53       0.0821
    113  ND1        4.5320   -5.0780   -7.4190 N.ar   53  HIS53      -0.2267
    114  CD2        4.0590   -5.7680   -9.4410 C.ar   53  HIS53       0.1154
    115  CE1        5.5500   -5.8180   -7.8360 C.ar   53  HIS53       0.1986
    116  NE2        5.2890   -6.2490   -9.0580 N.ar   53  HIS53      -0.2212
    117  N          4.2540   -1.8050   -9.3300 N.am   54  TRP54      -0.1974
    118  CA         4.9410   -1.1380  -10.4430 C.3    54  TRP54       0.1640
    119  C          5.8340   -2.0580  -11.2130 C.2    54  TRP54       0.2290
    120  O          6.5000   -2.9230  -10.6170 O.2    54  TRP54      -0.2864
    121  CB         5.8180   -0.0180   -9.9100 C.3    54  TRP54       0.0576
    122  CG         5.1350    1.1320   -9.2560 C.ar   54  TRP54       0.0006
    123  CD1        5.3370    1.5640   -7.9750 C.ar   54  TRP54       0.0946
    124  CD2        4.2640    2.0790   -9.8700 C.ar   54  TRP54       0.0152
    125  NE1        4.6230    2.7310   -7.7450 N.ar   54  TRP54      -0.2442
    126  CE2        3.9490    3.0590   -8.8900 C.ar   54  TRP54       0.0810
    127  CE3        3.6820    2.1820  -11.1670 C.ar   54  TRP54       0.0012
    128  CZ2        3.0510    4.1310   -9.1390 C.ar   54  TRP54       0.0191
    129  CZ3        2.8200    3.2320  -11.4360 C.ar   54  TRP54       0.0001
    130  CH2        2.5290    4.2250  -10.4280 C.ar   54  TRP54       0.0015
    131  N          9.4310   -9.0410   -9.0210 N.3    72  PHE72      -0.1241
    132  CA         9.2820  -10.3800   -8.4790 C.3    72  PHE72       0.1605
    133  C          9.6180  -11.3900   -9.5420 C.2    72  PHE72       0.2264
    134  O          9.8600  -12.5840   -9.2440 O.2    72  PHE72      -0.2867
    135  CB         7.8360  -10.5940   -7.9230 C.3    72  PHE72       0.0534
    136  CG         7.5360   -9.8280   -6.6520 C.ar   72  PHE72      -0.0203
    137  CD1        6.4260   -8.9530   -6.5790 C.ar   72  PHE72      -0.0042
    138  CD2        8.3770  -10.0110   -5.4900 C.ar   72  PHE72      -0.0042
    139  CE1        6.1300   -8.2540   -5.3550 C.ar   72  PHE72      -0.0003
    140  CE2        8.1180   -9.3700   -4.3360 C.ar   72  PHE72      -0.0003
    141  CZ         6.9670   -8.4480   -4.2400 C.ar   72  PHE72      -0.0000
    142  N         13.2300   -8.6490   -5.1420 N.3   114  GLN114     -0.1245
    143  CA        12.5060   -7.9390   -4.0920 C.3   114  GLN114      0.1566
    144  C         11.8800   -8.9220   -3.0920 C.2   114  GLN114      0.2260
    145  O         11.3490   -9.9740   -3.4680 O.2   114  GLN114     -0.2867
    146  CB        11.3310   -7.1910   -4.7400 C.3   114  GLN114      0.0367
    147  CG        10.5920   -6.2570   -3.8010 C.3   114  GLN114      0.0905
    148  CD         9.4030   -5.5260   -4.4660 C.2   114  GLN114      0.2608
    149  OE1        8.3620   -5.3100   -3.8550 O.2   114  GLN114     -0.2717
    150  NE2        9.5570   -5.1810   -5.7000 N.am  114  GLN114     -0.0878
    151  N          8.0500   -6.5460    0.8380 N.3   118  SER118     -0.1202
    152  CA         8.6420   -5.2430    0.5570 C.3   118  SER118      0.2020
    153  C          7.6910   -4.3520   -0.2600 C.2   118  SER118      0.2618
    154  O          6.9790   -4.8430   -1.0940 O.2   118  SER118     -0.2717
    155  CB         9.9000   -5.4800   -0.2600 C.3   118  SER118      0.2103
    156  OG        10.4280   -4.2140   -0.5700 O.3   118  SER118     -0.2182
    157  N          7.6530   -3.0640   -0.0090 N.am  119  ALA119     -0.1979
    158  CA         6.9780   -2.1560   -0.9190 C.3   119  ALA119      0.1597
    159  C          7.9310   -1.3050   -1.7920 C.2   119  ALA119      0.2287
    160  O          7.6430   -0.1130   -2.0910 O.2   119  ALA119     -0.2864
    161  CB         6.0460   -1.3070   -0.1380 C.3   119  ALA119      0.0319
    162  N          8.9150   -1.9330   -5.0020 N.3   121  CYS121     -0.1221
    163  CA         8.8310   -2.2190   -6.4720 C.3   121  CYS121      0.1808
    164  C          9.1110   -0.9690   -7.2910 C.2   121  CYS121      0.2601
    165  O          9.9250   -1.0100   -8.1950 O.2   121  CYS121     -0.2717
    166  CB         7.4620   -2.8210   -6.8890 C.3   121  CYS121      0.0970
    167  SG         5.9810   -1.8070   -6.3200 S.3   121  CYS121     -0.0800
    168  N          8.4590    0.1310   -6.9860 N.am  122  GLY122     -0.1957
    169  CA         8.7050    1.3810   -7.7320 C.3   122  GLY122      0.1869
    170  C         10.2010    1.6980   -7.8390 C.2   122  GLY122      0.2309
    171  O         10.7290    2.0230   -8.9160 O.2   122  GLY122     -0.2863
    172  N          4.6180   -4.6860    4.2460 N.3   200  LEU200     -0.1245
    173  CA         3.2660   -5.2560    4.1990 C.3   200  LEU200      0.1561
    174  C          2.9020   -5.9290    5.5250 C.2   200  LEU200      0.2260
    175  O          1.7990   -6.4710    5.6750 O.2   200  LEU200     -0.2867
    176  CB         3.0250   -6.1430    2.9630 C.3   200  LEU200      0.0270
    177  CG         3.3010   -5.3940    1.6500 C.3   200  LEU200      0.0019
    178  CD1        2.8400   -6.1500    0.4260 C.3   200  LEU200      0.0001
    179  CD2        2.7610   -3.9230    1.6450 C.3   200  LEU200      0.0001
@<TRIPOS>BOND
     1    55    54    1
     2    54    53   ar
     3    54    52   ar
     4    53    51   ar
     5    52    50   ar
     6    51    49   ar
     7    50    49   ar
     8    49    48    1
     9    48    45    1
    10    59    58    2
    11    62    61   ar
    12    45    44    1
    13    45    46    1
    14    58    57    1
    15    61    63   ar
    16    61    60    1
    17    56    46   am
    18    56    57    1
    19    46    47    2
    20    57    60    1
    21    67    66    2
    22    88    87    1
    23    88    89    2
    24    90    89    1
    25    64    65    1
    26    87    86    1
    27    89    91    1
    28    78    77    1
    29    78    79    1
    30    66    65    1
    31    75    74    2
    32    81    79   am
    33    81    82    1
    34    65    68    1
    35    77    74   am
    36    25    23   ar
    37    74    73    1
    38    85    86    1
    39    85    82    1
    40    79    80    2
    41    72    73    1
    42    68    69    1
    43    82    83    1
    44    73    76    1
    45   129   127   ar
    46   129   130   ar
    47    23    22    1
    48    23    24   ar
    49   119   120    2
    50   119   118    1
    51   127   124   ar
    52    83    84    2
    53    22    21    1
    54    69    70    2
    55    69    71   am
    56   110   109    2
    57   118   121    1
    58   118   117    1
    59   130   128   ar
    60    20    19    2
    61    21    18    1
    62   121   122    1
    63   124   122   ar
    64   124   126   ar
    65   133   134    2
    66   133   132    1
    67   114   116   ar
    68   114   112   ar
    69   109   117   am
    70   109   108    1
    71    18    19    1
    72    18    17    1
    73    19    26   am
    74   122   123   ar
    75   128   126   ar
    76   116   115   ar
    77   131   132    1
    78   171   170    2
    79   126   125   ar
    80    34    32   am
    81   132   135    1
    82   112   111    1
    83   112   113   ar
    84    29    28    2
    85    26    27    1
    86    27    28    1
    87    27    30    1
    88   111   108    1
    89   165   164    2
    90   108   107    1
    91   107   102   am
    92    31    32    1
    93    31    30    1
    94    17    13   am
    95   123   125   ar
    96   135   136    1
    97    97    96    1
    98    97    98    1
    99    32    33    2
   100    28    35   am
   101   170   169    1
   102   115   113   ar
   103    38    37    2
   104   169   168    1
   105   100    98   am
   106   100   101    1
   107    37    36    1
   108    96    94   am
   109    92    93    1
   110   104   106    1
   111   104   101    1
   112   104   105    1
   113   164   168   am
   114   164   163    1
   115    14    13    2
   116    13    12    1
   117    98    99    2
   118   102   101    1
   119   102   103    2
   120   166   163    1
   121   166   167    1
   122    35    36    1
   123    94    93    1
   124    94    95    2
   125   136   137   ar
   126   136   138   ar
   127   137   139   ar
   128   163   162    1
   129    36    39    1
   130   150   148   am
   131    12    15    1
   132    12    11    1
   133     8     7    2
   134   138   140   ar
   135   139   141   ar
   136    39    40    1
   137   142   143    1
   138    15    16    1
   139     9    10    1
   140     9     6    1
   141     7    11   am
   142     7     6    1
   143   146   143    1
   144   146   147    1
   145    40    41    1
   146   148   149    2
   147   148   147    1
   148   140   141   ar
   149   143   144    1
   150     6     5    1
   151    41    42   ar
   152    41    43   ar
   153     5     3   am
   154   145   144    2
   155     3     2    1
   156     3     4    2
   157   160   159    2
   158   159   158    1
   159     2     1    1
   160   154   153    2
   161   158   161    1
   162   158   157    1
   163   156   155    1
   164   155   152    1
   165   153   157   am
   166   153   152    1
   167   178   177    1
   168   152   151    1
   169   179   177    1
   170   177   176    1
   171   176   173    1
   172   173   172    1
   173   173   174    1
   174   174   175    2
