@<TRIPOS>MOLECULE
tmp/4pinA00.pdb
 142 134 0 0 0
SMALL
GASTEIGER

@<TRIPOS>ATOM
      1  N         11.4320   11.7040   25.1680 N.3    40  TYR40      -0.1241
      2  CA        12.7630   12.2840   25.0560 C.3    40  TYR40       0.1605
      3  C         13.5820   12.2350   26.3380 C.2    40  TYR40       0.2264
      4  O         14.0940   13.2530   26.8070 O.2    40  TYR40      -0.2867
      5  CB        12.6340   13.7210   24.5580 C.3    40  TYR40       0.0534
      6  CG        12.0280   13.7740   23.1770 C.ar   40  TYR40      -0.0201
      7  CD1       12.7930   13.4870   22.0570 C.ar   40  TYR40      -0.0009
      8  CD2       10.6850   14.0770   22.9940 C.ar   40  TYR40      -0.0009
      9  CE1       12.2460   13.5160   20.7910 C.ar   40  TYR40       0.0417
     10  CE2       10.1270   14.1120   21.7280 C.ar   40  TYR40       0.0417
     11  CZ        10.9140   13.8300   20.6320 C.ar   40  TYR40       0.1957
     12  OH        10.3680   13.8620   19.3680 O.3    40  TYR40      -0.2866
     13  N         15.6580    9.2310   18.3940 N.3    48  PHE48      -0.1241
     14  CA        15.1610   10.2490   17.4800 C.3    48  PHE48       0.1605
     15  C         16.2810   10.7340   16.5740 C.2    48  PHE48       0.2264
     16  O         16.0710   10.9580   15.3840 O.2    48  PHE48      -0.2867
     17  CB        14.5620   11.4470   18.2110 C.3    48  PHE48       0.0534
     18  CG        14.1210   12.5340   17.2770 C.ar   48  PHE48      -0.0203
     19  CD1       12.9950   12.3640   16.4880 C.ar   48  PHE48      -0.0042
     20  CD2       14.8510   13.7040   17.1500 C.ar   48  PHE48      -0.0042
     21  CE1       12.5940   13.3470   15.6100 C.ar   48  PHE48      -0.0003
     22  CE2       14.4530   14.6930   16.2730 C.ar   48  PHE48      -0.0003
     23  CZ        13.3230   14.5140   15.5010 C.ar   48  PHE48      -0.0000
     24  N         16.4920    8.4760   13.8850 N.3    51  ILE51      -0.1245
     25  CA        15.3640    8.6330   12.9740 C.3    51  ILE51       0.1561
     26  C         15.6720    9.6950   11.9160 C.2    51  ILE51       0.2260
     27  O         15.2980    9.5420   10.7530 O.2    51  ILE51      -0.2867
     28  CB        14.0680    9.0000   13.7350 C.3    51  ILE51       0.0252
     29  CG1       13.5360    7.7680   14.4740 C.3    51  ILE51       0.0019
     30  CG2       12.9970    9.5330   12.7800 C.3    51  ILE51       0.0019
     31  CD1       12.4160    8.0550   15.4510 C.3    51  ILE51       0.0001
     32  N         12.5790    8.8590    6.4770 N.3    57  TYR57      -0.1241
     33  CA        12.2860   10.1000    7.1910 C.3    57  TYR57       0.1605
     34  C         12.9370   11.2950    6.4980 C.2    57  TYR57       0.2264
     35  O         14.0140   11.7440    6.8680 O.2    57  TYR57      -0.2867
     36  CB        12.7470    9.9990    8.6450 C.3    57  TYR57       0.0534
     37  CG        12.2700   11.1360    9.5210 C.ar   57  TYR57      -0.0201
     38  CD1       10.9640   11.1750    9.9910 C.ar   57  TYR57      -0.0009
     39  CD2       13.1290   12.1670    9.8860 C.ar   57  TYR57      -0.0009
     40  CE1       10.5210   12.2160   10.7940 C.ar   57  TYR57       0.0417
     41  CE2       12.7000   13.2050   10.6840 C.ar   57  TYR57       0.0417
     42  CZ        11.3950   13.2250   11.1380 C.ar   57  TYR57       0.1957
     43  OH        10.9670   14.2580   11.9370 O.3    57  TYR57      -0.2866
     44  N         12.0110   14.5480    6.4770 N.3    59  PRO59      -0.2116
     45  CA        11.9640   15.9230    7.0060 C.3    59  PRO59       0.1372
     46  C         13.3030   16.5920    7.3300 C.2    59  PRO59       0.2244
     47  O         13.5200   17.7200    6.8790 O.2    59  PRO59      -0.2868
     48  CB        11.1410   15.7640    8.2850 C.3    59  PRO59       0.0268
     49  CG        10.2210   14.6570    7.9810 C.3    59  PRO59       0.0207
     50  CD        11.0430   13.6840    7.1830 C.3    59  PRO59       0.0892
     51  N         12.2680   21.6530   12.1940 N.3   160  GLY160     -0.1210
     52  CA        11.9770   20.2310   12.2250 C.3   160  GLY160      0.1956
     53  C         10.5010   19.8840   12.2250 C.2   160  GLY160      0.2613
     54  O         10.1530   18.7090   12.2650 O.2   160  GLY160     -0.2717
     55  N          9.6450   20.9020   12.1740 N.am  161  SER161     -0.1938
     56  CA         8.1940   20.7190   12.2450 C.3   161  SER161      0.2055
     57  C          7.7750   20.1770   13.6090 C.2   161  SER161      0.2643
     58  O          6.7650   19.4870   13.7350 O.2   161  SER161     -0.2714
     59  CB         7.7050   19.7900   11.1350 C.3   161  SER161      0.2130
     60  OG         6.3290   19.9980   10.8760 O.3   161  SER161     -0.2179
     61  N          8.5590   20.4940   14.6340 N.am  162  THR162     -0.1950
     62  CA         8.1840   20.1580   16.0000 C.3   162  THR162      0.1897
     63  C          6.8840   20.8860   16.3530 C.2   162  THR162      0.2313
     64  O          6.1290   20.4390   17.2130 O.2   162  THR162     -0.2863
     65  CB         9.3090   20.5150   16.9970 C.3   162  THR162      0.1794
     66  OG1       10.4600   19.7120   16.7140 O.3   162  THR162     -0.2208
     67  CG2        8.8810   20.2690   18.4420 C.3   162  THR162      0.0378
     68  N          3.8620   18.8150   16.3200 N.3   165  ASN165     -0.1240
     69  CA         3.6470   17.8540   17.4010 C.3   165  ASN165      0.1653
     70  C          2.7140   18.4050   18.4730 C.2   165  ASN165      0.2266
     71  O          2.5160   17.7830   19.5140 O.2   165  ASN165     -0.2867
     72  CB         4.9870   17.4420   18.0240 C.3   165  ASN165      0.1155
     73  CG         5.8410   16.6250   17.0730 C.2   165  ASN165      0.2627
     74  OD1        7.0150   16.9250   16.8610 O.2   165  ASN165     -0.2716
     75  ND2        5.2510   15.5880   16.4890 N.am  165  ASN165     -0.0877
     76  N          7.5200    7.3070    6.4800 N.3   204  ALA204     -0.1231
     77  CA         8.4510    8.1310    7.2470 C.3   204  ALA204      0.1694
     78  C          8.3010    7.9190    8.7540 C.2   204  ALA204      0.2592
     79  O          9.1900    8.2840    9.5260 O.2   204  ALA204     -0.2718
     80  CB         8.2550    9.6010    6.9070 C.3   204  ALA204      0.0304
     81  N          7.1780    7.3350    9.1660 N.am  205  TYR205     -0.1976
     82  CA         6.9030    7.0870   10.5820 C.3   205  TYR205      0.1639
     83  C          6.7110    5.6020   10.8500 C.2   205  TYR205      0.2290
     84  O          6.1670    5.2060   11.8800 O.2   205  TYR205     -0.2864
     85  CB         5.6730    7.8860   11.0200 C.3   205  TYR205      0.0560
     86  CG         5.9430    9.3670   10.9820 C.ar  205  TYR205     -0.0198
     87  CD1        5.8210   10.0830    9.7990 C.ar  205  TYR205     -0.0009
     88  CD2        6.3540   10.0440   12.1170 C.ar  205  TYR205     -0.0009
     89  CE1        6.0860   11.4340    9.7510 C.ar  205  TYR205      0.0417
     90  CE2        6.6220   11.3980   12.0800 C.ar  205  TYR205      0.0417
     91  CZ         6.4920   12.0870   10.8940 C.ar  205  TYR205      0.1957
     92  OH         6.7630   13.4380   10.8530 O.3   205  TYR205     -0.2866
     93  N         11.6990    3.6710   14.3690 N.3   212  THR212     -0.1218
     94  CA        10.6140    4.5070   14.8770 C.3   212  THR212      0.1862
     95  C          9.7730    3.7120   15.8730 C.2   212  THR212      0.2287
     96  O          9.3700    4.2350   16.9080 O.2   212  THR212     -0.2866
     97  CB         9.7150    5.0390   13.7460 C.3   212  THR212      0.1770
     98  OG1       10.5230    5.6890   12.7590 O.3   212  THR212     -0.2211
     99  CG2        8.6980    6.0350   14.2910 C.3   212  THR212      0.0375
    100  N         11.4760    3.7930   19.0880 N.3   215  PHE215     -0.1241
    101  CA        11.2880    5.1390   19.6190 C.3   215  PHE215      0.1605
    102  C          9.9280    5.2660   20.2950 C.2   215  PHE215      0.2264
    103  O          9.8140    5.8130   21.3950 O.2   215  PHE215     -0.2867
    104  CB        11.4290    6.1600   18.4830 C.3   215  PHE215      0.0534
    105  CG        11.1200    7.5720   18.8770 C.ar  215  PHE215     -0.0203
    106  CD1       11.9560    8.2700   19.7300 C.ar  215  PHE215     -0.0042
    107  CD2       10.0070    8.2160   18.3630 C.ar  215  PHE215     -0.0042
    108  CE1       11.6770    9.5770   20.0810 C.ar  215  PHE215     -0.0003
    109  CE2        9.7240    9.5250   18.7100 C.ar  215  PHE215     -0.0003
    110  CZ        10.5630   10.2050   19.5690 C.ar  215  PHE215     -0.0000
    111  N          0.9920    8.2750   15.7190 N.3   251  MET251     -0.1245
    112  CA         1.6560    7.0630   16.1770 C.3   251  MET251      0.1570
    113  C          0.8170    6.4220   17.2700 C.2   251  MET251      0.2261
    114  O          0.3950    7.0860   18.2180 O.2   251  MET251     -0.2867
    115  CB         3.0690    7.3650   16.6830 C.3   251  MET251      0.0387
    116  CG         3.9950    7.9270   15.6150 C.3   251  MET251      0.0595
    117  SD         5.7210    7.4870   15.8820 S.3   251  MET251     -0.1393
    118  CE         5.9310    7.9480   17.6030 C.3   251  MET251      0.0692
    119  N          1.4830    9.9980   19.8240 N.3   281  GLU281     -0.1245
    120  CA         1.9710   11.2070   19.1610 C.3   281  GLU281      0.1567
    121  C          1.1720   11.5740   17.9210 C.2   281  GLU281      0.2260
    122  O          0.7440   10.7050   17.1670 O.2   281  GLU281     -0.2867
    123  CB         3.4410   11.0390   18.7650 C.3   281  GLU281      0.0388
    124  CG         4.1230   12.3330   18.3370 C.3   281  GLU281      0.1160
    125  CD         5.4950   12.0930   17.7390 C.2   281  GLU281      0.3649
    126  OE1        5.5770   11.3680   16.7250 O.co2 281  GLU281     -0.2457
    127  OE2        6.4900   12.6200   18.2840 O.co2 281  GLU281     -0.2457
    128  N          1.6650   14.1100   14.4470 N.3   283  SER283     -0.1217
    129  CA         2.5950   14.9090   13.6680 C.3   283  SER283      0.1889
    130  C          1.7950   15.5840   12.5670 C.2   283  SER283      0.2288
    131  O          1.6380   15.0430   11.4720 O.2   283  SER283     -0.2866
    132  CB         3.7200   14.0470   13.0960 C.3   283  SER283      0.2089
    133  OG         4.6490   14.8340   12.3740 O.3   283  SER283     -0.2183
    134  N          0.5610   17.8400    9.5970 N.3   285  LYS285     -0.1245
    135  CA         1.1630   18.3280    8.3610 C.3   285  LYS285      0.1561
    136  C          0.3650   19.5200    7.8400 C.2   285  LYS285      0.2260
    137  O         -0.8580   19.5700    7.9760 O.2   285  LYS285     -0.2867
    138  CB         1.2330   17.2070    7.3230 C.3   285  LYS285      0.0271
    139  CG         1.9250   15.9380    7.8360 C.3   285  LYS285      0.0035
    140  CD         3.3270   16.2270    8.3750 C.3   285  LYS285      0.0206
    141  CE         3.9870   14.9840    8.9430 C.3   285  LYS285      0.1093
    142  NZ         5.2920   15.3030    9.5990 N.3   285  LYS285     -0.1314
@<TRIPOS>BOND
     1    32    33    1
     2    44    45    1
     3    44    50    1
     4    76    77    1
     5    34    35    2
     6    34    33    1
     7    47    46    2
     8    80    77    1
     9    45    46    1
    10    45    48    1
    11    50    49    1
    12    33    36    1
    13    77    78    1
    14   138   139    1
    15   138   135    1
    16   139   140    1
    17   136   137    2
    18   136   135    1
    19    49    48    1
    20   135   134    1
    21   140   141    1
    22    36    37    1
    23    78    81   am
    24    78    79    2
    25   141   142    1
    26    81    82    1
    27    37    39   ar
    28    37    38   ar
    29    89    87   ar
    30    89    91   ar
    31    87    86   ar
    32    39    41   ar
    33    38    40   ar
    34    82    83    1
    35    82    85    1
    36    41    42   ar
    37    27    26    2
    38    40    42   ar
    39    83    84    2
    40    92    91    1
    41    60    59    1
    42    91    90   ar
    43    86    85    1
    44    86    88   ar
    45    59    56    1
    46    42    43    1
    47   131   130    2
    48    26    25    1
    49    90    88   ar
    50    55    53   am
    51    55    56    1
    52    51    52    1
    53    52    53    1
    54    53    54    2
    55    56    57    1
    56   133   132    1
    57   130   129    1
    58    98    97    1
    59    30    28    1
    60    25    28    1
    61    25    24    1
    62   132   129    1
    63    57    58    2
    64    57    61   am
    65   129   128    1
    66    28    29    1
    67    97    99    1
    68    97    94    1
    69    93    94    1
    70    29    31    1
    71    61    62    1
    72    94    95    1
    73    16    15    2
    74    23    21   ar
    75    23    22   ar
    76    21    19   ar
    77   116   117    1
    78   116   115    1
    79   111   112    1
    80    95    96    2
    81   117   118    1
    82    62    63    1
    83    62    65    1
    84   112   115    1
    85   112   113    1
    86    22    20   ar
    87    68    69    1
    88    63    64    2
    89    19    18   ar
    90    75    73   am
    91    15    14    1
    92    66    65    1
    93   126   125   ar
    94    74    73    2
    95    65    67    1
    96    73    72    1
    97    20    18   ar
    98   122   121    2
    99   113   114    2
   100    18    17    1
   101    69    72    1
   102    69    70    1
   103    14    17    1
   104    14    13    1
   105   125   127   ar
   106   125   124    1
   107   121   120    1
   108   124   123    1
   109   107   109   ar
   110   107   105   ar
   111    70    71    2
   112   104   105    1
   113   104   101    1
   114   109   110   ar
   115   123   120    1
   116   105   106   ar
   117   100   101    1
   118   120   119    1
   119    12    11    1
   120   110   108   ar
   121   101   102    1
   122   106   108   ar
   123   102   103    2
   124    11     9   ar
   125    11    10   ar
   126     9     7   ar
   127    10     8   ar
   128     7     6   ar
   129     8     6   ar
   130     6     5    1
   131     5     2    1
   132     2     1    1
   133     2     3    1
   134     3     4    2
