@<TRIPOS>MOLECULE
tmp/4pipC00.pdb
 170 164 0 0 0
SMALL
GASTEIGER

@<TRIPOS>ATOM
      1  N          5.8790   32.0170  -10.8680 N.3    29  PRO29      -0.2116
      2  CA         7.2660   31.9820  -10.3850 C.3    29  PRO29       0.1372
      3  C          8.1980   33.0400  -10.9860 C.2    29  PRO29       0.2244
      4  O          9.2570   33.2870  -10.3970 O.2    29  PRO29      -0.2868
      5  CB         7.7340   30.5650  -10.7630 C.3    29  PRO29       0.0268
      6  CG         6.8790   30.1590  -11.8810 C.3    29  PRO29       0.0207
      7  CD         5.5430   30.8090  -11.6500 C.3    29  PRO29       0.0892
      8  N          9.4520   35.5590   -8.4300 N.3    32  PHE32      -0.1227
      9  CA        10.4360   35.2260   -7.4050 C.3    32  PHE32       0.1736
     10  C         11.6670   36.1230   -7.5050 C.2    32  PHE32       0.2595
     11  O         12.3360   36.3850   -6.5110 O.2    32  PHE32      -0.2718
     12  CB        10.8850   33.7670   -7.5280 C.3    32  PHE32       0.0547
     13  CG         9.9170   32.7630   -6.9430 C.ar   32  PHE32      -0.0202
     14  CD1        8.5700   32.7930   -7.2680 C.ar   32  PHE32      -0.0042
     15  CD2       10.3680   31.7720   -6.0850 C.ar   32  PHE32      -0.0042
     16  CE1        7.6890   31.8550   -6.7300 C.ar   32  PHE32      -0.0003
     17  CE2        9.4930   30.8320   -5.5490 C.ar   32  PHE32      -0.0003
     18  CZ         8.1580   30.8750   -5.8730 C.ar   32  PHE32      -0.0000
     19  N         11.9800   36.5740   -8.7140 N.am   33  TYR33      -0.1976
     20  CA        13.3500   36.9810   -9.0070 C.3    33  TYR33       0.1639
     21  C         13.5610   38.4840   -8.9260 C.2    33  TYR33       0.2290
     22  O         13.7930   39.1480   -9.9460 O.2    33  TYR33      -0.2864
     23  CB        13.7560   36.4650  -10.3910 C.3    33  TYR33       0.0560
     24  CG        13.7070   34.9560  -10.4650 C.ar   33  TYR33      -0.0198
     25  CD1       14.7780   34.1880  -10.0320 C.ar   33  TYR33      -0.0009
     26  CD2       12.5880   34.2950  -10.9490 C.ar   33  TYR33      -0.0009
     27  CE1       14.7410   32.7990  -10.0880 C.ar   33  TYR33       0.0417
     28  CE2       12.5490   32.9070  -11.0110 C.ar   33  TYR33       0.0417
     29  CZ        13.6310   32.1690  -10.5760 C.ar   33  TYR33       0.1957
     30  OH        13.5930   30.7910  -10.6230 O.3    33  TYR33      -0.2866
     31  N         18.3750   32.1640   -5.3420 N.3    41  PHE41      -0.1241
     32  CA        18.5480   31.0960   -6.3300 C.3    41  PHE41       0.1605
     33  C         20.0310   30.8240   -6.5580 C.2    41  PHE41       0.2264
     34  O         20.4360   29.6750   -6.7430 O.2    41  PHE41      -0.2867
     35  CB        17.8980   31.4080   -7.6840 C.3    41  PHE41       0.0534
     36  CG        18.1330   30.3190   -8.6900 C.ar   41  PHE41      -0.0203
     37  CD1       17.3870   29.1510   -8.6420 C.ar   41  PHE41      -0.0042
     38  CD2       19.1550   30.4150   -9.6170 C.ar   41  PHE41      -0.0042
     39  CE1       17.6210   28.1120   -9.5280 C.ar   41  PHE41      -0.0003
     40  CE2       19.3960   29.3680  -10.5070 C.ar   41  PHE41      -0.0003
     41  CZ        18.6280   28.2210  -10.4540 C.ar   41  PHE41      -0.0000
     42  N         20.8810   28.4410   -3.9960 N.3    44  ILE44      -0.1245
     43  CA        20.3300   27.1350   -4.3240 C.3    44  ILE44       0.1561
     44  C         21.2920   26.3320   -5.1950 C.2    44  ILE44       0.2260
     45  O         21.4770   25.1380   -4.9710 O.2    44  ILE44      -0.2867
     46  CB        18.9720   27.2700   -5.0410 C.3    44  ILE44       0.0252
     47  CG1       17.9330   27.7920   -4.0530 C.3    44  ILE44       0.0019
     48  CG2       18.5230   25.9270   -5.6280 C.3    44  ILE44       0.0019
     49  CD1       16.5610   28.0640   -4.6390 C.3    44  ILE44       0.0001
     50  N         20.7950   20.0260   -4.5790 N.3    50  TYR50      -0.1241
     51  CA        20.3610   20.5820   -5.8550 C.3    50  TYR50       0.1605
     52  C         21.3760   20.2390   -6.9400 C.2    50  TYR50       0.2264
     53  O         22.2570   21.0320   -7.2800 O.2    50  TYR50      -0.2867
     54  CB        20.1350   22.0990   -5.7570 C.3    50  TYR50       0.0534
     55  CG        19.4390   22.6540   -6.9730 C.ar   50  TYR50      -0.0201
     56  CD1       18.0640   22.5420   -7.1310 C.ar   50  TYR50      -0.0009
     57  CD2       20.1580   23.2560   -7.9760 C.ar   50  TYR50      -0.0009
     58  CE1       17.4300   23.0440   -8.2540 C.ar   50  TYR50       0.0417
     59  CE2       19.5380   23.7520   -9.0930 C.ar   50  TYR50       0.0417
     60  CZ        18.1820   23.6420   -9.2320 C.ar   50  TYR50       0.1957
     61  OH        17.6110   24.1540  -10.3630 O.3    50  TYR50      -0.2866
     62  N         20.9080   19.8580  -10.2070 N.3    52  PRO52      -0.2116
     63  CA        20.8440   20.3310  -11.6030 C.3    52  PRO52       0.1372
     64  C         21.9900   21.2570  -12.0590 C.2    52  PRO52       0.2244
     65  O         22.5110   21.0340  -13.1570 O.2    52  PRO52      -0.2868
     66  CB        19.5010   21.0760  -11.6510 C.3    52  PRO52       0.0268
     67  CG        18.6460   20.3510  -10.6490 C.3    52  PRO52       0.0207
     68  CD        19.5930   19.9670   -9.5390 C.3    52  PRO52       0.0892
     69  N         19.2180   25.2340  -17.2930 N.3   155  GLY155     -0.1210
     70  CA        18.7320   25.2070  -15.9220 C.3   155  GLY155      0.1956
     71  C         17.4140   24.4830  -15.7310 C.2   155  GLY155      0.2613
     72  O         16.8750   24.4270  -14.6300 O.2   155  GLY155     -0.2717
     73  N         16.8930   23.9420  -16.8150 N.am  156  SER156     -0.1938
     74  CA        15.5600   23.3530  -16.8380 C.3   156  SER156      0.2055
     75  C         14.4870   24.3820  -16.5200 C.2   156  SER156      0.2643
     76  O         13.3960   24.0470  -16.0430 O.2   156  SER156     -0.2714
     77  CB        15.4460   22.1730  -15.8720 C.3   156  SER156      0.2130
     78  OG        14.4250   21.3240  -16.3470 O.3   156  SER156     -0.2179
     79  N         14.7850   25.6440  -16.8310 N.am  157  THR157     -0.1950
     80  CA        13.8210   26.7060  -16.5990 C.3   157  THR157      0.1897
     81  C         12.6330   26.5320  -17.5460 C.2   157  THR157      0.2313
     82  O         11.5440   27.0340  -17.2720 O.2   157  THR157     -0.2863
     83  CB        14.4680   28.1030  -16.7670 C.3   157  THR157      0.1794
     84  OG1       15.5160   28.2650  -15.7970 O.3   157  THR157     -0.2208
     85  CG2       13.4420   29.2230  -16.5780 C.3   157  THR157      0.0378
     86  N          9.7190   25.2540  -15.7980 N.3   160  ASN160     -0.1240
     87  CA         8.9420   26.1330  -14.9110 C.3   160  ASN160      0.1653
     88  C          7.6910   26.6510  -15.6260 C.2   160  ASN160      0.2266
     89  O          6.9610   27.4920  -15.1080 O.2   160  ASN160     -0.2867
     90  CB         9.8040   27.2800  -14.4000 C.3   160  ASN160      0.1155
     91  CG        10.9320   26.7970  -13.4900 C.2   160  ASN160      0.2627
     92  OD1       10.7430   25.9010  -12.6640 O.2   160  ASN160     -0.2716
     93  ND2       12.0990   27.3780  -13.6470 N.am  160  ASN160     -0.0877
     94  N         15.8090   18.0690   -3.7750 N.3   199  ALA199     -0.1231
     95  CA        16.3780   19.1840   -4.5310 C.3   199  ALA199      0.1694
     96  C         15.5970   20.4900   -4.3530 C.2   199  ALA199      0.2592
     97  O         16.1420   21.5790   -4.5700 O.2   199  ALA199     -0.2718
     98  CB        16.4540   18.8230   -6.0220 C.3   199  ALA199      0.0304
     99  N         14.3290   20.3750   -3.9650 N.am  200  TYR200     -0.1976
    100  CA        13.4490   21.5290   -3.7960 C.3   200  TYR200      0.1639
    101  C         12.9910   21.6500   -2.3460 C.2   200  TYR200      0.2290
    102  O         11.9940   22.3100   -2.0570 O.2   200  TYR200     -0.2864
    103  CB        12.2520   21.4140   -4.7580 C.3   200  TYR200      0.0560
    104  CG        12.7300   21.4040   -6.1950 C.ar  200  TYR200     -0.0198
    105  CD1       12.8720   22.5910   -6.8980 C.ar  200  TYR200     -0.0009
    106  CD2       13.1020   20.2190   -6.8240 C.ar  200  TYR200     -0.0009
    107  CE1       13.3460   22.6000   -8.2000 C.ar  200  TYR200      0.0417
    108  CE2       13.5740   20.2170   -8.1280 C.ar  200  TYR200      0.0417
    109  CZ        13.6920   21.4180   -8.8080 C.ar  200  TYR200      0.1957
    110  OH        14.1610   21.4530  -10.0990 O.3   200  TYR200     -0.2866
    111  N         15.8300   27.0570    0.0350 N.3   207  THR207     -0.1218
    112  CA        14.7300   27.0150   -0.9260 C.3   207  THR207      0.1862
    113  C         13.4410   27.5370   -0.2830 C.2   207  THR207      0.2287
    114  O         12.6590   28.2160   -0.9390 O.2   207  THR207     -0.2866
    115  CB        14.4850   25.5960   -1.4740 C.3   207  THR207      0.1770
    116  OG1       15.6840   25.1020   -2.0810 O.3   207  THR207     -0.2211
    117  CG2       13.3790   25.6070   -2.5210 C.3   207  THR207      0.0375
    118  N         13.5710   31.1880   -0.4760 N.3   210  PHE210     -0.1227
    119  CA        13.3550   31.5200   -1.8810 C.3   210  PHE210      0.1736
    120  C         11.8540   31.5360   -2.1870 C.2   210  PHE210      0.2595
    121  O         11.3510   32.4470   -2.8480 O.2   210  PHE210     -0.2718
    122  CB        14.1070   30.4980   -2.7570 C.3   210  PHE210      0.0547
    123  CG        13.9290   30.6900   -4.2290 C.ar  210  PHE210     -0.0202
    124  CD1       14.3510   31.8590   -4.8470 C.ar  210  PHE210     -0.0042
    125  CD2       13.3660   29.6910   -5.0010 C.ar  210  PHE210     -0.0042
    126  CE1       14.1970   32.0330   -6.2070 C.ar  210  PHE210     -0.0003
    127  CE2       13.2120   29.8560   -6.3690 C.ar  210  PHE210     -0.0003
    128  CZ        13.6300   31.0330   -6.9700 C.ar  210  PHE210     -0.0000
    129  N         11.1480   30.5280   -1.6840 N.am  211  ASN211     -0.1974
    130  CA         9.7060   30.4280   -1.8660 C.3   211  ASN211      0.1688
    131  C          8.9310   31.5590   -1.1660 C.2   211  ASN211      0.2292
    132  O          8.1060   32.2440   -1.7920 O.2   211  ASN211     -0.2864
    133  CB         9.2170   29.0680   -1.3540 C.3   211  ASN211      0.1181
    134  CG         7.7860   28.7750   -1.7600 C.2   211  ASN211      0.2629
    135  OD1        7.1670   29.5580   -2.4730 O.2   211  ASN211     -0.2716
    136  ND2        7.2570   27.6380   -1.3200 N.am  211  ASN211     -0.0877
    137  N          5.6560   23.2430   -6.0380 N.3   246  VAL246     -0.1245
    138  CA         6.0690   24.0100   -4.8730 C.3   246  VAL246      0.1561
    139  C          4.8850   24.8410   -4.4100 C.2   246  VAL246      0.2260
    140  O          4.2610   25.5340   -5.2110 O.2   246  VAL246     -0.2867
    141  CB         7.3000   24.9110   -5.2090 C.3   246  VAL246      0.0252
    142  CG1        7.6430   25.8650   -4.0490 C.3   246  VAL246      0.0019
    143  CG2        8.4920   24.0310   -5.5890 C.3   246  VAL246      0.0019
    144  N          5.1650   27.4770   -7.6900 N.3   276  ALA276     -0.1231
    145  CA         5.9600   27.0400   -8.8350 C.3   276  ALA276      0.1694
    146  C          5.7320   25.5770   -9.2000 C.2   276  ALA276      0.2592
    147  O          5.3600   24.7530   -8.3550 O.2   276  ALA276     -0.2718
    148  CB         7.4620   27.2660   -8.5600 C.3   276  ALA276      0.0304
    149  N          5.9690   25.2690  -10.4710 N.am  277  VAL277     -0.1966
    150  CA         6.1660   23.8890  -10.8890 C.3   277  VAL277      0.1727
    151  C          7.5630   23.7650  -11.4550 C.2   277  VAL277      0.2616
    152  O          8.1780   24.7550  -11.8650 O.2   277  VAL277     -0.2715
    153  CB         5.1260   23.4100  -11.9300 C.3   277  VAL277      0.0290
    154  CG1        3.7360   23.5050  -11.3430 C.3   277  VAL277      0.0023
    155  CG2        5.2250   24.2020  -13.2430 C.3   277  VAL277      0.0023
    156  N          8.0890   22.5510  -11.4140 N.am  278  SER278     -0.1950
    157  CA         9.3240   22.2420  -12.1020 C.3   278  SER278      0.1924
    158  C          9.1180   20.9070  -12.8010 C.2   278  SER278      0.2314
    159  O          9.2320   19.8560  -12.1760 O.2   278  SER278     -0.2863
    160  CB        10.5010   22.1930  -11.1430 C.3   278  SER278      0.2116
    161  OG        11.7080   22.1460  -11.8770 O.3   278  SER278     -0.2180
    162  N          9.6200   17.6970  -14.9890 N.3   280  LYS280     -0.1245
    163  CA        10.7390   16.8320  -15.2910 C.3   280  LYS280      0.1561
    164  C         10.4210   16.0680  -16.5740 C.2   280  LYS280      0.2260
    165  O          9.2600   15.7700  -16.8520 O.2   280  LYS280     -0.2867
    166  CB        11.0230   15.8980  -14.1190 C.3   280  LYS280      0.0271
    167  CG        11.1990   16.6500  -12.8110 C.3   280  LYS280      0.0035
    168  CD        12.3860   17.6360  -12.9040 C.3   280  LYS280      0.0206
    169  CE        12.5270   18.4680  -11.6350 C.3   280  LYS280      0.1093
    170  NZ        13.4970   19.5990  -11.8310 N.3   280  LYS280     -0.1314
@<TRIPOS>BOND
     1    81    82    2
     2    81    80    1
     3    69    70    1
     4   165   164    2
     5    74    73    1
     6    74    75    1
     7    74    77    1
     8    79    80    1
     9    79    75   am
    10    73    71   am
    11    83    80    1
    12    83    85    1
    13    83    84    1
    14   164   163    1
    15    75    76    2
    16    78    77    1
    17    70    71    1
    18    86    87    1
    19    71    72    2
    20    88    89    2
    21    88    87    1
    22   163   162    1
    23   163   166    1
    24    87    90    1
    25    90    91    1
    26   166   167    1
    27    93    91   am
    28    91    92    2
    29   155   153    1
    30    65    64    2
    31   168   167    1
    32   168   169    1
    33   158   159    2
    34   158   157    1
    35   157   156    1
    36   157   160    1
    37    64    63    1
    38   153   154    1
    39   153   150    1
    40     6     7    1
    41     6     5    1
    42   161   160    1
    43   152   151    2
    44   170   169    1
    45    66    63    1
    46    66    67    1
    47     7     1    1
    48    63    62    1
    49   151   156   am
    50   151   150    1
    51    28    26   ar
    52    28    29   ar
    53     3     4    2
    54     3     2    1
    55    26    24   ar
    56   150   149    1
    57     1     2    1
    58     5     2    1
    59    67    68    1
    60    30    29    1
    61    29    27   ar
    62    40    41   ar
    63    40    38   ar
    64   149   146   am
    65    24    23    1
    66    24    25   ar
    67    41    39   ar
    68    23    20    1
    69    61    60    1
    70    62    68    1
    71   110   109    1
    72    27    25   ar
    73    22    21    2
    74    38    36   ar
    75    39    37   ar
    76    60    59   ar
    77    60    58   ar
    78   146   145    1
    79   146   147    2
    80    59    57   ar
    81    20    21    1
    82    20    19    1
    83   145   148    1
    84   145   144    1
    85   109   107   ar
    86   109   108   ar
    87    19    10   am
    88    36    37   ar
    89    36    35    1
    90     8     9    1
    91    58    56   ar
    92   107   105   ar
    93   108   106   ar
    94    57    55   ar
    95    35    32    1
    96    12     9    1
    97    12    13    1
    98    10     9    1
    99    10    11    2
   100    53    52    2
   101    14    13   ar
   102    14    16   ar
   103    56    55   ar
   104    55    54    1
   105   128   127   ar
   106   128   126   ar
   107    13    15   ar
   108    52    51    1
   109   105   104   ar
   110   106   104   ar
   111    34    33    2
   112    16    18   ar
   113    33    32    1
   114   127   125   ar
   115    32    31    1
   116   126   124   ar
   117   104   103    1
   118    15    17   ar
   119   137   138    1
   120    98    95    1
   121    18    17   ar
   122    51    54    1
   123    51    50    1
   124    48    46    1
   125   143   141    1
   126   140   139    2
   127   141   138    1
   128   141   142    1
   129    44    45    2
   130    44    43    1
   131    46    43    1
   132    46    47    1
   133   125   123   ar
   134   138   139    1
   135   124   123   ar
   136   103   100    1
   137    49    47    1
   138    97    96    2
   139    95    96    1
   140    95    94    1
   141    96    99   am
   142    43    42    1
   143   123   122    1
   144    99   100    1
   145   100   101    1
   146   121   120    2
   147   122   119    1
   148   117   115    1
   149   135   134    2
   150   101   102    2
   151   120   119    1
   152   120   129   am
   153   116   115    1
   154   119   118    1
   155   130   129    1
   156   130   133    1
   157   130   131    1
   158   132   131    2
   159   134   133    1
   160   134   136   am
   161   115   112    1
   162   114   113    2
   163   112   113    1
   164   112   111    1
