@<TRIPOS>MOLECULE
tmp/4pipC01.pdb
 212 203 0 0 0
SMALL
GASTEIGER

@<TRIPOS>ATOM
      1  N          5.8790   32.0170  -10.8680 N.3    29  PRO29      -0.2102
      2  CA         7.2660   31.9820  -10.3850 C.3    29  PRO29       0.1504
      3  C          8.1980   33.0400  -10.9860 C.2    29  PRO29       0.2575
      4  O          9.2570   33.2870  -10.3970 O.2    29  PRO29      -0.2718
      5  CB         7.7340   30.5650  -10.7630 C.3    29  PRO29       0.0282
      6  CG         6.8790   30.1590  -11.8810 C.3    29  PRO29       0.0208
      7  CD         5.5430   30.8090  -11.6500 C.3    29  PRO29       0.0893
      8  N          7.8400   33.6610  -12.1030 N.am   30  LYS30      -0.1980
      9  CA         8.6780   34.7410  -12.6330 C.3    30  LYS30       0.1596
     10  C          8.8910   35.8430  -11.5670 C.2    30  LYS30       0.2287
     11  O          9.9030   36.5420  -11.5680 O.2    30  LYS30      -0.2864
     12  CB         8.0590   35.3580  -13.8940 C.3    30  LYS30       0.0298
     13  CG         6.7120   36.0130  -13.6520 C.3    30  LYS30       0.0038
     14  CD         6.1780   36.7200  -14.8850 C.3    30  LYS30       0.0206
     15  CE         6.9960   37.9630  -15.2150 C.3    30  LYS30       0.1093
     16  NZ         6.1940   38.9900  -15.9500 N.3    30  LYS30      -0.1314
     17  N         11.9800   36.5740   -8.7140 N.3    33  TYR33      -0.1241
     18  CA        13.3500   36.9810   -9.0070 C.3    33  TYR33       0.1605
     19  C         13.5610   38.4840   -8.9260 C.2    33  TYR33       0.2264
     20  O         13.7930   39.1480   -9.9460 O.2    33  TYR33      -0.2867
     21  CB        13.7560   36.4650  -10.3910 C.3    33  TYR33       0.0534
     22  CG        13.7070   34.9560  -10.4650 C.ar   33  TYR33      -0.0201
     23  CD1       14.7780   34.1880  -10.0320 C.ar   33  TYR33      -0.0009
     24  CD2       12.5880   34.2950  -10.9490 C.ar   33  TYR33      -0.0009
     25  CE1       14.7410   32.7990  -10.0880 C.ar   33  TYR33       0.0417
     26  CE2       12.5490   32.9070  -11.0110 C.ar   33  TYR33       0.0417
     27  CZ        13.6310   32.1690  -10.5760 C.ar   33  TYR33       0.1957
     28  OH        13.5930   30.7910  -10.6230 O.3    33  TYR33      -0.2866
     29  N         16.8220   36.4780   -6.5780 N.3    38  SER38      -0.1217
     30  CA        17.8560   36.0520   -7.5140 C.3    38  SER38       0.1889
     31  C         19.0840   35.6110   -6.7390 C.2    38  SER38       0.2288
     32  O         19.7490   34.6480   -7.1150 O.2    38  SER38      -0.2866
     33  CB        18.2300   37.1660   -8.4980 C.3    38  SER38       0.2089
     34  OG        17.2920   37.2570   -9.5580 O.3    38  SER38      -0.2183
     35  N         18.3750   32.1640   -5.3420 N.3    41  PHE41      -0.1241
     36  CA        18.5480   31.0960   -6.3300 C.3    41  PHE41       0.1605
     37  C         20.0310   30.8240   -6.5580 C.2    41  PHE41       0.2264
     38  O         20.4360   29.6750   -6.7430 O.2    41  PHE41      -0.2867
     39  CB        17.8980   31.4080   -7.6840 C.3    41  PHE41       0.0534
     40  CG        18.1330   30.3190   -8.6900 C.ar   41  PHE41      -0.0203
     41  CD1       17.3870   29.1510   -8.6420 C.ar   41  PHE41      -0.0042
     42  CD2       19.1550   30.4150   -9.6170 C.ar   41  PHE41      -0.0042
     43  CE1       17.6210   28.1120   -9.5280 C.ar   41  PHE41      -0.0003
     44  CE2       19.3960   29.3680  -10.5070 C.ar   41  PHE41      -0.0003
     45  CZ        18.6280   28.2210  -10.4540 C.ar   41  PHE41      -0.0000
     46  N         21.9280   26.9840   -6.1640 N.3    45  THR45      -0.1218
     47  CA        22.7580   26.2570   -7.1230 C.3    45  THR45       0.1862
     48  C         23.9920   25.5940   -6.4840 C.2    45  THR45       0.2287
     49  O         24.6900   24.8210   -7.1350 O.2    45  THR45      -0.2866
     50  CB        23.2420   27.1780   -8.2800 C.3    45  THR45       0.1770
     51  OG1       24.1810   28.1530   -7.8020 O.3    45  THR45      -0.2211
     52  CG2       22.0750   27.8740   -8.9400 C.3    45  THR45       0.0375
     53  N         22.3860   22.2530  -11.2650 N.3    53  THR53      -0.1218
     54  CA        23.3980   23.2100  -11.7350 C.3    53  THR53       0.1862
     55  C         24.7410   22.5370  -12.0720 C.2    53  THR53       0.2287
     56  O         25.2780   22.7180  -13.1660 O.2    53  THR53      -0.2866
     57  CB        23.6640   24.3400  -10.7060 C.3    53  THR53       0.1770
     58  OG1       22.4270   24.9720  -10.3540 O.3    53  THR53      -0.2211
     59  CG2       24.6050   25.3850  -11.3080 C.3    53  THR53       0.0375
     60  N         20.9030   34.4000  -24.4150 N.3    78  GLU78      -0.1231
     61  CA        20.4710   33.5290  -23.3110 C.3    78  GLU78       0.1699
     62  C         19.1900   33.9920  -22.6420 C.2    78  GLU78       0.2592
     63  O         19.0770   35.1370  -22.1840 O.2    78  GLU78      -0.2718
     64  CB        21.5500   33.3750  -22.2470 C.3    78  GLU78       0.0402
     65  CG        21.1270   32.3540  -21.1900 C.3    78  GLU78       0.1161
     66  CD        22.2110   32.0180  -20.1820 C.2    78  GLU78       0.3649
     67  OE1       23.1870   32.7890  -20.0650 O.co2  78  GLU78      -0.2457
     68  OE2       22.0780   30.9740  -19.5150 O.co2  78  GLU78      -0.2457
     69  N         18.2310   33.0690  -22.5880 N.am   79  LEU79      -0.1966
     70  CA        16.9450   33.3270  -21.9590 C.3    79  LEU79       0.1728
     71  C         17.0280   32.9680  -20.4840 C.2    79  LEU79       0.2617
     72  O         17.6290   31.9590  -20.1200 O.2    79  LEU79      -0.2715
     73  CB        15.8410   32.5320  -22.6380 C.3    79  LEU79       0.0311
     74  CG        15.7470   32.7280  -24.1530 C.3    79  LEU79       0.0022
     75  CD1       14.5840   31.9090  -24.7190 C.3    79  LEU79       0.0001
     76  CD2       15.5960   34.2210  -24.5040 C.3    79  LEU79       0.0001
     77  N         16.3940   33.7790  -19.6470 N.am   80  GLY80      -0.1940
     78  CA        16.4830   33.5890  -18.2130 C.3    80  GLY80       0.2014
     79  C         17.9310   33.3910  -17.8090 C.2    80  GLY80       0.2640
     80  O         18.2770   32.4000  -17.1820 O.2    80  GLY80      -0.2714
     81  N         18.7680   34.3520  -18.1800 N.am   81  SER81      -0.1935
     82  CA        20.2200   34.2140  -18.1030 C.3    81  SER81       0.2055
     83  C         20.7860   34.1660  -16.6790 C.2    81  SER81       0.2644
     84  O         21.8450   33.5740  -16.4410 O.2    81  SER81      -0.2714
     85  CB        20.8730   35.3730  -18.8510 C.3    81  SER81       0.2130
     86  OG        20.4180   36.6000  -18.3310 O.3    81  SER81      -0.2179
     87  N         20.1210   34.8450  -15.7540 N.am   82  GLY82      -0.1939
     88  CA        20.6190   34.9230  -14.3970 C.3    82  GLY82       0.2014
     89  C         22.0430   35.4430  -14.3940 C.2    82  GLY82       0.2640
     90  O         22.3380   36.4700  -14.9850 O.2    82  GLY82      -0.2714
     91  N         22.9270   34.7310  -13.7170 N.am   83  THR83      -0.1936
     92  CA        24.3060   35.1740  -13.5880 C.3    83  THR83       0.2028
     93  C         25.1850   34.7440  -14.7590 C.2    83  THR83       0.2642
     94  O         26.3290   35.1940  -14.8790 O.2    83  THR83      -0.2714
     95  CB        24.9310   34.6410  -12.3070 C.3    83  THR83       0.1808
     96  OG1       24.9600   33.2090  -12.3520 O.3    83  THR83      -0.2208
     97  CG2       24.1430   35.1130  -11.0900 C.3    83  THR83       0.0379
     98  N         24.6530   33.8720  -15.6090 N.am   84  SER84      -0.1949
     99  CA        25.3920   33.3330  -16.7580 C.3    84  SER84       0.1924
    100  C         26.7530   32.7350  -16.3930 C.2    84  SER84       0.2314
    101  O         27.7370   32.9020  -17.1190 O.2    84  SER84      -0.2863
    102  CB        25.5790   34.4320  -17.8070 C.3    84  SER84       0.2116
    103  OG        24.3340   34.9760  -18.1880 O.3    84  SER84      -0.2180
    104  N         27.3650   29.3620  -16.0890 N.3    86  LYS86      -0.1245
    105  CA        27.5360   28.2380  -17.0050 C.3    86  LYS86       0.1561
    106  C         27.7430   28.7070  -18.4460 C.2    86  LYS86       0.2260
    107  O         28.4150   28.0530  -19.2580 O.2    86  LYS86      -0.2867
    108  CB        26.3180   27.3310  -16.9190 C.3    86  LYS86       0.0271
    109  CG        26.1650   26.6810  -15.5590 C.3    86  LYS86       0.0035
    110  CD        24.9080   25.8120  -15.4670 C.3    86  LYS86       0.0206
    111  CE        23.6560   26.6670  -15.5300 C.3    86  LYS86       0.1093
    112  NZ        22.4330   25.9100  -15.2030 N.3    86  LYS86      -0.1314
    113  N         19.1530   37.7650  -21.5430 N.3   106  PHE106     -0.1227
    114  CA        17.7390   38.1090  -21.4670 C.3   106  PHE106      0.1736
    115  C         17.2130   37.6520  -20.1060 C.2   106  PHE106      0.2595
    116  O         17.2650   36.4620  -19.7980 O.2   106  PHE106     -0.2718
    117  CB        16.9700   37.4220  -22.6010 C.3   106  PHE106      0.0547
    118  CG        15.5140   37.8000  -22.6870 C.ar  106  PHE106     -0.0202
    119  CD1       14.5980   37.3270  -21.7630 C.ar  106  PHE106     -0.0042
    120  CD2       15.0630   38.6120  -23.7110 C.ar  106  PHE106     -0.0042
    121  CE1       13.2610   37.6770  -21.8560 C.ar  106  PHE106     -0.0003
    122  CE2       13.7380   38.9590  -23.8070 C.ar  106  PHE106     -0.0003
    123  CZ        12.8350   38.4820  -22.8820 C.ar  106  PHE106     -0.0000
    124  N         16.7020   38.5680  -19.2870 N.am  107  ASP107     -0.1960
    125  CA        16.1970   38.1660  -17.9790 C.3   107  ASP107      0.1840
    126  C         15.1520   39.1370  -17.4480 C.2   107  ASP107      0.2622
    127  O         15.1450   40.3060  -17.8200 O.2   107  ASP107     -0.2715
    128  CB        17.3440   38.0520  -16.9780 C.3   107  ASP107      0.1450
    129  CG        17.0170   37.0990  -15.8290 C.2   107  ASP107      0.3671
    130  OD1       16.2650   37.5020  -14.9060 O.co2 107  ASP107     -0.2456
    131  OD2       17.4920   35.9380  -15.8650 O.co2 107  ASP107     -0.2456
    132  N         14.2700   38.6530  -16.5770 N.am  108  VAL108     -0.1963
    133  CA        13.2470   39.5210  -15.9880 C.3   108  VAL108      0.1727
    134  C         13.8520   40.3970  -14.8770 C.2   108  VAL108      0.2616
    135  O         13.3020   41.4460  -14.5470 O.2   108  VAL108     -0.2715
    136  CB        12.0480   38.7040  -15.4350 C.3   108  VAL108      0.0290
    137  CG1       12.4610   37.8530  -14.2550 C.3   108  VAL108      0.0023
    138  CG2       10.8980   39.6280  -15.0720 C.3   108  VAL108      0.0023
    139  N         14.9980   39.9850  -14.3360 N.am  109  ASP109     -0.1971
    140  CA        15.6780   40.7450  -13.2750 C.3   109  ASP109      0.1709
    141  C         16.7920   41.6830  -13.8000 C.2   109  ASP109      0.2293
    142  O         17.9110   41.2590  -14.0830 O.2   109  ASP109     -0.2864
    143  CB        16.2720   39.7830  -12.2330 C.3   109  ASP109      0.1436
    144  CG        16.8840   40.5250  -11.0420 C.2   109  ASP109      0.3671
    145  OD1       16.6940   41.7630  -10.9510 O.co2 109  ASP109     -0.2456
    146  OD2       17.5330   39.8910  -10.1860 O.co2 109  ASP109     -0.2456
    147  N         20.3330   41.4400  -11.9430 N.3   112  VAL112     -0.1245
    148  CA        21.3130   40.4070  -12.2360 C.3   112  VAL112      0.1561
    149  C         21.9600   40.7020  -13.5990 C.2   112  VAL112      0.2260
    150  O         23.1370   40.4170  -13.8040 O.2   112  VAL112     -0.2867
    151  CB        20.6840   38.9690  -12.1820 C.3   112  VAL112      0.0252
    152  CG1       19.8470   38.6410  -13.4390 C.3   112  VAL112      0.0019
    153  CG2       21.7780   37.9190  -11.9520 C.3   112  VAL112      0.0019
    154  N         13.1440   41.5980  -19.7350 N.3   134  GLY134     -0.1210
    155  CA        11.7740   41.2410  -20.0470 C.3   134  GLY134      0.1956
    156  C         11.3630   39.8240  -19.6710 C.2   134  GLY134      0.2612
    157  O         12.0880   39.0790  -18.9990 O.2   134  GLY134     -0.2717
    158  N         10.1830   39.4560  -20.1590 N.am  135  ASP135     -0.1959
    159  CA         9.5030   38.2130  -19.8280 C.3   135  ASP135      0.1840
    160  C          9.6120   37.2920  -21.0400 C.2   135  ASP135      0.2622
    161  O          9.0890   37.6400  -22.1000 O.2   135  ASP135     -0.2715
    162  CB         8.0370   38.5050  -19.4810 C.3   135  ASP135      0.1450
    163  CG         7.2610   37.2740  -19.0470 C.2   135  ASP135      0.3671
    164  OD1        7.6930   36.1290  -19.3330 O.co2 135  ASP135     -0.2456
    165  OD2        6.1810   37.4710  -18.4390 O.co2 135  ASP135     -0.2456
    166  N         10.2750   36.1380  -20.9030 N.am  136  PHE136     -0.1960
    167  CA        10.5240   35.2940  -22.0690 C.3   136  PHE136      0.1771
    168  C          9.2380   34.6920  -22.6310 C.2   136  PHE136      0.2619
    169  O          9.2600   34.0710  -23.6940 O.2   136  PHE136     -0.2715
    170  CB        11.5630   34.1770  -21.7850 C.3   136  PHE136      0.0574
    171  CG        11.2770   33.3080  -20.5740 C.ar  136  PHE136     -0.0200
    172  CD1       10.1090   32.5640  -20.4780 C.ar  136  PHE136     -0.0042
    173  CD2       12.2330   33.1670  -19.5760 C.ar  136  PHE136     -0.0042
    174  CE1        9.8800   31.7500  -19.3790 C.ar  136  PHE136     -0.0003
    175  CE2       12.0110   32.3520  -18.4800 C.ar  136  PHE136     -0.0003
    176  CZ        10.8310   31.6420  -18.3810 C.ar  136  PHE136     -0.0000
    177  N          8.1140   34.9180  -21.9570 N.am  137  GLU137     -0.1977
    178  CA         6.8230   34.5140  -22.5030 C.3   137  GLU137      0.1602
    179  C          6.1410   35.6000  -23.3500 C.2   137  GLU137      0.2287
    180  O          5.1310   35.3260  -24.0000 O.2   137  GLU137     -0.2864
    181  CB         5.8870   34.1020  -21.3710 C.3   137  GLU137      0.0415
    182  CG         6.3050   32.8510  -20.6180 C.3   137  GLU137      0.1163
    183  CD         5.2140   32.3800  -19.6710 C.2   137  GLU137      0.3649
    184  OE1        5.2990   32.6960  -18.4740 O.co2 137  GLU137     -0.2457
    185  OE2        4.2610   31.7090  -20.1280 O.co2 137  GLU137     -0.2457
    186  N         19.0620   27.3040  -20.3290 N.3   154  LEU154     -0.1231
    187  CA        19.6240   26.2980  -19.4290 C.3   154  LEU154      0.1693
    188  C         18.8380   26.1940  -18.1320 C.2   154  LEU154      0.2592
    189  O         17.9230   26.9900  -17.8870 O.2   154  LEU154     -0.2718
    190  CB        21.0720   26.6500  -19.0820 C.3   154  LEU154      0.0284
    191  CG        22.0020   26.8960  -20.2650 C.3   154  LEU154      0.0019
    192  CD1       23.3540   27.4080  -19.7990 C.3   154  LEU154      0.0001
    193  CD2       22.1570   25.6130  -21.0500 C.3   154  LEU154      0.0001
    194  N         19.2180   25.2340  -17.2930 N.am  155  GLY155     -0.1957
    195  CA        18.7320   25.2070  -15.9220 C.3   155  GLY155      0.1869
    196  C         17.4140   24.4830  -15.7310 C.2   155  GLY155      0.2309
    197  O         16.8750   24.4270  -14.6300 O.2   155  GLY155     -0.2863
    198  N         14.7850   25.6440  -16.8310 N.3   157  THR157     -0.1218
    199  CA        13.8210   26.7060  -16.5990 C.3   157  THR157      0.1862
    200  C         12.6330   26.5320  -17.5460 C.2   157  THR157      0.2287
    201  O         11.5440   27.0340  -17.2720 O.2   157  THR157     -0.2866
    202  CB        14.4680   28.1030  -16.7670 C.3   157  THR157      0.1770
    203  OG1       15.5160   28.2650  -15.7970 O.3   157  THR157     -0.2211
    204  CG2       13.4420   29.2230  -16.5780 C.3   157  THR157      0.0375
    205  N          9.7190   25.2540  -15.7980 N.3   160  ASN160     -0.1240
    206  CA         8.9420   26.1330  -14.9110 C.3   160  ASN160      0.1653
    207  C          7.6910   26.6510  -15.6260 C.2   160  ASN160      0.2266
    208  O          6.9610   27.4920  -15.1080 O.2   160  ASN160     -0.2867
    209  CB         9.8040   27.2800  -14.4000 C.3   160  ASN160      0.1155
    210  CG        10.9320   26.7970  -13.4900 C.2   160  ASN160      0.2627
    211  OD1       10.7430   25.9010  -12.6640 O.2   160  ASN160     -0.2716
    212  ND2       12.0990   27.3780  -13.6470 N.am  160  ASN160     -0.0877
@<TRIPOS>BOND
     1    75    74    1
     2    76    74    1
     3    60    61    1
     4    74    73    1
     5   180   179    2
     6   122   120   ar
     7   122   123   ar
     8   120   118   ar
     9   169   168    2
    10   179   178    1
    11    61    62    1
    12    61    64    1
    13   123   121   ar
    14   118   117    1
    15   118   119   ar
    16    62    69   am
    17    62    63    2
    18    73    70    1
    19   168   167    1
    20   168   177   am
    21   117   114    1
    22    69    70    1
    23   178   177    1
    24   178   181    1
    25    64    65    1
    26   161   160    2
    27   167   170    1
    28   167   166    1
    29    70    71    1
    30   121   119   ar
    31   170   171    1
    32   113   114    1
    33   114   115    1
    34   181   182    1
    35    65    66    1
    36   193   191    1
    37   160   166   am
    38   160   159    1
    39   182   183    1
    40   171   172   ar
    41   171   173   ar
    42    71    72    2
    43    71    77   am
    44   172   174   ar
    45   186   187    1
    46   191   192    1
    47   191   190    1
    48    66    67   ar
    49    66    68   ar
    50   158   159    1
    51   158   156   am
    52   185   183   ar
    53   115   116    2
    54   115   124   am
    55   155   154    1
    56   155   156    1
    57   159   162    1
    58   183   184   ar
    59   156   157    2
    60    77    78    1
    61   173   175   ar
    62   162   163    1
    63   187   190    1
    64   187   188    1
    65   174   176   ar
    66   164   163   ar
    67   124   125    1
    68   107   106    2
    69   163   165   ar
    70    85    86    1
    71    85    82    1
    72   175   176   ar
    73   106   105    1
    74    78    79    1
    75   103   102    1
    76    81    82    1
    77    81    79   am
    78   188   189    2
    79   188   194   am
    80    82    83    1
    81   125   126    1
    82   125   128    1
    83   127   126    2
    84    79    80    2
    85   102    99    1
    86   200   201    2
    87   200   199    1
    88   126   132   am
    89   194   195    1
    90   101   100    2
    91   105   108    1
    92   105   104    1
    93   128   129    1
    94   108   109    1
    95   198   199    1
    96   202   199    1
    97   202   204    1
    98   202   203    1
    99    99   100    1
   100    99    98    1
   101    83    84    2
   102    83    87   am
   103   132   133    1
   104   133   136    1
   105   133   134    1
   106    16    15    1
   107   195   196    1
   108   131   129   ar
   109   129   130   ar
   110   205   206    1
   111    87    88    1
   112   196   197    2
   113   207   208    2
   114   207   206    1
   115    98    93   am
   116   109   110    1
   117   111   110    1
   118   111   112    1
   119   136   138    1
   120   136   137    1
   121    15    14    1
   122    90    89    2
   123   206   209    1
   124    14    13    1
   125    94    93    2
   126   134   135    2
   127   134   139   am
   128    93    92    1
   129   209   210    1
   130    88    89    1
   131    89    91   am
   132   139   140    1
   133   142   141    2
   134    12    13    1
   135    12     9    1
   136   150   149    2
   137   141   140    1
   138    91    92    1
   139   212   210   am
   140   149   148    1
   141    92    95    1
   142   210   211    2
   143   152   151    1
   144   140   143    1
   145    56    55    2
   146     9     8    1
   147     9    10    1
   148    96    95    1
   149    95    97    1
   150   148   151    1
   151   148   147    1
   152   143   144    1
   153   151   153    1
   154     8     3   am
   155    55    54    1
   156     6     7    1
   157     6     5    1
   158    54    53    1
   159    54    57    1
   160     7     1    1
   161    11    10    2
   162    59    57    1
   163   144   145   ar
   164   144   146   ar
   165    26    24   ar
   166    26    27   ar
   167     3     4    2
   168     3     2    1
   169    24    22   ar
   170     1     2    1
   171     5     2    1
   172    57    58    1
   173    28    27    1
   174    27    25   ar
   175    44    45   ar
   176    44    42   ar
   177    22    21    1
   178    22    23   ar
   179    45    43   ar
   180    21    18    1
   181    25    23   ar
   182    20    19    2
   183    42    40   ar
   184    34    33    1
   185    43    41   ar
   186    18    19    1
   187    18    17    1
   188    52    50    1
   189    40    41   ar
   190    40    39    1
   191    33    30    1
   192    50    51    1
   193    50    47    1
   194    39    36    1
   195    30    31    1
   196    30    29    1
   197    49    48    2
   198    47    48    1
   199    47    46    1
   200    32    31    2
   201    38    37    2
   202    37    36    1
   203    36    35    1
