@<TRIPOS>MOLECULE
tmp/4piqA00.pdb
 181 176 0 0 0
SMALL
GASTEIGER

@<TRIPOS>ATOM
      1  N         32.2660  -31.3070   23.9410 N.3     1  SER1       -0.1202
      2  CA        32.0050  -29.9860   24.5060 C.3     1  SER1        0.2020
      3  C         31.3510  -29.0690   23.4550 C.2     1  SER1        0.2619
      4  O         32.0280  -28.5660   22.5570 O.2     1  SER1       -0.2717
      5  CB        33.3090  -29.3770   25.0400 C.3     1  SER1        0.2103
      6  OG        33.1080  -28.2270   25.8480 O.3     1  SER1       -0.2182
      7  N         30.0430  -28.8610   23.5790 N.am    2  GLY2       -0.1942
      8  CA        29.2890  -27.9930   22.6770 C.3     2  GLY2        0.2014
      9  C         28.8620  -28.6290   21.3670 C.2     2  GLY2        0.2640
     10  O         28.6740  -29.8520   21.3010 O.2     2  GLY2       -0.2714
     11  N         28.6710  -27.7810   20.3210 N.am    3  SER3       -0.1935
     12  CA        28.2160  -28.1920   18.9840 C.3     3  SER3        0.2055
     13  C         29.3180  -28.1210   17.9190 C.2     3  SER3        0.2644
     14  O         30.0430  -27.1260   17.8530 O.2     3  SER3       -0.2714
     15  CB        27.0370  -27.3320   18.5320 C.3     3  SER3        0.2130
     16  OG        25.8180  -27.6350   19.1920 O.3     3  SER3       -0.2179
     17  N         29.4330  -29.1720   17.0780 N.am    4  SER4       -0.1935
     18  CA        30.4170  -29.2500   15.9800 C.3     4  SER4        0.2055
     19  C         29.8090  -28.5490   14.7460 C.2     4  SER4        0.2643
     20  O         28.5940  -28.3820   14.6780 O.2     4  SER4       -0.2714
     21  CB        30.7300  -30.7130   15.6450 C.3     4  SER4        0.2130
     22  OG        29.5990  -31.3580   15.0730 O.3     4  SER4       -0.2179
     23  N         30.6250  -28.2030   13.7590 N.am    5  GLU5       -0.1963
     24  CA        30.1000  -27.5370   12.5580 C.3     5  GLU5        0.1733
     25  C         29.1350  -28.4170   11.7380 C.2     5  GLU5        0.2616
     26  O         28.1600  -27.8910   11.1900 O.2     5  GLU5       -0.2715
     27  CB        31.2190  -26.9570   11.6880 C.3     5  GLU5        0.0429
     28  CG        32.3310  -27.9210   11.3120 C.3     5  GLU5        0.1163
     29  CD        33.1260  -27.4590   10.1080 C.2     5  GLU5        0.3649
     30  OE1       34.3750  -27.5190   10.1640 O.co2   5  GLU5       -0.2457
     31  OE2       32.5020  -27.0060    9.1200 O.co2   5  GLU5       -0.2457
     32  N         29.3610  -29.7530   11.7220 N.am    6  GLN6       -0.1977
     33  CA        28.5170  -30.7440   11.0060 C.3     6  GLN6        0.1601
     34  C         27.1070  -30.7690   11.5770 C.2     6  GLN6        0.2287
     35  O         26.1250  -30.7710   10.8250 O.2     6  GLN6       -0.2864
     36  CB        29.1200  -32.1720   11.0940 C.3     6  GLN6        0.0394
     37  CG        30.5020  -32.3420   10.4350 C.3     6  GLN6        0.0908
     38  CD        31.6570  -31.7420   11.2180 C.2     6  GLN6        0.2608
     39  OE1       31.6410  -31.6520   12.4530 O.2     6  GLN6       -0.2717
     40  NE2       32.6880  -31.3140   10.5060 N.am    6  GLN6       -0.0878
     41  N         29.2920  -22.7420    7.6800 N.3    24  THR24      -0.1203
     42  CA        29.8960  -22.5150    8.9980 C.3    24  THR24       0.1994
     43  C         31.3310  -22.1160    8.8130 C.2    24  THR24       0.2618
     44  O         32.0330  -22.6630    7.9610 O.2    24  THR24      -0.2717
     45  CB        29.7240  -23.7250    9.9340 C.3    24  THR24       0.1784
     46  OG1       30.3290  -24.8660    9.3230 O.3    24  THR24      -0.2211
     47  CG2       28.2620  -24.0280   10.2370 C.3    24  THR24       0.0376
     48  N         31.7590  -21.1050    9.5820 N.am   25  HIS25      -0.1961
     49  CA        33.0860  -20.5440    9.4590 C.3    25  HIS25       0.1787
     50  C         33.6910  -20.1670   10.7880 C.2    25  HIS25       0.2620
     51  O         32.9960  -20.0300   11.7870 O.2    25  HIS25      -0.2715
     52  CB        33.0190  -19.2710    8.5990 C.3    25  HIS25       0.0785
     53  CG        32.4890  -19.4680    7.2110 C.ar   25  HIS25       0.0821
     54  ND1       31.1330  -19.4040    6.9440 N.ar   25  HIS25      -0.2267
     55  CD2       33.1590  -19.6350    6.0500 C.ar   25  HIS25       0.1154
     56  CE1       31.0160  -19.5690    5.6370 C.ar   25  HIS25       0.1986
     57  NE2       32.2080  -19.7330    5.0600 N.ar   25  HIS25      -0.2212
     58  N         34.9920  -19.9220   10.7540 N.am   26  ASP26      -0.1971
     59  CA        35.7740  -19.3990   11.8390 C.3    26  ASP26       0.1709
     60  C         35.7100  -17.8440   11.7030 C.2    26  ASP26       0.2293
     61  O         35.0210  -17.3400   10.8030 O.2    26  ASP26      -0.2864
     62  CB        37.2120  -19.9650   11.7670 C.3    26  ASP26       0.1436
     63  CG        38.1360  -19.4900   10.6430 C.2    26  ASP26       0.3671
     64  OD1       37.6600  -18.7820    9.7320 O.co2  26  ASP26      -0.2456
     65  OD2       39.3430  -19.8190   10.6890 O.co2  26  ASP26      -0.2456
     66  N         32.3890  -18.6380   14.0660 N.3    44  ASN44      -0.1240
     67  CA        33.0820  -18.8310   15.3320 C.3    44  ASN44       0.1653
     68  C         33.9360  -17.6060   15.6530 C.2    44  ASN44       0.2266
     69  O         34.5450  -17.0440   14.7410 O.2    44  ASN44      -0.2867
     70  CB        33.9750  -20.0770   15.2720 C.3    44  ASN44       0.1155
     71  CG        34.2490  -20.6640   16.6310 C.2    44  ASN44       0.2627
     72  OD1       35.2270  -20.3080   17.3220 O.2    44  ASN44      -0.2716
     73  ND2       33.3870  -21.5880   17.0330 N.am   44  ASN44      -0.0877
     74  N         36.7480  -17.6230   17.2260 N.3    46  ALA46      -0.1231
     75  CA        38.1440  -17.9780   17.0580 C.3    46  ALA46       0.1694
     76  C         38.4300  -18.5410   15.6730 C.2    46  ALA46       0.2593
     77  O         37.5050  -18.8410   14.9150 O.2    46  ALA46      -0.2718
     78  CB        38.5500  -18.9660   18.1490 C.3    46  ALA46       0.0304
     79  N         39.7110  -18.6230   15.3350 N.am   47  GLY47      -0.1942
     80  CA        40.1700  -19.1950   14.0740 C.3    47  GLY47       0.2014
     81  C         40.2140  -20.7020   14.1960 C.2    47  GLY47       0.2638
     82  O         40.4580  -21.2180   15.2940 O.2    47  GLY47      -0.2714
     83  N         39.9780  -21.4190   13.0770 N.am   48  ARG48      -0.1977
     84  CA        39.9540  -22.8920   12.9900 C.3    48  ARG48       0.1597
     85  C         41.0640  -23.6040   13.7560 C.2    48  ARG48       0.2287
     86  O         40.8110  -24.6670   14.3380 O.2    48  ARG48      -0.2864
     87  CB        39.9540  -23.3560   11.5320 C.3    48  ARG48       0.0334
     88  CG        38.5720  -23.4580   10.9280 C.3    48  ARG48       0.0492
     89  CD        38.6500  -24.0500    9.5280 C.3    48  ARG48       0.2205
     90  NE        37.4170  -23.8400    8.7740 N.pl3  48  ARG48      -0.0865
     91  CZ        36.3750  -24.6620    8.8020 C.cat  48  ARG48       0.5346
     92  NH1       35.2880  -24.3910    8.0910 N.pl3  48  ARG48       0.1354
     93  NH2       36.4050  -25.7570    9.5510 N.pl3  48  ARG48       0.1354
     94  N         40.6020  -24.5520   17.4270 N.3    51  GLY51      -0.1210
     95  CA        39.6520  -25.6470   17.5550 C.3    51  GLY51       0.1956
     96  C         38.2320  -25.1440   17.7060 C.2    51  GLY51       0.2612
     97  O         37.2870  -25.9340   17.6520 O.2    51  GLY51      -0.2717
     98  N         38.0940  -23.8270   17.8820 N.am   52  GLY52      -0.1942
     99  CA        36.8090  -23.1620   18.0630 C.3    52  GLY52       0.2014
    100  C         36.5140  -22.8410   19.5120 C.2    52  GLY52       0.2639
    101  O         36.9060  -23.5910   20.4080 O.2    52  GLY52      -0.2714
    102  N         35.8110  -21.7200   19.7520 N.am   53  VAL53      -0.1963
    103  CA        35.4690  -21.2460   21.0990 C.3    53  VAL53       0.1727
    104  C         33.9660  -20.9110   21.2280 C.2    53  VAL53       0.2616
    105  O         33.2560  -21.5970   21.9670 O.2    53  VAL53      -0.2715
    106  CB        36.4020  -20.0670   21.5330 C.3    53  VAL53       0.0290
    107  CG1       35.9170  -19.3920   22.8170 C.3    53  VAL53       0.0023
    108  CG2       37.8410  -20.5250   21.6870 C.3    53  VAL53       0.0023
    109  N         33.4830  -19.8540   20.5330 N.am   54  HIS54      -0.1959
    110  CA        32.0740  -19.4400   20.6710 C.3    54  HIS54       0.1787
    111  C         31.3330  -19.3260   19.3270 C.2    54  HIS54       0.2620
    112  O         31.9040  -18.8430   18.3650 O.2    54  HIS54      -0.2715
    113  CB        32.0420  -18.1230   21.4800 C.3    54  HIS54       0.0785
    114  CG        30.6920  -17.5220   21.7290 C.ar   54  HIS54       0.0821
    115  ND1       29.6430  -18.2710   22.2160 N.ar   54  HIS54      -0.2267
    116  CD2       30.3060  -16.2300   21.6580 C.ar   54  HIS54       0.1154
    117  CE1       28.6320  -17.4310   22.3400 C.ar   54  HIS54       0.1986
    118  NE2       28.9950  -16.1890   22.0420 N.ar   54  HIS54      -0.2212
    119  N         30.0730  -19.7480   19.2660 N.am   55  TRP55      -0.1974
    120  CA        29.2950  -19.6550   18.0260 C.3    55  TRP55       0.1640
    121  C         28.4180  -18.3700   17.9230 C.2    55  TRP55       0.2290
    122  O         27.7150  -18.0460   18.8800 O.2    55  TRP55      -0.2864
    123  CB        28.4210  -20.9120   17.8370 C.3    55  TRP55       0.0576
    124  CG        29.1950  -22.1620   17.4990 C.ar   55  TRP55       0.0006
    125  CD1       29.3390  -23.2730   18.2760 C.ar   55  TRP55       0.0946
    126  CD2       29.9170  -22.4230   16.2870 C.ar   55  TRP55       0.0152
    127  NE1       30.1190  -24.2030   17.6320 N.ar   55  TRP55      -0.2442
    128  CE2       30.5060  -23.6990   16.4180 C.ar   55  TRP55       0.0810
    129  CE3       30.1570  -21.6840   15.1150 C.ar   55  TRP55       0.0012
    130  CZ2       31.2650  -24.2800   15.3960 C.ar   55  TRP55       0.0191
    131  CZ3       30.9150  -22.2570   14.1060 C.ar   55  TRP55       0.0001
    132  CH2       31.4780  -23.5310   14.2590 C.ar   55  TRP55       0.0015
    133  N         24.4190  -14.5140   24.0520 N.3    73  PHE73      -0.1241
    134  CA        24.7400  -13.7690   25.2660 C.3    73  PHE73       0.1605
    135  C         24.4300  -12.2510   25.1830 C.2    73  PHE73       0.2264
    136  O         24.4320  -11.5690   26.2170 O.2    73  PHE73      -0.2867
    137  CB        26.2220  -13.9810   25.6080 C.3    73  PHE73       0.0534
    138  CG        26.5950  -15.3490   26.1460 C.ar   73  PHE73      -0.0203
    139  CD1       27.7930  -15.9490   25.7880 C.ar   73  PHE73      -0.0042
    140  CD2       25.7590  -16.0160   27.0440 C.ar   73  PHE73      -0.0042
    141  CE1       28.1560  -17.1850   26.3110 C.ar   73  PHE73      -0.0003
    142  CE2       26.1330  -17.2500   27.5840 C.ar   73  PHE73      -0.0003
    143  CZ        27.3210  -17.8310   27.2030 C.ar   73  PHE73      -0.0000
    144  N         20.9800  -17.1340   26.9020 N.3   115  GLN115     -0.1245
    145  CA        21.7770  -18.2480   27.3680 C.3   115  GLN115      0.1566
    146  C         22.3390  -18.0350   28.7760 C.2   115  GLN115      0.2260
    147  O         22.6950  -16.9120   29.1420 O.2   115  GLN115     -0.2867
    148  CB        22.8890  -18.5120   26.3590 C.3   115  GLN115      0.0367
    149  CG        23.5080  -19.8950   26.4770 C.3   115  GLN115      0.0905
    150  CD        24.6940  -20.0610   25.5850 C.2   115  GLN115      0.2608
    151  OE1       25.6550  -20.7810   25.8990 O.2   115  GLN115     -0.2717
    152  NE2       24.6440  -19.4230   24.4370 N.am  115  GLN115     -0.0878
    153  N         26.2420  -22.4860   30.1670 N.3   119  SER119     -0.1202
    154  CA        25.7010  -23.2480   29.0510 C.3   119  SER119      0.2020
    155  C         26.6380  -23.3600   27.8440 C.2   119  SER119      0.2618
    156  O         27.4560  -22.4680   27.5810 O.2   119  SER119     -0.2717
    157  CB        24.3390  -22.7080   28.6440 C.3   119  SER119      0.2103
    158  OG        23.8120  -23.4430   27.5560 O.3   119  SER119     -0.2182
    159  N         26.5190  -24.5040   27.1350 N.am  120  ALA120     -0.1979
    160  CA        27.2950  -24.8320   25.9350 C.3   120  ALA120      0.1597
    161  C         26.4070  -24.9390   24.6900 C.2   120  ALA120      0.2287
    162  O         26.8660  -25.4380   23.6560 O.2   120  ALA120     -0.2864
    163  CB        28.1120  -26.1060   26.1510 C.3   120  ALA120      0.0319
    164  N         25.3860  -22.4520   22.6920 N.3   122  CYS122     -0.1221
    165  CA        25.4850  -21.2660   21.8040 C.3   122  CYS122      0.1808
    166  C         25.2180  -21.6000   20.3350 C.2   122  CYS122      0.2601
    167  O         24.4330  -20.9010   19.7090 O.2   122  CYS122     -0.2717
    168  CB        26.7890  -20.4950   21.9810 C.3   122  CYS122      0.0970
    169  SG        28.2710  -21.5200   22.0290 S.3   122  CYS122     -0.0800
    170  N         25.8310  -22.6760   19.8270 N.am  123  GLY123     -0.1957
    171  CA        25.5870  -23.1570   18.4680 C.3   123  GLY123      0.1869
    172  C         24.1090  -23.3870   18.1870 C.2   123  GLY123      0.2309
    173  O         23.5990  -22.9370   17.1690 O.2   123  GLY123     -0.2863
    174  N         29.8470  -25.8820   31.4300 N.3   201  MET201     -0.1245
    175  CA        31.1730  -25.3090   31.7510 C.3   201  MET201      0.1570
    176  C         31.6820  -25.6770   33.1620 C.2   201  MET201      0.2261
    177  O         32.9000  -25.7290   33.3920 O.2   201  MET201     -0.2867
    178  CB        31.2380  -23.7870   31.5310 C.3   201  MET201      0.0387
    179  CG        31.1030  -23.3460   30.0720 C.3   201  MET201      0.0595
    180  SD        31.8360  -24.4570   28.8280 S.3   201  MET201     -0.1393
    181  CE        33.5340  -23.9270   28.8700 C.3   201  MET201      0.0692
@<TRIPOS>BOND
     1    57    56   ar
     2    57    55   ar
     3    56    54   ar
     4    55    53   ar
     5    54    53   ar
     6    53    52    1
     7    41    42    1
     8    44    43    2
     9    92    91    1
    10    52    49    1
    11    90    91    2
    12    90    89    1
    13    91    93    1
    14    43    42    1
    15    43    48   am
    16    42    45    1
    17    31    29   ar
    18    46    45    1
    19    49    48    1
    20    49    50    1
    21    89    88    1
    22    64    63   ar
    23    45    47    1
    24    29    30   ar
    25    29    28    1
    26    37    36    1
    27    37    38    1
    28    40    38   am
    29    63    65   ar
    30    63    62    1
    31    58    50   am
    32    58    59    1
    33    50    51    2
    34    61    60    2
    35    35    34    2
    36    88    87    1
    37    33    36    1
    38    33    34    1
    39    33    32    1
    40    26    25    2
    41    38    39    2
    42    28    27    1
    43    87    84    1
    44    27    24    1
    45    60    59    1
    46    32    25   am
    47    25    24    1
    48    62    59    1
    49    24    23    1
    50    84    83    1
    51    84    85    1
    52    83    81   am
    53    85    86    2
    54    23    19   am
    55    66    67    1
    56    80    81    1
    57    80    79    1
    58   131   132   ar
    59   131   129   ar
    60    81    82    2
    61   132   130   ar
    62    20    19    2
    63    69    68    2
    64    19    18    1
    65    77    76    2
    66    22    21    1
    67   129   126   ar
    68    70    67    1
    69    70    71    1
    70    67    68    1
    71    79    76   am
    72   130   128   ar
    73    21    18    1
    74    76    75    1
    75    18    17    1
    76   126   128   ar
    77   126   124   ar
    78   128   127   ar
    79    71    73   am
    80    71    72    2
    81    75    74    1
    82    75    78    1
    83    17    13   am
    84   173   172    2
    85    94    95    1
    86   124   123    1
    87   124   125   ar
    88    95    96    1
    89   127   125   ar
    90    97    96    2
    91    96    98   am
    92   123   120    1
    93    14    13    2
    94    98    99    1
    95    13    12    1
    96   121   120    1
    97   121   122    2
    98   120   119    1
    99    99   100    1
   100   172   171    1
   101   112   111    2
   102   171   170    1
   103    15    12    1
   104    15    16    1
   105    12    11    1
   106   119   111   am
   107   111   110    1
   108   100   102   am
   109   100   101    2
   110   167   166    2
   111   102   103    1
   112   170   166   am
   113    11     9   am
   114   166   165    1
   115   109   110    1
   116   109   104   am
   117   110   113    1
   118   103   104    1
   119   103   106    1
   120   104   105    2
   121    10     9    2
   122     9     8    1
   123   113   114    1
   124   106   108    1
   125   106   107    1
   126   116   114   ar
   127   116   118   ar
   128   114   115   ar
   129   165   168    1
   130   165   164    1
   131   168   169    1
   132   118   117   ar
   133   115   117   ar
   134     4     3    2
   135     8     7    1
   136     3     7   am
   137     3     2    1
   138   162   161    2
   139     1     2    1
   140   133   134    1
   141   152   150   am
   142     2     5    1
   143   161   160    1
   144     5     6    1
   145   135   134    1
   146   135   136    2
   147   134   137    1
   148   150   151    2
   149   150   149    1
   150   137   138    1
   151   139   138   ar
   152   139   141   ar
   153   160   163    1
   154   160   159    1
   155   138   140   ar
   156   141   143   ar
   157   148   149    1
   158   148   145    1
   159   144   145    1
   160   140   142   ar
   161   159   155   am
   162   143   142   ar
   163   145   146    1
   164   158   157    1
   165   156   155    2
   166   155   154    1
   167   157   154    1
   168   146   147    2
   169   180   181    1
   170   180   179    1
   171   154   153    1
   172   179   178    1
   173   174   175    1
   174   178   175    1
   175   175   176    1
   176   176   177    2
