@<TRIPOS>MOLECULE
tmp/4pirE01.pdb
 90 82 0 0 0
SMALL
GASTEIGER

@<TRIPOS>ATOM
      1  N        126.8410  203.6580  274.4030 N.3   139  VAL139     -0.1245
      2  CA       126.6310  202.8060  273.2450 C.3   139  VAL139      0.1561
      3  C        127.0720  203.5520  271.9880 C.2   139  VAL139      0.2260
      4  O        126.9390  204.7730  271.8960 O.2   139  VAL139     -0.2867
      5  CB       125.1550  202.3550  273.1300 C.3   139  VAL139      0.0252
      6  CG1      124.2520  203.5170  272.7280 C.3   139  VAL139      0.0019
      7  CG2      125.0240  201.2000  272.1540 C.3   139  VAL139      0.0019
      8  N        127.2420  203.6370  267.5790 N.3   141  ASN141     -0.1240
      9  CA       126.5110  203.2740  266.3750 C.3   141  ASN141      0.1653
     10  C        127.3500  203.6340  265.1530 C.2   141  ASN141      0.2266
     11  O        127.4620  204.8070  264.7960 O.2   141  ASN141     -0.2867
     12  CB       125.1610  204.0000  266.3540 C.3   141  ASN141      0.1155
     13  CG       124.2510  203.5500  265.2230 C.2   141  ASN141      0.2627
     14  OD1      124.6620  202.8310  264.3120 O.2   141  ASN141     -0.2716
     15  ND2      122.9950  203.9850  265.2830 N.am  141  ASN141     -0.0877
     16  N        128.4510  203.0880  261.0070 N.3   143  SER143     -0.1217
     17  CA       127.9330  202.6780  259.7080 C.3   143  SER143      0.1889
     18  C        129.0010  202.0190  258.8400 C.2   143  SER143      0.2288
     19  O        130.1560  202.4410  258.8280 O.2   143  SER143     -0.2866
     20  CB       127.3380  203.8800  258.9710 C.3   143  SER143      0.2089
     21  OG       126.3310  204.5090  259.7440 O.3   143  SER143     -0.2183
     22  N        121.6860  190.2300  261.7890 N.3   168  ARG168     -0.1245
     23  CA       121.5550  191.0310  263.0000 C.3   168  ARG168      0.1563
     24  C        121.9660  190.2580  264.2520 C.2   168  ARG168      0.2260
     25  O        122.8100  190.7110  265.0260 O.2   168  ARG168     -0.2867
     26  CB       120.1150  191.5280  263.1430 C.3   168  ARG168      0.0307
     27  CG       119.8820  192.4800  264.3030 C.3   168  ARG168      0.0489
     28  CD       118.5120  192.2560  264.9220 C.3   168  ARG168      0.2205
     29  NE       118.0110  193.4490  265.5980 N.pl3 168  ARG168     -0.0865
     30  CZ       117.1740  194.3220  265.0470 C.cat 168  ARG168      0.5346
     31  NH1      116.7390  194.1360  263.8080 N.pl3 168  ARG168      0.1354
     32  NH2      116.7700  195.3820  265.7340 N.pl3 168  ARG168      0.1354
     33  N        124.4340  194.4310  268.0780 N.3   184  GLU184     -0.1245
     34  CA       123.8520  193.9490  266.8310 C.3   184  GLU184      0.1567
     35  C        124.5200  194.5480  265.5970 C.2   184  GLU184      0.2260
     36  O        125.1540  195.6040  265.6620 O.2   184  GLU184     -0.2867
     37  CB       122.3520  194.2500  266.7950 C.3   184  GLU184      0.0388
     38  CG       122.0200  195.7230  266.6070 C.3   184  GLU184      0.1160
     39  CD       120.5310  195.9980  266.6610 C.2   184  GLU184      0.3649
     40  OE1      119.7440  195.0390  266.5160 O.co2 184  GLU184     -0.2457
     41  OE2      120.1460  197.1720  266.8420 O.co2 184  GLU184     -0.2457
     42  N        122.9910  195.6570  262.1640 N.3   186  PHE186     -0.1241
     43  CA       121.7240  195.8560  261.4650 C.3   186  PHE186      0.1605
     44  C        121.9230  196.2510  260.0030 C.2   186  PHE186      0.2264
     45  O        122.3640  197.3610  259.7130 O.2   186  PHE186     -0.2867
     46  CB       120.8960  196.9260  262.1840 C.3   186  PHE186      0.0534
     47  CG       119.4860  197.0510  261.6780 C.ar  186  PHE186     -0.0203
     48  CD1      118.8540  195.9840  261.0600 C.ar  186  PHE186     -0.0042
     49  CD2      118.7940  198.2430  261.8170 C.ar  186  PHE186     -0.0042
     50  CE1      117.5590  196.1030  260.5930 C.ar  186  PHE186     -0.0003
     51  CE2      117.4990  198.3680  261.3520 C.ar  186  PHE186     -0.0003
     52  CZ       116.8810  197.2970  260.7400 C.ar  186  PHE186     -0.0000
     53  N        120.7010  197.2750  256.1440 N.3   188  GLN188     -0.1245
     54  CA       119.6150  198.0130  255.5090 C.3   188  GLN188      0.1566
     55  C        120.0000  198.4330  254.0940 C.2   188  GLN188      0.2260
     56  O        121.0580  199.0190  253.8800 O.2   188  GLN188     -0.2867
     57  CB       119.2410  199.2410  256.3420 C.3   188  GLN188      0.0367
     58  CG       118.0240  199.9910  255.8260 C.3   188  GLN188      0.0905
     59  CD       117.6600  201.1810  256.6920 C.2   188  GLN188      0.2608
     60  OE1      118.4850  201.6860  257.4540 O.2   188  GLN188     -0.2717
     61  NE2      116.4160  201.6320  256.5850 N.am  188  GLN188     -0.0878
     62  N        119.5820  200.6550  250.6290 N.3   190  LYS190     -0.1245
     63  CA       119.1610  201.9920  250.2210 C.3   190  LYS190      0.1561
     64  C        119.6320  202.2830  248.8030 C.2   190  LYS190      0.2260
     65  O        120.7090  201.8570  248.4100 O.2   190  LYS190     -0.2867
     66  CB       119.7090  203.0510  251.1810 C.3   190  LYS190      0.0271
     67  CG       118.9260  203.2100  252.4750 C.3   190  LYS190      0.0035
     68  CD       119.5590  204.2650  253.3680 C.3   190  LYS190      0.0206
     69  CE       118.7400  204.4990  254.6250 C.3   190  LYS190      0.1093
     70  NZ       119.3560  205.5390  255.4960 N.3   190  LYS190     -0.1314
     71  N        124.8400  198.7360  260.2680 N.3   206  TYR206     -0.1241
     72  CA       125.0100  199.4580  261.5180 C.3   206  TYR206      0.1605
     73  C        125.5310  198.5250  262.6010 C.2   206  TYR206      0.2264
     74  O        124.7890  197.7060  263.1410 O.2   206  TYR206     -0.2867
     75  CB       123.6960  200.1010  261.9650 C.3   206  TYR206      0.0534
     76  CG       123.0950  201.0430  260.9490 C.ar  206  TYR206     -0.0201
     77  CD1      123.6210  202.3130  260.7560 C.ar  206  TYR206     -0.0009
     78  CD2      121.9940  200.6670  260.1910 C.ar  206  TYR206     -0.0009
     79  CE1      123.0750  203.1790  259.8290 C.ar  206  TYR206      0.0417
     80  CE2      121.4390  201.5280  259.2620 C.ar  206  TYR206      0.0417
     81  CZ       121.9830  202.7820  259.0870 C.ar  206  TYR206      0.1957
     82  OH       121.4370  203.6450  258.1650 O.3   206  TYR206     -0.2866
     83  N        126.5780  198.0840  266.2430 N.3   208  ILE208     -0.1245
     84  CA       126.3080  198.7390  267.5140 C.3   208  ILE208      0.1561
     85  C        127.0770  198.0700  268.6460 C.2   208  ILE208      0.2260
     86  O        126.8970  196.8810  268.9110 O.2   208  ILE208     -0.2867
     87  CB       124.8050  198.7330  267.8360 C.3   208  ILE208      0.0252
     88  CG1      124.0620  199.6710  266.8860 C.3   208  ILE208      0.0019
     89  CG2      124.5660  199.1580  269.2680 C.3   208  ILE208      0.0019
     90  CD1      123.4330  198.9780  265.7040 C.3   208  ILE208      0.0001
@<TRIPOS>BOND
     1    65    64    2
     2    64    63    1
     3    63    62    1
     4    63    66    1
     5    66    67    1
     6    67    68    1
     7    68    69    1
     8    56    55    2
     9    55    54    1
    10    69    70    1
    11    54    53    1
    12    54    57    1
    13    58    57    1
    14    58    59    1
    15    61    59   am
    16    59    60    2
    17    82    81    1
    18    19    18    2
    19    18    17    1
    20    20    17    1
    21    20    21    1
    22    81    80   ar
    23    81    79   ar
    24    80    78   ar
    25    17    16    1
    26    45    44    2
    27    79    77   ar
    28    44    43    1
    29    78    76   ar
    30    71    72    1
    31    50    52   ar
    32    50    48   ar
    33    52    51   ar
    34    77    76   ar
    35    76    75    1
    36    48    47   ar
    37    51    49   ar
    38    43    42    1
    39    43    46    1
    40    72    75    1
    41    72    73    1
    42    47    49   ar
    43    47    46    1
    44    22    23    1
    45    73    74    2
    46    23    26    1
    47    23    24    1
    48    26    27    1
    49    31    30    1
    50    24    25    2
    51    27    28    1
    52    14    13    2
    53    11    10    2
    54    28    29    1
    55    30    29    2
    56    30    32    1
    57    10     9    1
    58    13    15   am
    59    13    12    1
    60    35    36    2
    61    35    34    1
    62    90    88    1
    63    83    84    1
    64    12     9    1
    65     9     8    1
    66    40    39   ar
    67    38    39    1
    68    38    37    1
    69    39    41   ar
    70    37    34    1
    71    34    33    1
    72    88    87    1
    73    84    87    1
    74    84    85    1
    75    87    89    1
    76    85    86    2
    77     4     3    2
    78     3     2    1
    79     7     5    1
    80     6     5    1
    81     5     2    1
    82     2     1    1
