@<TRIPOS>MOLECULE
tmp/4pisA01.pdb
 168 163 0 0 0
SMALL
GASTEIGER

@<TRIPOS>ATOM
      1  N        -42.2440   12.5910  -24.0170 N.3     1  SER1       -0.1202
      2  CA       -40.8900   12.8050  -24.5130 C.3     1  SER1        0.2020
      3  C        -39.8880   12.7320  -23.3520 C.2     1  SER1        0.2619
      4  O        -39.7790   13.6660  -22.5490 O.2     1  SER1       -0.2717
      5  CB       -40.7940   14.1420  -25.2530 C.3     1  SER1        0.2103
      6  OG       -39.4700   14.4510  -25.6600 O.3     1  SER1       -0.2182
      7  N        -39.1790   11.6120  -23.2780 N.am    2  GLY2       -0.1942
      8  CA       -38.1860   11.3750  -22.2450 C.3     2  GLY2        0.2014
      9  C        -38.7340   10.6850  -21.0130 C.2     2  GLY2        0.2640
     10  O        -39.8950   10.2590  -20.9730 O.2     2  GLY2       -0.2714
     11  N        -37.8680   10.5590  -20.0080 N.am    3  SER3       -0.1935
     12  CA       -38.1470    9.8940  -18.7430 C.3     3  SER3        0.2055
     13  C        -38.5860   10.9110  -17.7020 C.2     3  SER3        0.2644
     14  O        -38.0230   12.0090  -17.6370 O.2     3  SER3       -0.2714
     15  CB       -36.9030    9.1640  -18.2450 C.3     3  SER3        0.2130
     16  OG       -36.2920    8.3760  -19.2510 O.3     3  SER3       -0.2179
     17  N        -39.6090   10.5330  -16.8950 N.am    4  SER4       -0.1935
     18  CA       -40.1780   11.3330  -15.8040 C.3     4  SER4        0.2055
     19  C        -39.2860   11.1750  -14.5600 C.2     4  SER4        0.2642
     20  O        -38.5150   10.2280  -14.5000 O.2     4  SER4       -0.2714
     21  CB       -41.5960   10.8500  -15.4930 C.3     4  SER4        0.2130
     22  OG       -41.6090    9.5320  -14.9620 O.3     4  SER4       -0.2179
     23  N        -39.4220   12.0440  -13.5570 N.am    5  GLU5       -0.1976
     24  CA       -38.6080   11.9200  -12.3390 C.3     5  GLU5        0.1602
     25  C        -38.8890   10.6390  -11.5220 C.2     5  GLU5        0.2287
     26  O        -37.9910   10.1400  -10.8450 O.2     5  GLU5       -0.2864
     27  CB       -38.7230   13.1790  -11.4680 C.3     5  GLU5        0.0415
     28  CG       -40.0730   13.3850  -10.8040 C.3     5  GLU5        0.1163
     29  CD       -40.0880   14.4590   -9.7380 C.2     5  GLU5        0.3649
     30  OE1      -40.8710   15.4200   -9.9000 O.co2   5  GLU5       -0.2457
     31  OE2      -39.3360   14.3390   -8.7420 O.co2   5  GLU5       -0.2457
     32  N        -33.9810   13.5880   -7.8300 N.3    24  THR24      -0.1203
     33  CA       -34.0960   14.1570   -9.1710 C.3    24  THR24       0.1994
     34  C        -34.6150   15.5770   -9.0060 C.2    24  THR24       0.2618
     35  O        -35.5860   15.8050   -8.2740 O.2    24  THR24      -0.2717
     36  CB       -34.9820   13.2750  -10.0770 C.3    24  THR24       0.1784
     37  OG1      -36.2190   13.0380   -9.4120 O.3    24  THR24      -0.2211
     38  CG2      -34.3510   11.9280  -10.3910 C.3    24  THR24       0.0376
     39  N        -33.9220   16.5430   -9.6380 N.am   25  HIS25      -0.1961
     40  CA       -34.2480   17.9600   -9.5030 C.3    25  HIS25       0.1787
     41  C        -34.2340   18.6550  -10.8410 C.2    25  HIS25       0.2620
     42  O        -33.8570   18.0720  -11.8510 O.2    25  HIS25      -0.2715
     43  CB       -33.1850   18.6630   -8.6200 C.3    25  HIS25       0.0785
     44  CG       -32.9300   18.0100   -7.3030 C.ar   25  HIS25       0.0821
     45  ND1      -33.3610   18.5830   -6.1290 N.ar   25  HIS25      -0.2267
     46  CD2      -32.2630   16.8670   -7.0170 C.ar   25  HIS25       0.1154
     47  CE1      -32.9610   17.7670   -5.1690 C.ar   25  HIS25       0.1986
     48  NE2      -32.2930   16.7230   -5.6580 N.ar   25  HIS25      -0.2212
     49  N        -34.5660   19.9410  -10.8090 N.am   26  ASP26      -0.1971
     50  CA       -34.5130   20.8480  -11.9310 C.3    26  ASP26       0.1709
     51  C        -33.1730   21.5970  -11.7850 C.2    26  ASP26       0.2293
     52  O        -32.4710   21.3570  -10.8070 O.2    26  ASP26      -0.2864
     53  CB       -35.7400   21.7940  -11.9050 C.3    26  ASP26       0.1436
     54  CG       -35.8360   22.8170  -10.7790 C.2    26  ASP26       0.3671
     55  OD1      -34.9620   22.8060   -9.8760 O.co2  26  ASP26      -0.2456
     56  OD2      -36.7720   23.6390  -10.8110 O.co2  26  ASP26      -0.2456
     57  N        -32.1580   18.4180  -14.0520 N.3    44  ASN44      -0.1240
     58  CA       -32.6410   18.8460  -15.3440 C.3    44  ASN44       0.1653
     59  C        -31.9840   20.1700  -15.6970 C.2    44  ASN44       0.2266
     60  O        -31.7650   20.9840  -14.8020 O.2    44  ASN44      -0.2867
     61  CB       -34.1640   18.9870  -15.3430 C.3    44  ASN44       0.1155
     62  CG       -34.7520   18.9410  -16.7410 C.2    44  ASN44       0.2627
     63  OD1      -34.7940   19.9390  -17.4620 O.2    44  ASN44      -0.2716
     64  ND2      -35.1660   17.7680  -17.1720 N.am   44  ASN44      -0.0877
     65  N        -33.4120   22.5720  -17.2370 N.3    46  ALA46      -0.1231
     66  CA       -34.4230   23.6120  -17.0920 C.3    46  ALA46       0.1694
     67  C        -35.0990   23.6620  -15.7070 C.2    46  ALA46       0.2593
     68  O        -34.8900   22.7820  -14.8860 O.2    46  ALA46      -0.2718
     69  CB       -35.4540   23.4530  -18.1990 C.3    46  ALA46       0.0304
     70  N        -35.8730   24.7130  -15.4550 N.am   47  GLY47      -0.1942
     71  CA       -36.6560   24.8580  -14.2310 C.3    47  GLY47       0.2014
     72  C        -37.9440   24.0620  -14.3620 C.2    47  GLY47       0.2638
     73  O        -38.4800   23.9720  -15.4690 O.2    47  GLY47      -0.2714
     74  N        -38.4530   23.4690  -13.2470 N.am   48  ARG48      -0.1977
     75  CA       -39.6730   22.6280  -13.2110 C.3    48  ARG48       0.1597
     76  C        -40.8910   23.2160  -13.9550 C.2    48  ARG48       0.2287
     77  O        -41.6860   22.4640  -14.5310 O.2    48  ARG48      -0.2864
     78  CB       -40.0630   22.2730  -11.7560 C.3    48  ARG48       0.0334
     79  CG       -41.1970   21.2380  -11.6560 C.3    48  ARG48       0.0492
     80  CD       -41.5480   20.8650  -10.2290 C.3    48  ARG48       0.2205
     81  NE       -40.5670   19.9380   -9.6580 N.pl3  48  ARG48      -0.0865
     82  CZ       -40.6340   18.6160   -9.7740 C.cat  48  ARG48       0.5346
     83  NH1      -39.6980   17.8500   -9.2290 N.pl3  48  ARG48       0.1354
     84  NH2      -41.6380   18.0480  -10.4350 N.pl3  48  ARG48       0.1354
     85  N        -41.2940   22.6410  -17.6380 N.3    51  GLY51      -0.1210
     86  CA       -41.7330   21.2630  -17.8520 C.3    51  GLY51       0.1956
     87  C        -40.6450   20.2270  -18.0580 C.2    51  GLY51       0.2612
     88  O        -40.9540   19.0360  -18.1980 O.2    51  GLY51      -0.2717
     89  N        -39.3850   20.6700  -18.0740 N.am   52  GLY52      -0.1942
     90  CA       -38.2340   19.7950  -18.2820 C.3    52  GLY52       0.2014
     91  C        -37.7770   19.7430  -19.7260 C.2    52  GLY52       0.2639
     92  O        -38.6040   19.7060  -20.6430 O.2    52  GLY52      -0.2714
     93  N        -36.4420   19.7420  -19.9410 N.am   53  VAL53      -0.1963
     94  CA       -35.8450   19.7730  -21.2800 C.3    53  VAL53       0.1727
     95  C        -34.7940   18.6880  -21.4710 C.2    53  VAL53       0.2616
     96  O        -34.8370   17.9750  -22.4690 O.2    53  VAL53      -0.2715
     97  CB       -35.2690   21.1910  -21.5610 C.3    53  VAL53       0.0290
     98  CG1      -34.3870   21.2200  -22.8120 C.3    53  VAL53       0.0023
     99  CG2      -36.3740   22.2400  -21.6410 C.3    53  VAL53       0.0023
    100  N        -33.8000   18.6070  -20.5650 N.am   54  HIS54      -0.1959
    101  CA       -32.7120   17.6420  -20.7290 C.3    54  HIS54       0.1787
    102  C        -32.2150   17.0890  -19.3850 C.2    54  HIS54       0.2620
    103  O        -32.2250   17.8000  -18.4080 O.2    54  HIS54      -0.2715
    104  CB       -31.5760   18.3250  -21.5330 C.3    54  HIS54       0.0785
    105  CG       -30.3750   17.4660  -21.8040 C.ar   54  HIS54       0.0821
    106  ND1      -30.4830   16.2530  -22.4540 N.ar   54  HIS54      -0.2267
    107  CD2      -29.0690   17.7160  -21.5640 C.ar   54  HIS54       0.1154
    108  CE1      -29.2510   15.7770  -22.5330 C.ar   54  HIS54       0.1986
    109  NE2      -28.3690   16.6230  -22.0040 N.ar   54  HIS54      -0.2212
    110  N        -31.7580   15.8480  -19.3470 N.am   55  TRP55      -0.1974
    111  CA       -31.2700   15.2910  -18.0910 C.3    55  TRP55       0.1640
    112  C        -29.7470   15.1920  -17.9930 C.2    55  TRP55       0.2290
    113  O        -29.0890   14.7470  -18.9350 O.2    55  TRP55      -0.2864
    114  CB       -31.9060   13.9300  -17.7820 C.3    55  TRP55       0.0576
    115  CG       -33.3830   13.9810  -17.5230 C.ar   55  TRP55       0.0006
    116  CD1      -34.3670   13.4770  -18.3200 C.ar   55  TRP55       0.0946
    117  CD2      -34.0430   14.5080  -16.3540 C.ar   55  TRP55       0.0152
    118  NE1      -35.5910   13.6360  -17.7180 N.ar   55  TRP55      -0.2442
    119  CE2      -35.4290   14.3210  -16.5400 C.ar   55  TRP55       0.0810
    120  CE3      -33.6020   15.1910  -15.2030 C.ar   55  TRP55       0.0012
    121  CZ2      -36.3740   14.7190  -15.5830 C.ar   55  TRP55       0.0191
    122  CZ3      -34.5410   15.6080  -14.2700 C.ar   55  TRP55       0.0001
    123  CH2      -35.9090   15.3730  -14.4650 C.ar   55  TRP55       0.0015
    124  N        -24.5720   13.6610  -23.9630 N.3    73  PHE73      -0.1241
    125  CA       -24.1280   14.3400  -25.1810 C.3    73  PHE73       0.1605
    126  C        -22.6920   14.9100  -25.0960 C.2    73  PHE73       0.2264
    127  O        -22.1880   15.3780  -26.1070 O.2    73  PHE73      -0.2867
    128  CB       -25.1010   15.4980  -25.4800 C.3    73  PHE73       0.0534
    129  CG       -26.4550   15.1220  -26.0480 C.ar   73  PHE73      -0.0203
    130  CD1      -27.5840   15.8600  -25.7330 C.ar   73  PHE73      -0.0042
    131  CD2      -26.5850   14.0570  -26.9440 C.ar   73  PHE73      -0.0042
    132  CE1      -28.8150   15.5540  -26.3040 C.ar   73  PHE73      -0.0003
    133  CE2      -27.8210   13.7500  -27.5130 C.ar   73  PHE73      -0.0003
    134  CZ       -28.9260   14.4960  -27.1860 C.ar   73  PHE73      -0.0000
    135  N        -25.1060    9.3790  -26.8780 N.3   115  GLN115     -0.1245
    136  CA       -26.4490    9.5140  -27.3590 C.3   115  GLN115      0.1566
    137  C        -26.5780   10.1020  -28.7590 C.2   115  GLN115      0.2260
    138  O        -25.9250   11.0960  -29.0660 O.2   115  GLN115     -0.2867
    139  CB       -27.2230   10.3610  -26.3510 C.3   115  GLN115      0.0367
    140  CG       -28.7320   10.2760  -26.4810 C.3   115  GLN115      0.0905
    141  CD       -29.4270   11.1350  -25.4630 C.2   115  GLN115      0.2608
    142  OE1      -30.4580   11.7670  -25.7220 O.2   115  GLN115     -0.2717
    143  NE2      -28.8830   11.1680  -24.2760 N.am  115  GLN115     -0.0878
    144  N        -32.3950   11.1690  -30.0490 N.3   119  SER119     -0.1202
    145  CA       -32.7770   10.3210  -28.9430 C.3   119  SER119      0.2020
    146  C        -33.2780   11.0970  -27.7180 C.2   119  SER119      0.2618
    147  O        -32.8960   12.2570  -27.4870 O.2   119  SER119     -0.2717
    148  CB       -31.6500    9.3640  -28.5910 C.3   119  SER119      0.2103
    149  OG       -31.8830    8.7630  -27.3300 O.3   119  SER119     -0.2182
    150  N        -34.1680   10.4350  -26.9480 N.am  120  ALA120     -0.1979
    151  CA       -34.7650   10.9810  -25.7340 C.3   120  ALA120      0.1597
    152  C        -34.4690   10.0640  -24.5360 C.2   120  ALA120      0.2287
    153  O        -35.1830   10.0870  -23.5370 O.2   120  ALA120     -0.2864
    154  CB       -36.2610   11.2050  -25.9310 C.3   120  ALA120      0.0319
    155  N        -31.7520   10.4220  -22.6300 N.3   122  CYS122     -0.1235
    156  CA       -30.8150   11.1590  -21.7360 C.3   122  CYS122      0.1677
    157  C        -30.9270   10.7740  -20.2510 C.2   122  CYS122      0.2270
    158  O        -29.9070   10.4730  -19.6370 O.2   122  CYS122     -0.2867
    159  CB       -30.8790   12.6730  -21.9240 C.3   122  CYS122      0.0956
    160  SG       -32.4860   13.4280  -21.5640 S.3   122  CYS122     -0.0801
    161  N        -37.0880   12.6690  -31.1760 N.3   201  MET201     -0.1245
    162  CA       -37.1810   14.1140  -31.4480 C.3   201  MET201      0.1570
    163  C        -37.7290   14.4210  -32.8530 C.2   201  MET201      0.2261
    164  O        -38.3610   15.4690  -33.0500 O.2   201  MET201     -0.2867
    165  CB       -35.8660   14.8590  -31.1710 C.3   201  MET201      0.0387
    166  CG       -35.4200   14.8180  -29.6930 C.3   201  MET201      0.0595
    167  SD       -36.7480   14.9310  -28.4440 S.3   201  MET201     -0.1393
    168  CE       -37.1770   16.7170  -28.5870 C.3   201  MET201      0.0692
@<TRIPOS>BOND
     1   164   163    2
     2   163   162    1
     3   162   161    1
     4   162   165    1
     5   165   166    1
     6   144   145    1
     7   166   167    1
     8   138   137    2
     9   145   148    1
    10   145   146    1
    11   137   136    1
    12   148   149    1
    13   168   167    1
    14   146   147    2
    15   146   150   am
    16   133   134   ar
    17   133   131   ar
    18   136   135    1
    19   136   139    1
    20   134   132   ar
    21   150   151    1
    22   131   129   ar
    23   140   139    1
    24   140   141    1
    25   132   130   ar
    26   127   126    2
    27   129   130   ar
    28   129   128    1
    29   154   151    1
    30   151   152    1
    31   142   141    2
    32     6     5    1
    33   128   125    1
    34   141   143   am
    35     5     2    1
    36   125   126    1
    37   125   124    1
    38   152   153    2
    39     2     1    1
    40     2     3    1
    41     3     7   am
    42     3     4    2
    43     7     8    1
    44    98    97    1
    45   155   156    1
    46   108   106   ar
    47   108   109   ar
    48    96    95    2
    49   106   105   ar
    50     8     9    1
    51   109   107   ar
    52   159   156    1
    53   159   160    1
    54   105   107   ar
    55   105   104    1
    56   156   157    1
    57    99    97    1
    58    97    94    1
    59   104   101    1
    60    95    94    1
    61    95   100   am
    62    94    93    1
    63     9    10    2
    64     9    11   am
    65   101   100    1
    66   101   102    1
    67    92    91    2
    68   157   158    2
    69    11    12    1
    70    93    91   am
    71    91    90    1
    72   102   110   am
    73   102   103    2
    74   110   111    1
    75    16    15    1
    76   113   112    2
    77    12    15    1
    78    12    13    1
    79   116   118   ar
    80   116   115   ar
    81    90    89    1
    82    69    66    1
    83    88    87    2
    84   111   112    1
    85   111   114    1
    86    89    87   am
    87    87    86    1
    88    86    85    1
    89   114   115    1
    90   118   119   ar
    91    13    14    2
    92    13    17   am
    93   115   117   ar
    94    63    62    2
    95    65    66    1
    96    64    62   am
    97    66    67    1
    98    17    18    1
    99    62    61    1
   100   119   117   ar
   101   119   121   ar
   102   117   120   ar
   103    18    21    1
   104    18    19    1
   105    67    70   am
   106    67    68    2
   107    59    58    1
   108    59    60    2
   109   121   123   ar
   110    21    22    1
   111    73    72    2
   112    70    71    1
   113    58    61    1
   114    58    57    1
   115   120   122   ar
   116    19    20    2
   117    19    23   am
   118    77    76    2
   119   123   122   ar
   120    72    71    1
   121    72    74   am
   122    76    75    1
   123    23    24    1
   124    74    75    1
   125    75    78    1
   126    24    25    1
   127    24    27    1
   128    50    53    1
   129    50    51    1
   130    50    49    1
   131    53    54    1
   132    42    41    2
   133    51    52    2
   134    78    79    1
   135    79    80    1
   136    25    26    2
   137    27    28    1
   138    41    49   am
   139    41    40    1
   140    56    54   ar
   141    28    29    1
   142    54    55   ar
   143    84    82    1
   144    38    36    1
   145    80    81    1
   146    36    37    1
   147    36    33    1
   148    30    29   ar
   149    82    81    2
   150    82    83    1
   151    29    31   ar
   152    39    40    1
   153    39    34   am
   154    40    43    1
   155    33    34    1
   156    33    32    1
   157    34    35    2
   158    43    44    1
   159    44    46   ar
   160    44    45   ar
   161    46    48   ar
   162    45    47   ar
   163    48    47   ar
