@<TRIPOS>MOLECULE
tmp/4pitB02.pdb
 71 68 0 0 0
SMALL
GASTEIGER

@<TRIPOS>ATOM
      1  N         11.2460   38.5020   17.9050 N.3    33  SER33      -0.1202
      2  CA        10.9240   38.6940   19.3050 C.3    33  SER33       0.2020
      3  C         11.3310   40.0480   19.8130 C.2    33  SER33       0.2619
      4  O         12.2560   40.6800   19.2810 O.2    33  SER33      -0.2717
      5  CB        11.6190   37.6300   20.1600 C.3    33  SER33       0.2103
      6  OG        13.0360   37.7410   20.1180 O.3    33  SER33      -0.2182
      7  N         10.7240   40.4210   20.9190 N.am   34  GLY34      -0.1942
      8  CA        11.0870   41.6470   21.6370 C.3    34  GLY34       0.2014
      9  C         10.8540   41.3420   23.0970 C.2    34  GLY34       0.2639
     10  O         11.5260   40.4720   23.6640 O.2    34  GLY34      -0.2714
     11  N          9.8150   41.9670   23.6860 N.am   35  ASP35      -0.1957
     12  CA         9.3980   41.5920   25.0430 C.3    35  ASP35       0.1840
     13  C          8.9280   40.1250   25.0180 C.2    35  ASP35       0.2621
     14  O          9.1600   39.3640   25.9620 O.2    35  ASP35      -0.2715
     15  CB         8.2320   42.4590   25.4940 C.3    35  ASP35       0.1450
     16  CG         8.5260   43.8950   25.8730 C.2    35  ASP35       0.3671
     17  OD1        9.7130   44.2670   25.9090 O.co2  35  ASP35      -0.2456
     18  OD2        7.5640   44.6400   26.0990 O.co2  35  ASP35      -0.2456
     19  N          8.2290   39.7510   23.9260 N.am   36  VAL36      -0.1977
     20  CA         7.6990   38.3910   23.7650 C.3    36  VAL36       0.1596
     21  C          8.0620   37.8570   22.3910 C.2    36  VAL36       0.2287
     22  O          8.7730   38.5280   21.6340 O.2    36  VAL36      -0.2864
     23  CB         6.1570   38.3430   23.9900 C.3    36  VAL36       0.0276
     24  CG1        5.7910   38.7760   25.4100 C.3    36  VAL36       0.0022
     25  CG2        5.3890   39.1620   22.9510 C.3    36  VAL36       0.0022
     26  N          6.9800   37.5560   18.8870 N.3    38  ASP38      -0.1239
     27  CA         5.9990   38.1720   18.0100 C.3    38  ASP38       0.1674
     28  C          5.5300   37.2310   16.9300 C.2    38  ASP38       0.2266
     29  O          4.3960   37.2930   16.5120 O.2    38  ASP38      -0.2867
     30  CB         6.6400   39.4000   17.3450 C.3    38  ASP38       0.1410
     31  CG         6.8810   40.5050   18.3630 C.2    38  ASP38       0.3668
     32  OD1        7.9240   40.4460   19.0780 O.co2  38  ASP38      -0.2456
     33  OD2        5.9940   41.3760   18.5060 O.co2  38  ASP38      -0.2456
     34  N          5.8300   42.5780   14.6150 N.3    59  GLY59      -0.1210
     35  CA         6.7990   43.2010   15.5110 C.3    59  GLY59       0.1956
     36  C          8.0320   42.3650   15.8100 C.2    59  GLY59       0.2612
     37  O          8.1700   41.2480   15.3060 O.2    59  GLY59      -0.2717
     38  N          8.8970   42.8930   16.6590 N.am   60  GLY60      -0.1942
     39  CA        10.1090   42.2080   17.0800 C.3    60  GLY60       0.2014
     40  C         11.2630   42.2050   16.0980 C.2    60  GLY60       0.2639
     41  O         11.1570   42.6930   14.9640 O.2    60  GLY60      -0.2714
     42  N         12.3840   41.7070   16.5890 N.am   61  THR61      -0.1950
     43  CA        13.6720   41.6070   15.9100 C.3    61  THR61       0.1897
     44  C         13.8920   40.1450   15.4820 C.2    61  THR61       0.2313
     45  O         13.6750   39.2550   16.3040 O.2    61  THR61      -0.2863
     46  CB        14.7960   42.0700   16.9070 C.3    61  THR61       0.1794
     47  OG1       14.5850   43.4480   17.2110 O.3    61  THR61      -0.2208
     48  CG2       16.2160   41.8950   16.3360 C.3    61  THR61       0.0378
     49  N          0.7950   38.6670   28.5730 N.3    83  TYR83      -0.1241
     50  CA         1.3400   39.9040   28.0370 C.3    83  TYR83       0.1605
     51  C          0.2460   40.6540   27.3000 C.2    83  TYR83       0.2264
     52  O         -0.3840   40.1140   26.4040 O.2    83  TYR83      -0.2867
     53  CB         2.5270   39.5800   27.1060 C.3    83  TYR83       0.0534
     54  CG         3.2250   40.7960   26.5360 C.ar   83  TYR83      -0.0201
     55  CD1        4.1490   41.5160   27.2920 C.ar   83  TYR83      -0.0009
     56  CD2        3.0220   41.1830   25.2130 C.ar   83  TYR83      -0.0009
     57  CE1        4.8750   42.5720   26.7320 C.ar   83  TYR83       0.0417
     58  CE2        3.7100   42.2520   24.6600 C.ar   83  TYR83       0.0417
     59  CZ         4.6450   42.9350   25.4180 C.ar   83  TYR83       0.1957
     60  OH         5.3100   43.9870   24.8400 O.3    83  TYR83      -0.2866
     61  N          0.8980   38.4590   18.3330 N.3   131  PHE131     -0.1241
     62  CA         2.0910   37.7630   18.7930 C.3   131  PHE131      0.1605
     63  C          1.9270   36.2720   18.4730 C.2   131  PHE131      0.2264
     64  O          0.9350   35.8530   17.8630 O.2   131  PHE131     -0.2867
     65  CB         2.3070   37.9920   20.3080 C.3   131  PHE131      0.0534
     66  CG         2.2430   39.4660   20.7010 C.ar  131  PHE131     -0.0203
     67  CD1        3.1720   40.3740   20.2040 C.ar  131  PHE131     -0.0042
     68  CD2        1.2460   39.9340   21.5610 C.ar  131  PHE131     -0.0042
     69  CE1        3.0980   41.7390   20.5340 C.ar  131  PHE131     -0.0003
     70  CE2        1.2020   41.2960   21.9300 C.ar  131  PHE131     -0.0003
     71  CZ         2.1250   42.1860   21.4050 C.ar  131  PHE131     -0.0000
@<TRIPOS>BOND
     1    34    35    1
     2    41    40    2
     3    37    36    2
     4    44    43    1
     5    44    45    2
     6    35    36    1
     7    36    38   am
     8    43    42    1
     9    43    46    1
    10    40    42   am
    11    40    39    1
    12    48    46    1
    13    29    28    2
    14    38    39    1
    15    46    47    1
    16    28    27    1
    17    30    27    1
    18    30    31    1
    19    64    63    2
    20     1     2    1
    21    27    26    1
    22    61    62    1
    23    31    33   ar
    24    31    32   ar
    25    63    62    1
    26    62    65    1
    27     4     3    2
    28     2     3    1
    29     2     5    1
    30     3     7   am
    31     6     5    1
    32    67    69   ar
    33    67    66   ar
    34    65    66    1
    35    69    71   ar
    36    66    68   ar
    37     7     8    1
    38    71    70   ar
    39    68    70   ar
    40    22    21    2
    41     8     9    1
    42    21    20    1
    43    25    23    1
    44     9    10    2
    45     9    11   am
    46    11    12    1
    47    20    19    1
    48    20    23    1
    49    19    13   am
    50    23    24    1
    51    58    56   ar
    52    58    59   ar
    53    60    59    1
    54    13    12    1
    55    13    14    2
    56    12    15    1
    57    56    54   ar
    58    59    57   ar
    59    15    16    1
    60    16    17   ar
    61    16    18   ar
    62    52    51    2
    63    54    53    1
    64    54    55   ar
    65    57    55   ar
    66    53    50    1
    67    51    50    1
    68    50    49    1
