@<TRIPOS>MOLECULE
tmp/4pivB01.pdb
 173 167 0 0 0
SMALL
GASTEIGER

@<TRIPOS>ATOM
      1  N        -14.1270   -1.4300   15.0320 N.3   123  HIS123     -0.1227
      2  CA       -14.4040   -1.9810   16.3550 C.3   123  HIS123      0.1737
      3  C        -15.3850   -3.1400   16.1680 C.2   123  HIS123      0.2438
      4  O        -16.4650   -2.9430   15.6210 O.2   123  HIS123     -0.2733
      5  CB       -15.0080   -0.9080   17.2730 C.3   123  HIS123      0.0758
      6  CG       -14.8190   -1.1840   18.7300 C.ar  123  HIS123      0.0818
      7  ND1      -15.3550   -2.2930   19.3510 N.ar  123  HIS123     -0.2268
      8  CD2      -14.1420   -0.5040   19.6880 C.ar  123  HIS123      0.1154
      9  CE1      -15.0180   -2.2840   20.6300 C.ar  123  HIS123      0.1986
     10  NE2      -14.2790   -1.2100   20.8600 N.ar  123  HIS123     -0.2212
     11  N        -15.0090   -4.3490   16.6000 N.am  124  PRO124     -0.2718
     12  CA       -15.8100   -5.5420   16.3290 C.3   124  PRO124      0.1535
     13  C        -17.0630   -5.6870   17.1880 C.2   124  PRO124      0.2598
     14  O        -18.0060   -6.3640   16.7840 O.2   124  PRO124     -0.2715
     15  CB       -14.8480   -6.6690   16.6590 C.3   124  PRO124      0.0310
     16  CG       -14.0180   -6.1130   17.7620 C.3   124  PRO124      0.0237
     17  CD       -13.8200   -4.6710   17.4110 C.3   124  PRO124      0.0939
     18  N        -17.0610   -5.0820   18.3680 N.am  125  LEU125     -0.1978
     19  CA       -18.1780   -5.2310   19.3170 C.3   125  LEU125      0.1596
     20  C        -19.0860   -4.0060   19.4040 C.2   125  LEU125      0.2287
     21  O        -20.2690   -4.1260   19.7330 O.2   125  LEU125     -0.2864
     22  CB       -17.6330   -5.5630   20.7120 C.3   125  LEU125      0.0297
     23  CG       -16.9930   -6.9530   20.8310 C.3   125  LEU125      0.0022
     24  CD1      -16.1670   -7.0820   22.1060 C.3   125  LEU125      0.0001
     25  CD2      -18.0620   -8.0370   20.7660 C.3   125  LEU125      0.0001
     26  N          2.4750  -19.8880   28.3310 N.3   474  VAL474     -0.1245
     27  CA         1.1600  -19.5260   28.8300 C.3   474  VAL474      0.1561
     28  C          0.5190  -20.6550   29.6380 C.2   474  VAL474      0.2260
     29  O          0.5770  -21.8210   29.2590 O.2   474  VAL474     -0.2867
     30  CB         0.2150  -19.1100   27.6800 C.3   474  VAL474      0.0252
     31  CG1        0.1210  -20.2060   26.6360 C.3   474  VAL474      0.0019
     32  CG2       -1.1640  -18.7490   28.2260 C.3   474  VAL474      0.0019
     33  N         -3.3770  -21.0800   31.5270 N.3   476  LEU476     -0.1245
     34  CA        -4.7060  -20.4850   31.6330 C.3   476  LEU476      0.1561
     35  C         -5.4990  -20.9870   32.8450 C.2   476  LEU476      0.2260
     36  O         -5.5770  -22.1870   33.0980 O.2   476  LEU476     -0.2867
     37  CB        -5.5190  -20.7450   30.3560 C.3   476  LEU476      0.0270
     38  CG        -5.1200  -20.0090   29.0650 C.3   476  LEU476      0.0019
     39  CD1       -6.1460  -20.3260   27.9880 C.3   476  LEU476      0.0001
     40  CD2       -5.0040  -18.5000   29.2520 C.3   476  LEU476      0.0001
     41  N         -2.0200  -10.3930   24.1800 N.3   522  SER522     -0.1202
     42  CA        -3.3440  -10.7660   23.7070 C.3   522  SER522      0.2020
     43  C         -4.2730   -9.5720   23.7020 C.2   522  SER522      0.2619
     44  O         -4.0680   -8.5910   24.4450 O.2   522  SER522     -0.2717
     45  CB        -3.9600  -11.8310   24.6410 C.3   522  SER522      0.2103
     46  OG        -5.1640  -12.3530   24.1120 O.3   522  SER522     -0.2182
     47  N         -5.3010   -9.6730   22.8640 N.am  523  VAL523     -0.1965
     48  CA        -6.4390   -8.7610   22.9040 C.3   523  VAL523      0.1727
     49  C         -7.1960   -8.8780   24.2310 C.2   523  VAL523      0.2616
     50  O         -7.8930   -7.9550   24.6340 O.2   523  VAL523     -0.2715
     51  CB        -7.4210   -9.0150   21.7350 C.3   523  VAL523      0.0290
     52  CG1       -6.8210   -8.5160   20.4270 C.3   523  VAL523      0.0023
     53  CG2       -7.8070  -10.4920   21.6500 C.3   523  VAL523      0.0023
     54  N         -7.0600  -10.0130   24.9090 N.am  524  SER524     -0.1950
     55  CA        -7.6410  -10.1850   26.2430 C.3   524  SER524      0.1924
     56  C         -7.1190   -9.1220   27.1960 C.2   524  SER524      0.2314
     57  O         -7.8360   -8.6670   28.0870 O.2   524  SER524     -0.2863
     58  CB        -7.3170  -11.5720   26.8030 C.3   524  SER524      0.2116
     59  OG        -8.1010  -12.5760   26.1670 O.3   524  SER524     -0.2180
     60  N         -7.9300   -5.2890   24.9530 N.3   527  ARG527     -0.1231
     61  CA        -9.3380   -4.9130   24.8010 C.3   527  ARG527      0.1694
     62  C        -10.2160   -5.3700   25.9560 C.2   527  ARG527      0.2593
     63  O        -11.1610   -4.6880   26.3360 O.2   527  ARG527     -0.2718
     64  CB        -9.8900   -5.5190   23.5100 C.3   527  ARG527      0.0321
     65  CG        -8.9270   -5.4380   22.3390 C.3   527  ARG527      0.0489
     66  CD        -8.7000   -4.0050   21.8940 C.3   527  ARG527      0.2205
     67  NE        -7.6950   -3.9540   20.8330 N.pl3 527  ARG527     -0.0865
     68  CZ        -7.5620   -2.9810   19.9310 C.cat 527  ARG527      0.5346
     69  NH1       -8.4030   -1.9420   19.8950 N.pl3 527  ARG527      0.1354
     70  NH2       -6.5840   -3.0680   19.0310 N.pl3 527  ARG527      0.1354
     71  N         -9.8970   -6.5480   26.4870 N.am  528  GLY528     -0.1942
     72  CA       -10.6270   -7.1380   27.5960 C.3   528  GLY528      0.2014
     73  C        -11.3780   -8.3750   27.1650 C.2   528  GLY528      0.2638
     74  O        -12.0030   -8.4030   26.0980 O.2   528  GLY528     -0.2714
     75  N        -11.2910   -9.4140   27.9910 N.am  529  ASN529     -0.1972
     76  CA       -12.1030  -10.6150   27.8050 C.3   529  ASN529      0.1688
     77  C        -12.6360  -11.1020   29.1470 C.2   529  ASN529      0.2292
     78  O        -11.8660  -11.2770   30.1010 O.2   529  ASN529     -0.2864
     79  CB       -11.2980  -11.7130   27.1210 C.3   529  ASN529      0.1181
     80  CG       -12.1680  -12.8520   26.6230 C.2   529  ASN529      0.2629
     81  OD1      -13.2860  -12.6310   26.1510 O.2   529  ASN529     -0.2716
     82  ND2      -11.6590  -14.0830   26.7210 N.am  529  ASN529     -0.0877
     83  N        -11.0900  -13.7630   32.1040 N.3   532  GLN532     -0.1245
     84  CA        -9.6520  -13.9040   31.8900 C.3   532  GLN532      0.1566
     85  C         -8.8530  -12.7530   32.5110 C.2   532  GLN532      0.2260
     86  O         -7.7930  -12.3870   32.0110 O.2   532  GLN532     -0.2867
     87  CB        -9.3420  -14.0180   30.3900 C.3   532  GLN532      0.0367
     88  CG        -9.7460  -15.3350   29.7630 C.3   532  GLN532      0.0905
     89  CD        -9.0190  -15.5850   28.4530 C.2   532  GLN532      0.2608
     90  OE1       -9.0640  -14.7630   27.5340 O.2   532  GLN532     -0.2717
     91  NE2       -8.3360  -16.7150   28.3650 N.am  532  GLN532     -0.0878
     92  N         -5.1580  -13.4760   33.2710 N.3   535  TYR535     -0.1241
     93  CA        -4.4480  -13.5130   31.9970 C.3   535  TYR535      0.1605
     94  C         -4.2880  -12.0980   31.4240 C.2   535  TYR535      0.2264
     95  O         -3.2560  -11.7450   30.8320 O.2   535  TYR535     -0.2867
     96  CB        -5.2510  -14.4160   31.0470 C.3   535  TYR535      0.0534
     97  CG        -4.7130  -14.6140   29.6510 C.ar  535  TYR535     -0.0201
     98  CD1       -3.5910  -15.3980   29.4210 C.ar  535  TYR535     -0.0009
     99  CD2       -5.3750  -14.0800   28.5520 C.ar  535  TYR535     -0.0009
    100  CE1       -3.1180  -15.6060   28.1380 C.ar  535  TYR535      0.0417
    101  CE2       -4.9130  -14.2910   27.2660 C.ar  535  TYR535      0.0417
    102  CZ        -3.7800  -15.0490   27.0660 C.ar  535  TYR535      0.1957
    103  OH        -3.3000  -15.2630   25.7980 O.3   535  TYR535     -0.2866
    104  N         -1.9240  -10.2140   20.2480 N.3   561  TRP561     -0.1227
    105  CA        -2.5800  -11.0220   19.2340 C.3   561  TRP561      0.1737
    106  C         -4.0530  -11.1850   19.5480 C.2   561  TRP561      0.2596
    107  O         -4.4440  -11.4160   20.6960 O.2   561  TRP561     -0.2718
    108  CB        -1.9550  -12.4120   19.1140 C.3   561  TRP561      0.0564
    109  CG        -0.5430  -12.4110   18.5950 C.ar  561  TRP561      0.0003
    110  CD1        0.5960  -12.6180   19.3210 C.ar  561  TRP561      0.0946
    111  CD2       -0.1240  -12.2000   17.2460 C.ar  561  TRP561      0.0152
    112  NE1        1.6870  -12.5360   18.5140 N.ar  561  TRP561     -0.2442
    113  CE2        1.2770  -12.2890   17.2300 C.ar  561  TRP561      0.0810
    114  CE3       -0.7970  -11.9460   16.0480 C.ar  561  TRP561      0.0012
    115  CZ2        2.0220  -12.1330   16.0670 C.ar  561  TRP561      0.0191
    116  CZ3       -0.0570  -11.7850   14.8940 C.ar  561  TRP561      0.0001
    117  CH2        1.3380  -11.8770   14.9130 C.ar  561  TRP561      0.0015
    118  N         -4.8600  -11.1220   18.4990 N.am  562  GLY562     -0.1942
    119  CA        -6.2170  -11.6150   18.5750 C.3   562  GLY562      0.2014
    120  C         -6.1990  -13.1260   18.4960 C.2   562  GLY562      0.2638
    121  O         -5.1370  -13.7570   18.5840 O.2   562  GLY562     -0.2714
    122  N         -7.3730  -13.7110   18.3110 N.am  563  ALA563     -0.1977
    123  CA        -7.5050  -15.1500   18.0830 C.3   563  ALA563      0.1597
    124  C         -6.5380  -15.6380   17.0000 C.2   563  ALA563      0.2287
    125  O         -6.4230  -15.0210   15.9370 O.2   563  ALA563     -0.2864
    126  CB        -8.9440  -15.4860   17.7000 C.3   563  ALA563      0.0319
    127  N         -3.8880  -22.7990   21.4880 N.3   569  ILE569     -0.1231
    128  CA        -4.8660  -23.1130   22.5480 C.3   569  ILE569      0.1692
    129  C         -6.3050  -23.0440   22.0360 C.2   569  ILE569      0.2591
    130  O         -7.1080  -23.9600   22.2430 O.2   569  ILE569     -0.2718
    131  CB        -4.7570  -22.1250   23.7330 C.3   569  ILE569      0.0266
    132  CG1       -3.6100  -22.4970   24.6750 C.3   569  ILE569      0.0019
    133  CG2       -6.0580  -22.1020   24.5300 C.3   569  ILE569      0.0020
    134  CD1       -3.1130  -21.3160   25.4910 C.3   569  ILE569      0.0001
    135  N         -6.6140  -21.9360   21.3750 N.am  570  LEU570     -0.1980
    136  CA        -7.9700  -21.6440   20.8980 C.3   570  LEU570      0.1596
    137  C         -8.4280  -22.6550   19.8350 C.2   570  LEU570      0.2287
    138  O         -9.5450  -23.1710   19.8900 O.2   570  LEU570     -0.2864
    139  CB        -8.0300  -20.1970   20.3730 C.3   570  LEU570      0.0297
    140  CG        -9.2020  -19.7540   19.4950 C.3   570  LEU570      0.0022
    141  CD1      -10.4690  -19.5720   20.3200 C.3   570  LEU570      0.0001
    142  CD2       -8.8160  -18.4610   18.8070 C.3   570  LEU570      0.0001
    143  N        -15.1940  -15.1020   17.1630 N.3   577  VAL577     -0.1231
    144  CA       -15.1200  -14.7210   18.5830 C.3   577  VAL577      0.1692
    145  C        -15.1580  -13.1960   18.7410 C.2   577  VAL577      0.2592
    146  O        -14.2970  -12.4840   18.2140 O.2   577  VAL577     -0.2718
    147  CB       -13.8550  -15.2600   19.2900 C.3   577  VAL577      0.0266
    148  CG1      -14.0340  -16.7250   19.6820 C.3   577  VAL577      0.0020
    149  CG2      -12.6170  -15.0640   18.4260 C.3   577  VAL577      0.0020
    150  N        -16.1600  -12.7100   19.4700 N.am  578  SER578     -0.1952
    151  CA       -16.3300  -11.2750   19.7380 C.3   578  SER578      0.1924
    152  C        -16.1860  -10.4510   18.4630 C.2   578  SER578      0.2314
    153  O        -15.4630   -9.4500   18.4210 O.2   578  SER578     -0.2863
    154  CB       -15.3340  -10.8080   20.8070 C.3   578  SER578      0.2116
    155  OG       -15.5250  -11.5310   22.0230 O.3   578  SER578     -0.2180
    156  N        -14.6630  -11.1670   15.8050 N.3   580  THR580     -0.1218
    157  CA       -13.3740  -11.3340   15.1400 C.3   580  THR580      0.1862
    158  C        -13.1890  -12.7620   14.6520 C.2   580  THR580      0.2287
    159  O        -13.8050  -13.6980   15.1760 O.2   580  THR580     -0.2866
    160  CB       -12.1830  -10.9150   16.0420 C.3   580  THR580      0.1770
    161  OG1      -11.9620  -11.8860   17.0690 O.3   580  THR580     -0.2211
    162  CG2      -12.4330   -9.5430   16.6720 C.3   580  THR580      0.0375
    163  N         -5.3050   -8.0420   14.7890 N.3   606  PHE606     -0.1241
    164  CA        -6.4950   -8.8980   14.8000 C.3   606  PHE606      0.1605
    165  C         -7.2520   -8.8120   13.4890 C.2   606  PHE606      0.2264
    166  O         -7.0400   -7.9000   12.6830 O.2   606  PHE606     -0.2867
    167  CB        -7.4240   -8.5800   15.9780 C.3   606  PHE606      0.0534
    168  CG        -8.1960   -7.3060   15.8190 C.ar  606  PHE606     -0.0203
    169  CD1       -7.6330   -6.0840   16.1710 C.ar  606  PHE606     -0.0042
    170  CD2       -9.4970   -7.3260   15.3210 C.ar  606  PHE606     -0.0042
    171  CE1       -8.3470   -4.9030   16.0180 C.ar  606  PHE606     -0.0003
    172  CE2      -10.2160   -6.1550   15.1680 C.ar  606  PHE606     -0.0003
    173  CZ        -9.6430   -4.9390   15.5210 C.ar  606  PHE606     -0.0000
@<TRIPOS>BOND
     1   166   165    2
     2   165   164    1
     3   158   157    1
     4   158   159    2
     5   163   164    1
     6   164   167    1
     7   116   117   ar
     8   116   114   ar
     9   117   115   ar
    10     1     2    1
    11   157   156    1
    12   157   160    1
    13   172   170   ar
    14   172   173   ar
    15   170   168   ar
    16   173   171   ar
    17     4     3    2
    18   168   167    1
    19   168   169   ar
    20   125   124    2
    21   171   169   ar
    22   160   162    1
    23   160   161    1
    24   114   111   ar
    25   115   113   ar
    26     3     2    1
    27     3    11   am
    28    12    11    1
    29    12    15    1
    30    12    13    1
    31     2     5    1
    32    11    17    1
    33    15    16    1
    34    14    13    2
    35   124   123    1
    36   143   144    1
    37    13    18   am
    38   113   111   ar
    39   113   112   ar
    40   111   109   ar
    41     5     6    1
    42    17    16    1
    43   126   123    1
    44   123   122    1
    45   146   145    2
    46   122   120   am
    47    18    19    1
    48   153   152    2
    49   149   147    1
    50   152   151    1
    51   120   119    1
    52   120   121    2
    53   118   119    1
    54   118   106   am
    55   112   110   ar
    56   144   145    1
    57   144   147    1
    58   109   108    1
    59   109   110   ar
    60     6     7   ar
    61     6     8   ar
    62   145   150   am
    63   142   140    1
    64    70    68    1
    65   108   105    1
    66   105   106    1
    67   105   104    1
    68   147   148    1
    69    19    20    1
    70    19    22    1
    71     7     9   ar
    72    20    21    2
    73   150   151    1
    74   140   141    1
    75   140   139    1
    76   106   107    2
    77     8    10   ar
    78   151   154    1
    79   137   138    2
    80   137   136    1
    81    69    68    1
    82    68    67    2
    83   139   136    1
    84    52    51    1
    85     9    10   ar
    86    22    23    1
    87    25    23    1
    88   154   155    1
    89    23    24    1
    90    67    66    1
    91   136   135    1
    92   135   129   am
    93   127   128    1
    94    53    51    1
    95    51    48    1
    96    66    65    1
    97   129   130    2
    98   129   128    1
    99    65    64    1
   100   128   131    1
   101    47    48    1
   102    47    43   am
   103    48    49    1
   104    64    61    1
   105    43    42    1
   106    43    44    2
   107    42    41    1
   108    42    45    1
   109   131   133    1
   110   131   132    1
   111    46    45    1
   112    49    50    2
   113    49    54   am
   114   132   134    1
   115    61    60    1
   116    61    62    1
   117    54    55    1
   118   103   102    1
   119    62    63    2
   120    62    71   am
   121    74    73    2
   122    81    80    2
   123    59    58    1
   124    55    58    1
   125    55    56    1
   126    71    72    1
   127    80    82   am
   128    80    79    1
   129    31    30    1
   130   102   101   ar
   131   102   100   ar
   132    79    76    1
   133    73    72    1
   134    73    75   am
   135    56    57    2
   136   101    99   ar
   137    90    89    2
   138    30    32    1
   139    30    27    1
   140    76    75    1
   141    76    77    1
   142    39    38    1
   143   100    98   ar
   144    26    27    1
   145    91    89   am
   146    89    88    1
   147    99    97   ar
   148    27    28    1
   149    38    40    1
   150    38    37    1
   151    77    78    2
   152    29    28    2
   153    98    97   ar
   154    97    96    1
   155    88    87    1
   156    37    34    1
   157    87    84    1
   158    95    94    2
   159    96    93    1
   160    94    93    1
   161    33    34    1
   162    34    35    1
   163    84    83    1
   164    84    85    1
   165    93    92    1
   166    86    85    2
   167    35    36    2
