@<TRIPOS>MOLECULE
tmp/4piyA00.pdb
 161 156 0 0 0
SMALL
GASTEIGER

@<TRIPOS>ATOM
      1  N        -10.0110   -1.2800  -59.1770 N.3    54  TYR54      -0.1241
      2  CA       -10.1320   -0.1050  -58.3450 C.3    54  TYR54       0.1605
      3  C         -9.1680   -0.1750  -57.1640 C.2    54  TYR54       0.2264
      4  O         -8.7940   -1.2480  -56.7070 O.2    54  TYR54      -0.2867
      5  CB       -11.5620    0.0800  -57.8370 C.3    54  TYR54       0.0534
      6  CG       -12.0040   -0.8200  -56.7320 C.ar   54  TYR54      -0.0201
      7  CD1      -11.8280   -0.4520  -55.4040 C.ar   54  TYR54      -0.0009
      8  CD2      -12.6440   -2.0400  -57.0000 C.ar   54  TYR54      -0.0009
      9  CE1      -12.2480   -1.2730  -54.3640 C.ar   54  TYR54       0.0417
     10  CE2      -13.0570   -2.8780  -55.9570 C.ar   54  TYR54       0.0417
     11  CZ       -12.8660   -2.4790  -54.6340 C.ar   54  TYR54       0.1957
     12  OH       -13.2750   -3.2810  -53.5650 O.3    54  TYR54      -0.2866
     13  N         -7.8390    1.4140  -53.2290 N.3    56  ARG56      -0.1245
     14  CA        -8.2910    1.9380  -51.9410 C.3    56  ARG56       0.1563
     15  C         -7.1690    2.7510  -51.3350 C.2    56  ARG56       0.2260
     16  O         -6.0690    2.2520  -51.1220 O.2    56  ARG56      -0.2867
     17  CB        -8.6820    0.8090  -50.9950 C.3    56  ARG56       0.0307
     18  CG        -9.8110   -0.0500  -51.5230 C.3    56  ARG56       0.0489
     19  CD        -9.9490   -1.3240  -50.7000 C.3    56  ARG56       0.2205
     20  NE       -10.6260   -1.1830  -49.4280 N.pl3  56  ARG56      -0.0865
     21  CZ       -10.0350   -1.2190  -48.2310 C.cat  56  ARG56       0.5346
     22  NH1       -8.7140   -1.3550  -48.1110 N.pl3  56  ARG56       0.1354
     23  NH2      -10.7700   -1.1360  -47.1280 N.pl3  56  ARG56       0.1354
     24  N        -11.3090    6.6690  -46.5410 N.3    69  MET69      -0.1245
     25  CA       -10.4650    6.3500  -47.6730 C.3    69  MET69       0.1570
     26  C        -11.0730    6.7530  -48.9890 C.2    69  MET69       0.2261
     27  O        -12.2660    6.9740  -49.0870 O.2    69  MET69      -0.2867
     28  CB       -10.1560    4.8560  -47.6730 C.3    69  MET69       0.0387
     29  CG       -11.3870    3.9860  -47.7840 C.3    69  MET69       0.0595
     30  SD       -10.9640    2.2420  -47.5990 S.3    69  MET69      -0.1393
     31  CE       -10.7440    2.1430  -45.8130 C.3    69  MET69       0.0692
     32  N        -11.5270    5.7260  -52.9650 N.3    71  LEU71      -0.1245
     33  CA       -11.4730    4.6460  -53.9420 C.3    71  LEU71       0.1561
     34  C        -11.5230    5.2170  -55.3600 C.2    71  LEU71       0.2260
     35  O        -12.3170    6.1070  -55.6690 O.2    71  LEU71      -0.2867
     36  CB       -12.6010    3.6380  -53.7220 C.3    71  LEU71       0.0270
     37  CG       -12.3440    2.5560  -52.6760 C.3    71  LEU71       0.0019
     38  CD1      -12.0030    3.1460  -51.2780 C.3    71  LEU71       0.0001
     39  CD2      -13.5240    1.5650  -52.5790 C.3    71  LEU71       0.0001
     40  N        -11.8140    4.3150  -59.3910 N.3    73  TRP73      -0.1241
     41  CA       -12.4280    3.2970  -60.2260 C.3    73  TRP73       0.1605
     42  C        -12.1800    3.6620  -61.6740 C.2    73  TRP73       0.2264
     43  O        -12.7810    4.6130  -62.1660 O.2    73  TRP73      -0.2867
     44  CB       -13.9440    3.2250  -60.0040 C.3    73  TRP73       0.0550
     45  CG       -14.4070    3.2220  -58.5570 C.ar   73  TRP73       0.0003
     46  CD1      -14.4440    4.2920  -57.7030 C.ar   73  TRP73       0.0946
     47  CD2      -14.8880    2.1000  -57.8050 C.ar   73  TRP73       0.0152
     48  NE1      -14.9320    3.9060  -56.4870 N.ar   73  TRP73      -0.2442
     49  CE2      -15.2160    2.5690  -56.5220 C.ar   73  TRP73       0.0810
     50  CE3      -15.1040    0.7550  -58.1060 C.ar   73  TRP73       0.0012
     51  CZ2      -15.7200    1.7290  -55.5310 C.ar   73  TRP73       0.0191
     52  CZ3      -15.6100   -0.0680  -57.1380 C.ar   73  TRP73       0.0001
     53  CH2      -15.9230    0.4300  -55.8540 C.ar   73  TRP73       0.0015
     54  N        -16.7010   -3.6640  -57.8960 N.3    79  SER79      -0.1217
     55  CA       -16.4690   -4.4870  -56.7270 C.3    79  SER79       0.1889
     56  C        -17.1860   -5.8050  -56.8540 C.2    79  SER79       0.2288
     57  O        -17.9820   -6.0120  -57.7610 O.2    79  SER79      -0.2866
     58  CB       -16.9890   -3.7830  -55.4680 C.3    79  SER79       0.2089
     59  OG       -18.4260   -3.8410  -55.4100 O.3    79  SER79      -0.2183
     60  N        -20.6490   -7.6330  -51.7210 N.3    82  HIS82      -0.1241
     61  CA       -19.9790   -7.7430  -50.4260 C.3    82  HIS82       0.1621
     62  C        -20.7840   -7.1750  -49.2590 C.2    82  HIS82       0.2264
     63  O        -21.7820   -6.4410  -49.4350 O.2    82  HIS82      -0.2867
     64  CB       -18.6280   -7.0440  -50.4620 C.3    82  HIS82       0.0745
     65  CG       -18.7320   -5.5910  -50.7500 C.ar   82  HIS82       0.0817
     66  ND1      -18.8060   -5.1040  -52.0350 N.ar   82  HIS82      -0.2268
     67  CD2      -18.8210   -4.5160  -49.9300 C.ar   82  HIS82       0.1154
     68  CE1      -18.9340   -3.7890  -51.9950 C.ar   82  HIS82       0.1986
     69  NE2      -18.9520   -3.4040  -50.7260 N.ar   82  HIS82      -0.2212
     70  N        -20.1310   -5.6750  -44.9840 N.3    84  HIS84      -0.1241
     71  CA       -19.3730   -4.6150  -44.3260 C.3    84  HIS84       0.1621
     72  C        -19.0640   -4.9340  -42.8590 C.2    84  HIS84       0.2264
     73  O        -18.8790   -4.0310  -42.0480 O.2    84  HIS84      -0.2867
     74  CB       -20.1250   -3.2860  -44.4680 C.3    84  HIS84       0.0745
     75  CG       -20.3070   -2.9010  -45.9000 C.ar   84  HIS84       0.0817
     76  ND1      -21.3580   -3.3770  -46.6580 N.ar   84  HIS84      -0.2268
     77  CD2      -19.5050   -2.2200  -46.7460 C.ar   84  HIS84       0.1154
     78  CE1      -21.2240   -2.9440  -47.8960 C.ar   84  HIS84       0.1986
     79  NE2      -20.1080   -2.2410  -47.9810 N.ar   84  HIS84      -0.2212
     80  N        -20.9740    1.7960  -43.1690 N.3    89  ALA89      -0.1231
     81  CA       -20.2660    2.1270  -44.4130 C.3    89  ALA89       0.1694
     82  C        -20.9390    3.2740  -45.1260 C.2    89  ALA89       0.2592
     83  O        -22.0970    3.1670  -45.5380 O.2    89  ALA89      -0.2718
     84  CB       -20.1980    0.8870  -45.3400 C.3    89  ALA89       0.0304
     85  N        -20.2000    4.3650  -45.2790 N.am   90  PHE90      -0.1962
     86  CA       -20.6720    5.5250  -46.0110 C.3    90  PHE90       0.1771
     87  C        -19.8550    5.6780  -47.2900 C.2    90  PHE90       0.2619
     88  O        -18.6710    5.4240  -47.2810 O.2    90  PHE90      -0.2715
     89  CB       -20.5670    6.8010  -45.1760 C.3    90  PHE90       0.0574
     90  CG       -21.2500    6.7550  -43.8380 C.ar   90  PHE90      -0.0200
     91  CD1      -20.6550    6.1220  -42.7470 C.ar   90  PHE90      -0.0042
     92  CD2      -22.4410    7.4260  -43.6410 C.ar   90  PHE90      -0.0042
     93  CE1      -21.2650    6.1200  -41.5070 C.ar   90  PHE90      -0.0003
     94  CE2      -23.0570    7.4230  -42.3970 C.ar   90  PHE90      -0.0003
     95  CZ       -22.4530    6.7740  -41.3290 C.ar   90  PHE90      -0.0000
     96  N        -20.5160    6.1080  -48.3710 N.am   91  LEU91      -0.1977
     97  CA       -19.9010    6.2360  -49.6820 C.3    91  LEU91       0.1596
     98  C        -20.3220    7.5450  -50.3000 C.2    91  LEU91       0.2287
     99  O        -21.4930    7.7300  -50.5780 O.2    91  LEU91      -0.2864
    100  CB       -20.3440    5.0680  -50.5530 C.3    91  LEU91       0.0297
    101  CG       -19.7250    4.7980  -51.9010 C.3    91  LEU91       0.0022
    102  CD1      -20.1390    3.3920  -52.2850 C.3    91  LEU91       0.0001
    103  CD2      -20.1500    5.8230  -52.9580 C.3    91  LEU91       0.0001
    104  N        -24.1690   -5.1590  -51.1200 N.3   136  HIS136     -0.1241
    105  CA       -24.2110   -4.4450  -52.3820 C.3   136  HIS136      0.1621
    106  C        -22.9880   -4.7270  -53.2380 C.2   136  HIS136      0.2264
    107  O        -22.0080   -5.3190  -52.7870 O.2   136  HIS136     -0.2867
    108  CB       -24.4000   -2.9250  -52.1620 C.3   136  HIS136      0.0745
    109  CG       -23.2100   -2.2050  -51.6060 C.ar  136  HIS136      0.0817
    110  ND1      -23.2060   -0.8350  -51.4170 N.ar  136  HIS136     -0.2268
    111  CD2      -21.9880   -2.6400  -51.2010 C.ar  136  HIS136      0.1154
    112  CE1      -22.0440   -0.4690  -50.9110 C.ar  136  HIS136      0.1986
    113  NE2      -21.2830   -1.5430  -50.7840 N.ar  136  HIS136     -0.2212
    114  N        -20.7150   -2.3020  -56.1020 N.3   138  VAL138     -0.1245
    115  CA       -20.4980   -0.9300  -56.5230 C.3   138  VAL138      0.1561
    116  C        -19.6650   -1.0160  -57.8010 C.2   138  VAL138      0.2260
    117  O        -18.6560   -1.6970  -57.8120 O.2   138  VAL138     -0.2867
    118  CB       -19.7900   -0.1280  -55.4450 C.3   138  VAL138      0.0252
    119  CG1      -19.5170    1.2860  -55.9020 C.3   138  VAL138      0.0019
    120  CG2      -20.6440   -0.1550  -54.1560 C.3   138  VAL138      0.0019
    121  N        -15.0190    6.8460  -48.8940 N.3   151  HIS151     -0.1241
    122  CA       -15.6420    5.8570  -48.0520 C.3   151  HIS151      0.1621
    123  C        -15.2450    6.0250  -46.6070 C.2   151  HIS151      0.2264
    124  O        -14.0750    6.2550  -46.2940 O.2   151  HIS151     -0.2867
    125  CB       -15.2880    4.4540  -48.5450 C.3   151  HIS151      0.0745
    126  CG       -15.7510    4.1790  -49.9450 C.ar  151  HIS151      0.0817
    127  ND1      -16.5440    3.1020  -50.2750 N.ar  151  HIS151     -0.2268
    128  CD2      -15.5200    4.8410  -51.1060 C.ar  151  HIS151      0.1154
    129  CE1      -16.8020    3.1240  -51.5750 C.ar  151  HIS151      0.1986
    130  NE2      -16.2020    4.1780  -52.1000 N.ar  151  HIS151     -0.2212
    131  N        -15.7550    3.9510  -42.9570 N.3   153  TYR153     -0.1241
    132  CA       -16.1290    2.7180  -42.2740 C.3   153  TYR153      0.1605
    133  C        -15.9330    2.8590  -40.7580 C.2   153  TYR153      0.2264
    134  O        -14.8680    3.2850  -40.3030 O.2   153  TYR153     -0.2867
    135  CB       -15.2770    1.5490  -42.7610 C.3   153  TYR153      0.0534
    136  CG       -15.3060    1.3670  -44.2690 C.ar  153  TYR153     -0.0201
    137  CD1      -16.5020    1.1550  -44.9330 C.ar  153  TYR153     -0.0009
    138  CD2      -14.1390    1.4170  -45.0110 C.ar  153  TYR153     -0.0009
    139  CE1      -16.5360    1.0060  -46.3060 C.ar  153  TYR153      0.0417
    140  CE2      -14.1560    1.2660  -46.3880 C.ar  153  TYR153      0.0417
    141  CZ       -15.3510    1.0710  -47.0350 C.ar  153  TYR153      0.1957
    142  OH       -15.3550    0.9170  -48.4150 O.3   153  TYR153     -0.2866
    143  N        -12.5700   -1.8060  -40.5610 N.3   157  PHE157     -0.1241
    144  CA       -12.3770   -3.2260  -40.8180 C.3   157  PHE157      0.1605
    145  C        -11.5130   -3.4180  -42.0540 C.2   157  PHE157      0.2264
    146  O        -11.5240   -2.5890  -42.9650 O.2   157  PHE157     -0.2867
    147  CB       -13.7430   -3.9360  -40.9850 C.3   157  PHE157      0.0534
    148  CG       -14.5790   -3.4090  -42.1200 C.ar  157  PHE157     -0.0203
    149  CD1      -15.3990   -2.3090  -41.9450 C.ar  157  PHE157     -0.0042
    150  CD2      -14.5490   -4.0200  -43.3660 C.ar  157  PHE157     -0.0042
    151  CE1      -16.1720   -1.8310  -42.9870 C.ar  157  PHE157     -0.0003
    152  CE2      -15.3190   -3.5400  -44.4050 C.ar  157  PHE157     -0.0003
    153  CZ       -16.1240   -2.4570  -44.2220 C.ar  157  PHE157     -0.0000
    154  N         -8.8390   -6.8470  -47.5390 N.3   175  MET175     -0.1245
    155  CA        -8.6600   -5.6610  -48.3420 C.3   175  MET175      0.1570
    156  C         -7.3010   -5.0470  -48.0430 C.2   175  MET175      0.2261
    157  O         -6.8250   -5.0930  -46.9130 O.2   175  MET175     -0.2867
    158  CB        -9.7930   -4.6860  -48.0610 C.3   175  MET175      0.0387
    159  CG       -11.1680   -5.2890  -48.3880 C.3   175  MET175      0.0595
    160  SD       -12.4370   -5.0360  -47.1320 S.3   175  MET175     -0.1393
    161  CE       -13.5840   -4.0460  -48.0760 C.3   175  MET175      0.0692
@<TRIPOS>BOND
     1    43    42    2
     2    42    41    1
     3    41    44    1
     4    41    40    1
     5    44    45    1
     6     1     2    1
     7    45    47   ar
     8    45    46   ar
     9     2     5    1
    10     2     3    1
    11    50    47   ar
    12    50    52   ar
    13    54    55    1
    14     5     6    1
    15   117   116    2
    16    47    49   ar
    17   116   115    1
    18    57    56    2
    19    46    48   ar
    20     3     4    2
    21    52    53   ar
    22     8     6   ar
    23     8    10   ar
    24    56    55    1
    25     6     7   ar
    26    55    58    1
    27   115   114    1
    28   115   118    1
    29    49    48   ar
    30    49    51   ar
    31    10    11   ar
    32   119   118    1
    33    53    51   ar
    34    35    34    2
    35    58    59    1
    36   118   120    1
    37     7     9   ar
    38    34    33    1
    39    11     9   ar
    40    11    12    1
    41    33    36    1
    42    33    32    1
    43    36    37    1
    44   106   107    2
    45   106   105    1
    46    13    14    1
    47   103   101    1
    48    37    39    1
    49    37    38    1
    50   105   108    1
    51   105   104    1
    52   102   101    1
    53   108   109    1
    54   130   129   ar
    55   130   128   ar
    56    66    68   ar
    57    66    65   ar
    58    68    69   ar
    59    14    15    1
    60    14    17    1
    61   101   100    1
    62    60    61    1
    63   109   110   ar
    64   109   111   ar
    65   129   127   ar
    66    18    17    1
    67    18    19    1
    68   110   112   ar
    69    15    16    2
    70   111   113   ar
    71   128   126   ar
    72   112   113   ar
    73    65    64    1
    74    65    67   ar
    75    69    67   ar
    76    19    20    1
    77    99    98    2
    78   100    97    1
    79    64    61    1
    80    61    62    1
    81    98    97    1
    82   127   126   ar
    83   126   125    1
    84    97    96    1
    85    63    62    2
    86    20    21    2
    87    27    26    2
    88    26    25    1
    89   121   122    1
    90   125   122    1
    91   142   141    1
    92   159   158    1
    93   159   160    1
    94    96    87   am
    95   155   158    1
    96   155   156    1
    97   155   154    1
    98    21    22    1
    99    21    23    1
   100   161   160    1
   101   122   123    1
   102   156   157    2
   103    79    78   ar
   104    79    77   ar
   105    78    76   ar
   106    29    28    1
   107    29    30    1
   108    25    28    1
   109    25    24    1
   110    30    31    1
   111    87    88    2
   112    87    86    1
   113   141   140   ar
   114   141   139   ar
   115    77    75   ar
   116    76    75   ar
   117   123   124    2
   118   140   138   ar
   119   139   137   ar
   120    86    85    1
   121    86    89    1
   122    75    74    1
   123    83    82    2
   124    84    81    1
   125    85    82   am
   126    89    90    1
   127    82    81    1
   128   138   136   ar
   129    70    71    1
   130   137   136   ar
   131    74    71    1
   132    81    80    1
   133   152   153   ar
   134   152   150   ar
   135    71    72    1
   136   136   135    1
   137   153   151   ar
   138    90    92   ar
   139    90    91   ar
   140    92    94   ar
   141   150   148   ar
   142   151   149   ar
   143   146   145    2
   144   131   132    1
   145    72    73    2
   146   135   132    1
   147    91    93   ar
   148    94    95   ar
   149   132   133    1
   150   148   149   ar
   151   148   147    1
   152   145   144    1
   153    93    95   ar
   154   147   144    1
   155   144   143    1
   156   133   134    2
