@<TRIPOS>MOLECULE
tmp/4pj0B13.pdb
 75 74 0 0 0
SMALL
GASTEIGER

@<TRIPOS>ATOM
      1  N         42.2610   38.7430  -49.9990 N.3   181  ALA181     -0.1231
      2  CA        43.0700   39.9530  -49.9150 C.3   181  ALA181      0.1679
      3  C         42.1770   41.1890  -49.9320 C.2   181  ALA181      0.2434
      4  O         41.2040   41.2410  -50.6840 O.2   181  ALA181     -0.2733
      5  CB        44.0740   40.0040  -51.0580 C.3   181  ALA181      0.0304
      6  N         42.5060   42.1890  -49.1010 N.am  182  PRO182     -0.2718
      7  CA        41.6860   43.3990  -48.9730 C.3   182  PRO182      0.1535
      8  C         41.6040   44.2160  -50.2610 C.2   182  PRO182      0.2598
      9  O         42.5940   44.3500  -50.9790 O.2   182  PRO182     -0.2715
     10  CB        42.4030   44.1940  -47.8760 C.3   182  PRO182      0.0310
     11  CG        43.8030   43.6910  -47.8950 C.3   182  PRO182      0.0237
     12  CD        43.6920   42.2360  -48.2300 C.3   182  PRO182      0.0939
     13  N         40.4190   44.7470  -50.5420 N.am  183  GLU183     -0.1964
     14  CA        40.2200   45.6450  -51.6710 C.3   183  GLU183      0.1733
     15  C         40.2150   47.0880  -51.1810 C.2   183  GLU183      0.2616
     16  O         39.3080   47.5010  -50.4590 O.2   183  GLU183     -0.2715
     17  CB        38.9140   45.3250  -52.3980 C.3   183  GLU183      0.0429
     18  CG        38.6080   46.2600  -53.5550 C.3   183  GLU183      0.1163
     19  CD        39.5710   46.0930  -54.7100 C.2   183  GLU183      0.3649
     20  OE1       39.7020   44.9570  -55.2130 O.co2 183  GLU183     -0.2457
     21  OE2       40.1990   47.0950  -55.1110 O.co2 183  GLU183     -0.2457
     22  N         41.2290   47.8520  -51.5720 N.am  184  TRP184     -0.1960
     23  CA        41.3850   49.2100  -51.0670 C.3   184  TRP184      0.1771
     24  C         40.9510   50.2640  -52.0780 C.2   184  TRP184      0.2620
     25  O         40.9810   51.4610  -51.7910 O.2   184  TRP184     -0.2715
     26  CB        42.8350   49.4500  -50.6450 C.3   184  TRP184      0.0590
     27  CG        43.2300   48.6570  -49.4390 C.ar  184  TRP184      0.0006
     28  CD1       44.0490   47.5660  -49.4060 C.ar  184  TRP184      0.0946
     29  CD2       42.8080   48.8830  -48.0890 C.ar  184  TRP184      0.0152
     30  NE1       44.1710   47.1050  -48.1170 N.ar  184  TRP184     -0.2442
     31  CE2       43.4180   47.8960  -47.2900 C.ar  184  TRP184      0.0810
     32  CE3       41.9780   49.8270  -47.4770 C.ar  184  TRP184      0.0012
     33  CZ2       43.2230   47.8260  -45.9120 C.ar  184  TRP184      0.0191
     34  CZ3       41.7860   49.7560  -46.1090 C.ar  184  TRP184      0.0001
     35  CH2       42.4060   48.7620  -45.3420 C.ar  184  TRP184      0.0015
     36  N         40.5430   49.8180  -53.2610 N.am  185  GLY185     -0.1954
     37  CA        40.0180   50.7230  -54.2670 C.3   185  GLY185      0.1869
     38  C         38.5640   51.0520  -53.9910 C.2   185  GLY185      0.2309
     39  O         38.0140   50.6370  -52.9700 O.2   185  GLY185     -0.2863
     40  N         39.4280   45.9700  -41.2660 N.3   202  ILE202     -0.1231
     41  CA        40.7680   46.4960  -41.0240 C.3   202  ILE202      0.1692
     42  C         40.7200   48.0080  -40.8150 C.2   202  ILE202      0.2591
     43  O         41.2360   48.5240  -39.8240 O.2   202  ILE202     -0.2718
     44  CB        41.7290   46.1690  -42.1860 C.3   202  ILE202      0.0266
     45  CG1       42.0190   44.6680  -42.2330 C.3   202  ILE202      0.0019
     46  CG2       43.0290   46.9480  -42.0440 C.3   202  ILE202      0.0020
     47  CD1       42.9240   44.2550  -43.3740 C.3   202  ILE202      0.0001
     48  N         40.0860   48.7110  -41.7510 N.am  203  ALA203     -0.1980
     49  CA        40.0030   50.1680  -41.7010 C.3   203  ALA203      0.1597
     50  C         39.1260   50.6530  -40.5490 C.2   203  ALA203      0.2287
     51  O         39.5350   51.5180  -39.7740 O.2   203  ALA203     -0.2864
     52  CB        39.4800   50.7100  -43.0230 C.3   203  ALA203      0.0319
     53  N         40.7610   50.1100  -37.2280 N.3   206  ILE206     -0.1231
     54  CA        41.7030   51.1510  -36.8310 C.3   206  ILE206      0.1692
     55  C         40.9620   52.3600  -36.2700 C.2   206  ILE206      0.2591
     56  O         41.3350   52.9030  -35.2300 O.2   206  ILE206     -0.2718
     57  CB        42.5880   51.5920  -38.0130 C.3   206  ILE206      0.0266
     58  CG1       43.4710   50.4310  -38.4760 C.3   206  ILE206      0.0019
     59  CG2       43.4460   52.7870  -37.6260 C.3   206  ILE206      0.0020
     60  CD1       44.3870   50.7820  -39.6260 C.3   206  ILE206      0.0001
     61  N         39.9050   52.7660  -36.9660 N.am  207  VAL207     -0.1980
     62  CA        39.0730   53.8850  -36.5380 C.3   207  VAL207      0.1595
     63  C         38.4960   53.6440  -35.1450 C.2   207  VAL207      0.2287
     64  O         38.4760   54.5470  -34.3060 O.2   207  VAL207     -0.2864
     65  CB        37.9280   54.1360  -37.5390 C.3   207  VAL207      0.0276
     66  CG1       36.9390   55.1540  -36.9910 C.3   207  VAL207      0.0022
     67  CG2       38.4930   54.5980  -38.8720 C.3   207  VAL207      0.0022
     68  N         41.3090   54.1550  -32.6080 N.3   210  ILE210     -0.1245
     69  CA        41.5500   55.5830  -32.4350 C.3   210  ILE210      0.1561
     70  C         40.4330   56.2300  -31.6210 C.2   210  ILE210      0.2260
     71  O         40.6910   56.9330  -30.6430 O.2   210  ILE210     -0.2867
     72  CB        41.6690   56.3110  -33.7890 C.3   210  ILE210      0.0252
     73  CG1       42.7820   55.6940  -34.6390 C.3   210  ILE210      0.0019
     74  CG2       41.9170   57.7990  -33.5750 C.3   210  ILE210      0.0019
     75  CD1       44.1560   55.8080  -34.0230 C.3   210  ILE210      0.0001
@<TRIPOS>BOND
     1    20    19   ar
     2    21    19   ar
     3    19    18    1
     4    37    38    1
     5    37    36    1
     6    38    39    2
     7    18    17    1
     8    36    24   am
     9    17    14    1
    10    24    25    2
    11    24    23    1
    12    14    15    1
    13    14    13    1
    14    22    15   am
    15    22    23    1
    16    15    16    2
    17    23    26    1
    18     5     2    1
    19     9     8    2
    20     4     3    2
    21    26    27    1
    22    13     8   am
    23     8     7    1
    24     1     2    1
    25     3     2    1
    26     3     6   am
    27    27    28   ar
    28    27    29   ar
    29    28    30   ar
    30     6     7    1
    31     6    12    1
    32     7    10    1
    33    12    11    1
    34    30    31   ar
    35    29    32   ar
    36    29    31   ar
    37    11    10    1
    38    32    34   ar
    39    31    33   ar
    40    34    35   ar
    41    33    35   ar
    42    47    45    1
    43    52    49    1
    44    45    44    1
    45    44    46    1
    46    44    41    1
    47    48    49    1
    48    48    42   am
    49    49    50    1
    50    40    41    1
    51    41    42    1
    52    42    43    2
    53    50    51    2
    54    60    58    1
    55    67    65    1
    56    58    57    1
    57    57    59    1
    58    57    54    1
    59    65    66    1
    60    65    62    1
    61    53    54    1
    62    61    62    1
    63    61    55   am
    64    54    55    1
    65    62    63    1
    66    55    56    2
    67    63    64    2
    68    73    75    1
    69    73    72    1
    70    72    74    1
    71    72    69    1
    72    68    69    1
    73    69    70    1
    74    70    71    2
