@<TRIPOS>MOLECULE
tmp/4pj1J00.pdb
 186 177 0 0 0
SMALL
GASTEIGER

@<TRIPOS>ATOM
      1  N         48.9350  -93.5850   11.8830 N.3    30  THR30      -0.1203
      2  CA        49.5090  -94.1810   13.0840 C.3    30  THR30       0.1994
      3  C         49.0830  -95.6290   13.2990 C.2    30  THR30       0.2618
      4  O         49.6720  -96.3440   14.1100 O.2    30  THR30      -0.2717
      5  CB        49.1220  -93.3790   14.3400 C.3    30  THR30       0.1784
      6  OG1       47.7030  -93.4460   14.5330 O.3    30  THR30      -0.2211
      7  CG2       49.5470  -91.9250   14.2020 C.3    30  THR30       0.0376
      8  N         48.0530  -96.0550   12.5780 N.am   31  MET31      -0.1965
      9  CA        47.3740  -97.3020   12.9000 C.3    31  MET31       0.1736
     10  C         48.2050  -98.5490   12.5850 C.2    31  MET31       0.2617
     11  O         48.7910  -98.6680   11.5090 O.2    31  MET31      -0.2715
     12  CB        46.0400  -97.3660   12.1640 C.3    31  MET31       0.0427
     13  CG        45.2200  -98.5800   12.5050 C.3    31  MET31       0.0599
     14  SD        43.5450  -98.5080   11.8550 S.3    31  MET31      -0.1393
     15  CE        42.6080  -98.3990   13.3690 C.3    31  MET31       0.0692
     16  N         48.2330  -99.4770   13.5380 N.am   32  GLY32      -0.1941
     17  CA        48.8480 -100.7810   13.3640 C.3    32  GLY32       0.1998
     18  C         50.3610 -100.8200   13.4970 C.2    32  GLY32       0.2480
     19  O         51.0010  -99.7820   13.6540 O.2    32  GLY32      -0.2729
     20  N         50.9410 -102.0360   13.4300 N.am   33  PRO33      -0.2726
     21  CA        52.3780 -102.2840   13.6210 C.3    33  PRO33       0.1402
     22  C         53.2530 -101.5450   12.6080 C.2    33  PRO33       0.2269
     23  O         54.3600 -101.1150   12.9420 O.2    33  PRO33      -0.2865
     24  CB        52.4980 -103.8030   13.4260 C.3    33  PRO33       0.0296
     25  CG        51.2990 -104.1950   12.6480 C.3    33  PRO33       0.0237
     26  CD        50.2090 -103.2620   13.0770 C.3    33  PRO33       0.0939
     27  N         52.2740  -91.6450   18.4390 N.3    51  LYS51      -0.1231
     28  CA        51.5330  -92.6030   17.6300 C.3    51  LYS51       0.1693
     29  C         50.0880  -92.6570   18.1070 C.2    51  LYS51       0.2592
     30  O         49.2750  -93.4260   17.5920 O.2    51  LYS51      -0.2718
     31  CB        52.1800  -93.9880   17.7040 C.3    51  LYS51       0.0285
     32  CG        51.8710  -94.8970   16.5250 C.3    51  LYS51       0.0035
     33  CD        52.8490  -96.0600   16.4640 C.3    51  LYS51       0.0206
     34  CE        52.2740  -97.2310   15.6830 C.3    51  LYS51       0.1093
     35  NZ        51.1590  -97.8990   16.4090 N.3    51  LYS51      -0.1314
     36  N         49.7770  -91.8280   19.0990 N.am   52  ASP52      -0.1960
     37  CA        48.4540  -91.8180   19.7100 C.3    52  ASP52       0.1840
     38  C         47.4720  -91.0330   18.8550 C.2    52  ASP52       0.2622
     39  O         47.6640  -89.8430   18.6110 O.2    52  ASP52      -0.2715
     40  CB        48.5130  -91.2240   21.1180 C.3    52  ASP52       0.1450
     41  CG        48.7520  -92.2730   22.1800 C.2    52  ASP52       0.3671
     42  OD1       49.5980  -93.1620   21.9510 O.co2  52  ASP52      -0.2456
     43  OD2       48.0940  -92.2140   23.2420 O.co2  52  ASP52      -0.2456
     44  N         46.4240  -91.7080   18.3960 N.am   53  GLY53      -0.1954
     45  CA        45.3940  -91.0740   17.5970 C.3    53  GLY53       0.1869
     46  C         44.7540  -89.8700   18.2590 C.2    53  GLY53       0.2309
     47  O         44.6080  -88.8170   17.6380 O.2    53  GLY53      -0.2863
     48  N         42.5160  -96.8660   24.9440 N.3    87  ASP87      -0.1225
     49  CA        43.1510  -97.2260   23.6820 C.3    87  ASP87       0.1805
     50  C         42.1310  -97.0530   22.5580 C.2    87  ASP87       0.2598
     51  O         41.1560  -96.3180   22.7190 O.2    87  ASP87      -0.2718
     52  CB        43.6810  -98.6640   23.7380 C.3    87  ASP87       0.1424
     53  CG        44.8100  -98.9160   22.7520 C.2    87  ASP87       0.3668
     54  OD1       45.5340  -97.9570   22.4090 O.co2  87  ASP87      -0.2456
     55  OD2       44.9750 -100.0780   22.3220 O.co2  87  ASP87      -0.2456
     56  N         42.3380  -97.7390   21.4370 N.am   88  GLY88      -0.1942
     57  CA        41.3450  -97.7950   20.3770 C.3    88  GLY88       0.2014
     58  C         40.9560  -96.4450   19.7980 C.2    88  GLY88       0.2640
     59  O         39.8130  -96.2530   19.3870 O.2    88  GLY88      -0.2714
     60  N         41.8990  -95.5090   19.7570 N.am   89  THR89      -0.1936
     61  CA        41.5690  -94.1200   19.4350 C.3    89  THR89       0.2028
     62  C         41.5770  -93.8570   17.9330 C.2    89  THR89       0.2643
     63  O         40.5870  -93.3750   17.3730 O.2    89  THR89      -0.2714
     64  CB        42.5420  -93.1410   20.1120 C.3    89  THR89       0.1808
     65  OG1       43.8760  -93.6590   20.0450 O.3    89  THR89      -0.2208
     66  CG2       42.1500  -92.9250   21.5690 C.3    89  THR89       0.0379
     67  N         42.6980  -94.1750   17.2910 N.am   90  THR90      -0.1936
     68  CA        42.8010  -94.1560   15.8340 C.3    90  THR90       0.2028
     69  C         41.6230  -94.8940   15.2040 C.2    90  THR90       0.2642
     70  O         41.0380  -94.4370   14.2160 O.2    90  THR90      -0.2714
     71  CB        44.1220  -94.7920   15.3610 C.3    90  THR90       0.1808
     72  OG1       45.1980  -94.3470   16.1960 O.3    90  THR90      -0.2208
     73  CG2       44.4180  -94.4070   13.9210 C.3    90  THR90       0.0379
     74  N         41.2820  -96.0340   15.7920 N.am   91  THR91      -0.1950
     75  CA        40.1530  -96.8280   15.3310 C.3    91  THR91       0.1897
     76  C         38.8540  -96.0380   15.4310 C.2    91  THR91       0.2313
     77  O         38.0620  -96.0040   14.4890 O.2    91  THR91      -0.2863
     78  CB        40.0240  -98.1310   16.1430 C.3    91  THR91       0.1794
     79  OG1       41.3300  -98.6550   16.4180 O.3    91  THR91      -0.2208
     80  CG2       39.2160  -99.1660   15.3750 C.3    91  THR91       0.0378
     81  N         50.7700 -105.9990   22.0270 N.3   150  ILE150     -0.1231
     82  CA        50.1300 -105.5090   20.8090 C.3   150  ILE150      0.1692
     83  C         49.6990 -104.0560   20.9900 C.2   150  ILE150      0.2592
     84  O         49.7690 -103.2640   20.0510 O.2   150  ILE150     -0.2718
     85  CB        48.9200 -106.3870   20.3690 C.3   150  ILE150      0.0266
     86  CG1       47.7270 -106.2510   21.3200 C.3   150  ILE150      0.0019
     87  CG2       49.3410 -107.8420   20.2170 C.3   150  ILE150      0.0020
     88  CD1       46.6740 -105.2490   20.8550 C.3   150  ILE150      0.0001
     89  N         49.2450 -103.7050   22.1910 N.am  151  SER151     -0.1952
     90  CA        48.7950 -102.3410   22.4420 C.3   151  SER151      0.1924
     91  C         49.9860 -101.3930   22.5610 C.2   151  SER151      0.2314
     92  O         49.8370 -100.1760   22.4580 O.2   151  SER151     -0.2863
     93  CB        47.9360 -102.2790   23.7060 C.3   151  SER151      0.2116
     94  OG        47.5850 -100.9430   24.0180 O.3   151  SER151     -0.2180
     95  N         52.4840 -101.5490   20.4670 N.3   153  ASN153     -0.1240
     96  CA        53.0670 -101.5550   19.1270 C.3   153  ASN153      0.1653
     97  C         54.2510 -102.5200   19.0120 C.2   153  ASN153      0.2266
     98  O         55.3040 -102.1760   18.4730 O.2   153  ASN153     -0.2867
     99  CB        53.4910 -100.1360   18.7220 C.3   153  ASN153      0.1155
    100  CG        53.8300 -100.0200   17.2480 C.2   153  ASN153      0.2627
    101  OD1       53.1800 -100.6300   16.3990 O.2   153  ASN153     -0.2716
    102  ND2       54.8550  -99.2340   16.9370 N.am  153  ASN153     -0.0877
    103  N         48.9790  -96.6870   27.1580 N.3   399  ASP399     -0.1239
    104  CA        48.0010  -97.3360   26.2910 C.3   399  ASP399      0.1674
    105  C         47.8930  -98.8250   26.6030 C.2   399  ASP399      0.2266
    106  O         46.7940  -99.3580   26.7720 O.2   399  ASP399     -0.2867
    107  CB        48.3670  -97.1430   24.8180 C.3   399  ASP399      0.1410
    108  CG        48.0550  -95.7490   24.3160 C.2   399  ASP399      0.3668
    109  OD1       47.3350  -95.0070   25.0180 O.co2 399  ASP399     -0.2456
    110  OD2       48.5220  -95.4020   23.2110 O.co2 399  ASP399     -0.2456
    111  N         42.1970 -109.6590   17.2530 N.3   415  GLY415     -0.1210
    112  CA        42.9100 -108.4580   16.8520 C.3   415  GLY415      0.1956
    113  C         42.8120 -108.2390   15.3570 C.2   415  GLY415      0.2612
    114  O         41.9120 -108.7760   14.7030 O.2   415  GLY415     -0.2717
    115  N         43.7180 -107.4270   14.8200 N.am  416  GLY416     -0.1942
    116  CA        43.6720 -107.0550   13.4190 C.3   416  GLY416      0.2014
    117  C         42.5480 -106.0730   13.1280 C.2   416  GLY416      0.2639
    118  O         42.7840 -104.9620   12.6670 O.2   416  GLY416     -0.2714
    119  N         41.3150 -106.4930   13.3720 N.am  417  GLY417     -0.1954
    120  CA        40.1390 -105.6670   13.1650 C.3   417  GLY417      0.1869
    121  C         39.0820 -106.6680   12.7990 C.2   417  GLY417      0.2309
    122  O         37.9170 -106.3460   12.5650 O.2   417  GLY417     -0.2863
    123  N         38.7860 -100.7990    9.9280 N.3   451  PRO451     -0.2116
    124  CA        40.0380 -100.8780   10.6960 C.3   451  PRO451      0.1372
    125  C         41.0760 -101.8570   10.1470 C.2   451  PRO451      0.2244
    126  O         42.2790 -101.5670   10.1460 O.2   451  PRO451     -0.2868
    127  CB        39.5620 -101.3700   12.0670 C.3   451  PRO451      0.0268
    128  CG        38.1460 -100.9590   12.1420 C.3   451  PRO451      0.0207
    129  CD        37.6280 -101.1720   10.7590 C.3   451  PRO451      0.0892
    130  N         44.7740 -100.9570    8.6760 N.3   455  ILE455     -0.1245
    131  CA        46.0010 -101.5440    9.2090 C.3   455  ILE455      0.1561
    132  C         46.8090 -102.1980    8.0960 C.2   455  ILE455      0.2260
    133  O         48.0390 -102.1530    8.0950 O.2   455  ILE455     -0.2867
    134  CB        45.7010 -102.5570   10.3260 C.3   455  ILE455      0.0252
    135  CG1       45.2510 -101.7980   11.5670 C.3   455  ILE455      0.0019
    136  CG2       46.9420 -103.3390   10.7050 C.3   455  ILE455      0.0019
    137  CD1       44.4110 -102.5610   12.5060 C.3   455  ILE455      0.0001
    138  N         44.8290 -111.4810    9.3720 N.3   479  TYR479     -0.1227
    139  CA        46.0540 -111.0360    8.7160 C.3   479  TYR479      0.1736
    140  C         47.0610 -110.4300    9.6870 C.2   479  TYR479      0.2595
    141  O         46.7850 -109.4210   10.3350 O.2   479  TYR479     -0.2718
    142  CB        45.7260 -110.0240    7.6190 C.3   479  TYR479      0.0548
    143  CG        46.9280 -109.5650    6.8210 C.ar  479  TYR479     -0.0200
    144  CD1       47.6820 -110.4680    6.0840 C.ar  479  TYR479     -0.0009
    145  CD2       47.3000 -108.2270    6.7950 C.ar  479  TYR479     -0.0009
    146  CE1       48.7790 -110.0530    5.3490 C.ar  479  TYR479      0.0417
    147  CE2       48.3950 -107.8020    6.0620 C.ar  479  TYR479      0.0417
    148  CZ        49.1310 -108.7190    5.3420 C.ar  479  TYR479      0.1957
    149  OH        50.2220 -108.3010    4.6130 O.3   479  TYR479     -0.2866
    150  N         48.2300 -111.0550    9.7820 N.am  480  ASP480     -0.1960
    151  CA        49.3370 -110.4910   10.5400 C.3   480  ASP480      0.1840
    152  C         50.0700 -109.5190    9.6210 C.2   480  ASP480      0.2622
    153  O         50.8550 -109.9290    8.7550 O.2   480  ASP480     -0.2715
    154  CB        50.2690 -111.5930   11.0530 C.3   480  ASP480      0.1450
    155  CG        51.3530 -111.0730   11.9860 C.2   480  ASP480      0.3671
    156  OD1       51.7910 -109.9130   11.8400 O.co2 480  ASP480     -0.2456
    157  OD2       51.7710 -111.8400   12.8780 O.co2 480  ASP480     -0.2456
    158  N         49.7880 -108.2330    9.8050 N.am  481  ALA481     -0.1963
    159  CA        50.2960 -107.1940    8.9190 C.3   481  ALA481      0.1728
    160  C         51.7690 -106.8890    9.1540 C.2   481  ALA481      0.2616
    161  O         52.4480 -106.3710    8.2690 O.2   481  ALA481     -0.2715
    162  CB        49.4690 -105.9270    9.0800 C.3   481  ALA481      0.0334
    163  N         52.2660 -107.2040   10.3450 N.am  482  MET482     -0.1977
    164  CA        53.6820 -107.0130   10.6250 C.3   482  MET482      0.1605
    165  C         54.4960 -108.1100    9.9530 C.2   482  MET482      0.2287
    166  O         55.5170 -107.8430    9.3190 O.2   482  MET482     -0.2864
    167  CB        53.9440 -106.9940   12.1300 C.3   482  MET482      0.0413
    168  CG        55.4030 -106.7740   12.4910 C.3   482  MET482      0.0598
    169  SD        55.9530 -105.1020   12.0970 S.3   482  MET482     -0.1393
    170  CE        57.6670 -105.3920   11.6630 C.3   482  MET482      0.0692
    171  N         47.7750 -111.8560   18.3610 N.3   494  ILE494     -0.1245
    172  CA        47.1420 -110.6250   17.9000 C.3   494  ILE494      0.1561
    173  C         45.6970 -110.5580   18.4030 C.2   494  ILE494      0.2260
    174  O         44.7930 -111.1600   17.8190 O.2   494  ILE494     -0.2867
    175  CB        47.1690 -110.5130   16.3610 C.3   494  ILE494      0.0252
    176  CG1       48.6100 -110.4250   15.8580 C.3   494  ILE494      0.0019
    177  CG2       46.3640 -109.3090   15.8900 C.3   494  ILE494      0.0019
    178  CD1       48.9500 -111.4460   14.7950 C.3   494  ILE494      0.0001
    179  N         42.6620 -107.9930   20.7780 N.3   496  ASP496     -0.1239
    180  CA        42.2750 -106.6750   21.2720 C.3   496  ASP496      0.1674
    181  C         41.2910 -106.8370   22.4150 C.2   496  ASP496      0.2266
    182  O         40.4270 -107.7080   22.3600 O.2   496  ASP496     -0.2867
    183  CB        41.6350 -105.8400   20.1600 C.3   496  ASP496      0.1410
    184  CG        42.6270 -105.4030   19.1040 C.2   496  ASP496      0.3668
    185  OD1       43.8440 -105.4070   19.3820 O.co2 496  ASP496     -0.2456
    186  OD2       42.1850 -105.0580   17.9890 O.co2 496  ASP496     -0.2456
@<TRIPOS>BOND
     1   149   148    1
     2   148   146   ar
     3   148   147   ar
     4   146   144   ar
     5   147   145   ar
     6   144   143   ar
     7   145   143   ar
     8   143   142    1
     9   142   139    1
    10   133   132    2
    11   132   131    1
    12   161   160    2
    13   130   131    1
    14   139   138    1
    15   139   140    1
    16   153   152    2
    17   159   162    1
    18   159   160    1
    19   159   158    1
    20   160   163   am
    21   131   134    1
    22   166   165    2
    23   152   158   am
    24   152   151    1
    25   140   150   am
    26   140   141    2
    27   150   151    1
    28   123   124    1
    29   123   129    1
    30   165   164    1
    31   126   125    2
    32   125   124    1
    33   134   136    1
    34   134   135    1
    35   163   164    1
    36   151   154    1
    37   164   167    1
    38   124   127    1
    39   129   128    1
    40   154   155    1
    41    11    10    2
    42   135   137    1
    43   170   169    1
    44   156   155   ar
    45    14    13    1
    46    14    15    1
    47     1     2    1
    48   155   157   ar
    49   127   128    1
    50   169   168    1
    51   167   168    1
    52    12    13    1
    53    12     9    1
    54   122   121    2
    55     8     9    1
    56     8     3   am
    57    10     9    1
    58    10    16   am
    59    22    23    2
    60    22    21    1
    61    25    26    1
    62    25    24    1
    63   118   117    2
    64   121   120    1
    65    26    20    1
    66     2     3    1
    67     2     5    1
    68   117   119   am
    69   117   116    1
    70   120   119    1
    71     3     4    2
    72    17    18    1
    73    17    16    1
    74   116   115    1
    75    24    21    1
    76    20    18   am
    77    20    21    1
    78    18    19    2
    79    73    71    1
    80     7     5    1
    81    70    69    2
    82     5     6    1
    83    77    76    2
    84   114   113    2
    85   178   176    1
    86   115   113   am
    87    69    74   am
    88    69    68    1
    89    75    76    1
    90    75    74    1
    91    75    78    1
    92   113   112    1
    93    71    68    1
    94    71    72    1
    95    80    78    1
    96    34    35    1
    97    34    33    1
    98    68    67    1
    99   176   175    1
   100   177   175    1
   101    78    79    1
   102   175   172    1
   103   101   100    2
   104    33    32    1
   105    32    31    1
   106   112   111    1
   107   102   100   am
   108   100    99    1
   109    67    62   am
   110    63    62    2
   111    30    29    2
   112    45    46    1
   113    45    44    1
   114    28    31    1
   115    28    29    1
   116    28    27    1
   117    47    46    2
   118   174   173    2
   119   172   171    1
   120   172   173    1
   121    62    61    1
   122   186   184   ar
   123    29    36   am
   124    44    38   am
   125    98    97    2
   126    39    38    2
   127    99    96    1
   128    38    37    1
   129    97    96    1
   130    36    37    1
   131   184   185   ar
   132   184   183    1
   133    96    95    1
   134    59    58    2
   135    61    60    1
   136    61    64    1
   137    37    40    1
   138    60    58   am
   139    58    57    1
   140    65    64    1
   141    84    83    2
   142    64    66    1
   143   183   180    1
   144    87    85    1
   145    85    82    1
   146    85    86    1
   147    57    56    1
   148   179   180    1
   149    82    83    1
   150    82    81    1
   151    88    86    1
   152    83    89   am
   153    40    41    1
   154   180   181    1
   155    56    50   am
   156    42    41   ar
   157    41    43   ar
   158    89    90    1
   159    55    53   ar
   160   182   181    2
   161    54    53   ar
   162    90    91    1
   163    90    93    1
   164    92    91    2
   165    50    51    2
   166    50    49    1
   167    53    52    1
   168   110   108   ar
   169    49    52    1
   170    49    48    1
   171    93    94    1
   172   108   107    1
   173   108   109   ar
   174   107   104    1
   175   104   105    1
   176   104   103    1
   177   105   106    2
