@<TRIPOS>MOLECULE
tmp/4pj6A00.pdb
 119 115 0 0 0
SMALL
GASTEIGER

@<TRIPOS>ATOM
      1  N         34.3040    2.0730   86.0470 N.3   113  TYR113     -0.1241
      2  CA        32.9140    2.5530   85.9470 C.3   113  TYR113      0.1605
      3  C         32.7060    3.6170   87.0250 C.2   113  TYR113      0.2264
      4  O         33.2060    3.4720   88.1430 O.2   113  TYR113     -0.2867
      5  CB        32.0080    1.3780   86.2060 C.3   113  TYR113      0.0534
      6  CG        30.5150    1.5780   86.0450 C.ar  113  TYR113     -0.0201
      7  CD1       29.9580    1.9200   84.7960 C.ar  113  TYR113     -0.0009
      8  CD2       29.6350    1.3320   87.1200 C.ar  113  TYR113     -0.0009
      9  CE1       28.5820    2.0440   84.6250 C.ar  113  TYR113      0.0417
     10  CE2       28.2680    1.4510   86.9590 C.ar  113  TYR113      0.0417
     11  CZ        27.7450    1.8090   85.7110 C.ar  113  TYR113      0.1957
     12  OH        26.3770    1.9420   85.5380 O.3   113  TYR113     -0.2866
     13  N         32.9450    7.4510   83.2900 N.3   134  GLN134     -0.1245
     14  CA        32.1800    6.5400   82.4640 C.3   134  GLN134      0.1566
     15  C         30.9100    6.3420   83.2640 C.2   134  GLN134      0.2260
     16  O         30.8840    5.5570   84.2110 O.2   134  GLN134     -0.2867
     17  CB        32.9430    5.2190   82.3070 C.3   134  GLN134      0.0367
     18  CG        32.2350    4.1460   81.5030 C.3   134  GLN134      0.0905
     19  CD        31.7990    4.6350   80.1480 C.2   134  GLN134      0.2608
     20  OE1       32.6070    5.1100   79.3550 O.2   134  GLN134     -0.2717
     21  NE2       30.5070    4.5200   79.8730 N.am  134  GLN134     -0.0878
     22  N         27.6290    5.9660   81.8130 N.3   136  GLU136     -0.1231
     23  CA        26.5860    5.2060   81.1270 C.3   136  GLU136      0.1684
     24  C         26.6800    3.7620   81.5790 C.2   136  GLU136      0.2434
     25  O         27.7560    3.1540   81.5110 O.2   136  GLU136     -0.2733
     26  CB        26.7440    5.3090   79.6110 C.3   136  GLU136      0.0402
     27  CG        25.6850    4.5550   78.8020 C.3   136  GLU136      0.1161
     28  CD        25.7170    4.8400   77.2950 C.2   136  GLU136      0.3649
     29  OE1       26.8040    5.0950   76.7060 O.co2 136  GLU136     -0.2457
     30  OE2       24.6210    4.7970   76.6890 O.co2 136  GLU136     -0.2457
     31  N         25.5650    3.2080   82.0770 N.am  137  PRO137     -0.2729
     32  CA        24.2470    3.8390   82.2490 C.3   137  PRO137      0.1401
     33  C         23.9720    4.5490   83.5820 C.2   137  PRO137      0.2269
     34  O         23.5570    5.6970   83.5810 O.2   137  PRO137     -0.2865
     35  CB        23.2870    2.6580   82.0890 C.3   137  PRO137      0.0296
     36  CG        24.0550    1.4920   82.6180 C.3   137  PRO137      0.0237
     37  CD        25.5310    1.7570   82.3680 C.3   137  PRO137      0.0939
     38  N         35.0390    3.6680   77.2570 N.3   270  ALA270     -0.1231
     39  CA        34.9460    4.4180   75.9990 C.3   270  ALA270      0.1694
     40  C         33.4880    4.7380   75.6420 C.2   270  ALA270      0.2592
     41  O         32.6820    3.8170   75.5030 O.2   270  ALA270     -0.2718
     42  CB        35.6340    3.6680   74.8620 C.3   270  ALA270      0.0304
     43  N         33.1650    6.0410   75.5150 N.am  271  MET271     -0.1965
     44  CA        31.7950    6.5520   75.1950 C.3   271  MET271      0.1736
     45  C         31.7270    8.0050   74.6690 C.2   271  MET271      0.2616
     46  O         32.7500    8.6880   74.5910 O.2   271  MET271     -0.2715
     47  CB        30.8660    6.4380   76.3910 C.3   271  MET271      0.0427
     48  CG        30.9830    7.6380   77.2960 C.3   271  MET271      0.0599
     49  SD        29.4440    7.7700   78.1770 S.3   271  MET271     -0.1393
     50  CE        28.2390    7.9920   76.8140 C.3   271  MET271      0.0692
     51  N         30.5040    8.4450   74.3450 N.am  272  GLU272     -0.1977
     52  CA        30.2290    9.6560   73.5620 C.3   272  GLU272      0.1602
     53  C         29.8920   10.9370   74.3620 C.2   272  GLU272      0.2287
     54  O         29.1340   11.7910   73.8720 O.2   272  GLU272     -0.2864
     55  CB        29.1180    9.3680   72.5260 C.3   272  GLU272      0.0415
     56  CG        27.7070    9.1550   73.1000 C.3   272  GLU272      0.1163
     57  CD        27.4140    7.7280   73.5400 C.2   272  GLU272      0.3649
     58  OE1       28.0610    6.7610   73.0640 O.co2 272  GLU272     -0.2457
     59  OE2       26.5050    7.5610   74.3710 O.co2 272  GLU272     -0.2457
     60  N         30.8630    6.7800   64.7910 N.3   305  HIS305     -0.1226
     61  CA        29.8910    6.3000   65.7300 C.3   305  HIS305      0.1752
     62  C         29.7960    7.3450   66.8240 C.2   305  HIS305      0.2595
     63  O         28.7490    7.9340   67.0160 O.2   305  HIS305     -0.2718
     64  CB        30.2800    4.9110   66.2900 C.3   305  HIS305      0.0759
     65  CG        29.3020    4.3580   67.2910 C.ar  305  HIS305      0.0818
     66  ND1       28.2450    3.5550   66.9310 N.ar  305  HIS305     -0.2268
     67  CD2       29.2200    4.5000   68.6350 C.ar  305  HIS305      0.1154
     68  CE1       27.5530    3.2300   68.0110 C.ar  305  HIS305      0.1986
     69  NE2       28.1220    3.7910   69.0590 N.ar  305  HIS305     -0.2212
     70  N         30.8960    7.6050   67.5120 N.am  306  GLU306     -0.1979
     71  CA        30.8320    8.4790   68.6820 C.3   306  GLU306      0.1602
     72  C         30.3860    9.8950   68.3180 C.2   306  GLU306      0.2287
     73  O         29.7440   10.5550   69.1240 O.2   306  GLU306     -0.2864
     74  CB        32.1450    8.4780   69.5080 C.3   306  GLU306      0.0415
     75  CG        32.6770    7.1280   70.0010 C.3   306  GLU306      0.1163
     76  CD        31.6700    6.3200   70.7920 C.2   306  GLU306      0.3649
     77  OE1       31.0770    6.8520   71.7540 O.co2 306  GLU306     -0.2457
     78  OE2       31.4730    5.1260   70.4560 O.co2 306  GLU306     -0.2457
     79  N         21.9700    3.8870   69.4060 N.3   328  GLU328     -0.1245
     80  CA        23.1040    3.0440   69.0580 C.3   328  GLU328      0.1567
     81  C         22.8790    2.4280   67.7070 C.2   328  GLU328      0.2260
     82  O         23.8420    2.1690   66.9650 O.2   328  GLU328     -0.2867
     83  CB        23.3240    1.9470   70.0950 C.3   328  GLU328      0.0388
     84  CG        23.7180    2.4840   71.4630 C.3   328  GLU328      0.1160
     85  CD        25.0820    3.1560   71.5020 C.2   328  GLU328      0.3649
     86  OE1       25.9140    3.0140   70.5640 O.co2 328  GLU328     -0.2457
     87  OE2       25.3290    3.8360   72.5150 O.co2 328  GLU328     -0.2457
     88  N         21.3870   -3.0230   82.1570 N.3   382  GLU382     -0.1245
     89  CA        22.6700   -3.5200   81.5980 C.3   382  GLU382      0.1567
     90  C         22.5660   -4.5920   80.4640 C.2   382  GLU382      0.2260
     91  O         23.5150   -4.7810   79.6820 O.2   382  GLU382     -0.2867
     92  CB        23.6470   -3.9330   82.7120 C.3   382  GLU382      0.0388
     93  CG        24.4990   -2.7630   83.2150 C.3   382  GLU382      0.1160
     94  CD        25.7660   -2.5170   82.3770 C.2   382  GLU382      0.3649
     95  OE1       25.7880   -1.6150   81.5010 O.co2 382  GLU382     -0.2457
     96  OE2       26.7700   -3.2330   82.5950 O.co2 382  GLU382     -0.2457
     97  N         22.7090   -3.4240   76.5300 N.3   385  PHE385     -0.1241
     98  CA        23.9840   -3.1420   75.8820 C.3   385  PHE385      0.1605
     99  C         24.4890   -4.3440   75.0770 C.2   385  PHE385      0.2264
    100  O         25.4690   -4.9710   75.4620 O.2   385  PHE385     -0.2867
    101  CB        25.0090   -2.6730   76.9280 C.3   385  PHE385      0.0534
    102  CG        24.6580   -1.3630   77.5500 C.ar  385  PHE385     -0.0203
    103  CD1       23.7940   -1.3070   78.6360 C.ar  385  PHE385     -0.0042
    104  CD2       25.1630   -0.1780   77.0340 C.ar  385  PHE385     -0.0042
    105  CE1       23.4470   -0.0880   79.2030 C.ar  385  PHE385     -0.0003
    106  CE2       24.8190    1.0420   77.6030 C.ar  385  PHE385     -0.0003
    107  CZ        23.9600    1.0870   78.6890 C.ar  385  PHE385     -0.0000
    108  N         21.8560   -3.2320   68.6210 N.3   390  TYR390     -0.1241
    109  CA        22.4910   -2.1230   67.9060 C.3   390  TYR390      0.1605
    110  C         22.4730   -2.4310   66.4120 C.2   390  TYR390      0.2264
    111  O         21.9920   -1.6100   65.6100 O.2   390  TYR390     -0.2867
    112  CB        23.9480   -1.9190   68.3690 C.3   390  TYR390      0.0534
    113  CG        24.1640   -1.5690   69.8460 C.ar  390  TYR390     -0.0201
    114  CD1       23.1130   -1.6260   70.7850 C.ar  390  TYR390     -0.0009
    115  CD2       25.4480   -1.2280   70.3170 C.ar  390  TYR390     -0.0009
    116  CE1       23.3280   -1.3260   72.1330 C.ar  390  TYR390      0.0417
    117  CE2       25.6730   -0.9390   71.6660 C.ar  390  TYR390      0.0417
    118  CZ        24.6150   -0.9890   72.5740 C.ar  390  TYR390      0.1957
    119  OH        24.8370   -0.6980   73.9150 O.3   390  TYR390     -0.2866
@<TRIPOS>BOND
     1    60    61    1
     2   111   110    2
     3    61    64    1
     4    61    62    1
     5    64    65    1
     6   110   109    1
     7    62    63    2
     8    62    70   am
     9    66    65   ar
    10    66    68   ar
    11    82    81    2
    12    65    67   ar
    13    70    71    1
    14    81    80    1
    15   109   112    1
    16   109   108    1
    17    68    69   ar
    18    72    71    1
    19    72    73    2
    20   112   113    1
    21    67    69   ar
    22    71    74    1
    23    80    79    1
    24    80    83    1
    25    74    75    1
    26   113   115   ar
    27   113   114   ar
    28    75    76    1
    29    83    84    1
    30   115   117   ar
    31    78    76   ar
    32    86    85   ar
    33   114   116   ar
    34    76    77   ar
    35    84    85    1
    36    85    87   ar
    37   117   118   ar
    38   116   118   ar
    39    55    56    1
    40    55    52    1
    41   118   119    1
    42    58    57   ar
    43    56    57    1
    44    57    59   ar
    45    52    51    1
    46    52    53    1
    47    54    53    2
    48    51    45   am
    49    46    45    2
    50    45    44    1
    51    42    39    1
    52    99   100    2
    53    99    98    1
    54    44    43    1
    55    44    47    1
    56    41    40    2
    57    43    40   am
    58    40    39    1
    59    98    97    1
    60    98   101    1
    61    39    38    1
    62    47    48    1
    63    30    28   ar
    64    29    28   ar
    65    50    49    1
    66   101   102    1
    67   104   102   ar
    68   104   106   ar
    69    28    27    1
    70    48    49    1
    71   102   103   ar
    72   106   107   ar
    73   103   105   ar
    74   107   105   ar
    75    27    26    1
    76    20    19    2
    77    26    23    1
    78    91    90    2
    79    21    19   am
    80    19    18    1
    81    90    89    1
    82    23    24    1
    83    23    22    1
    84    95    94   ar
    85    18    17    1
    86    25    24    2
    87    24    31   am
    88    89    88    1
    89    89    92    1
    90    31    32    1
    91    31    37    1
    92    35    32    1
    93    35    36    1
    94    32    33    1
    95    17    14    1
    96    37    36    1
    97    94    96   ar
    98    94    93    1
    99    14    15    1
   100    14    13    1
   101    92    93    1
   102    15    16    2
   103    34    33    2
   104     9     7   ar
   105     9    11   ar
   106     7     6   ar
   107    12    11    1
   108    11    10   ar
   109     2     1    1
   110     2     5    1
   111     2     3    1
   112     6     5    1
   113     6     8   ar
   114    10     8   ar
   115     3     4    2
