@<TRIPOS>MOLECULE
tmp/4pjbC00.pdb
 175 171 0 0 0
SMALL
GASTEIGER

@<TRIPOS>ATOM
      1  N        -45.7230   41.6310  184.2790 N.3     8  TYR8       -0.1241
      2  CA       -45.8300   42.1140  185.6540 C.3     8  TYR8        0.1605
      3  C        -45.4810   43.5800  185.6640 C.2     8  TYR8        0.2264
      4  O        -44.4890   44.0050  185.0630 O.2     8  TYR8       -0.2867
      5  CB       -44.9650   41.3310  186.6330 C.3     8  TYR8        0.0534
      6  CG       -45.3830   39.8930  186.8240 C.ar    8  TYR8       -0.0201
      7  CD1      -46.3650   39.5510  187.7430 C.ar    8  TYR8       -0.0009
      8  CD2      -44.7680   38.8670  186.1150 C.ar    8  TYR8       -0.0009
      9  CE1      -46.7350   38.2300  187.9480 C.ar    8  TYR8        0.0417
     10  CE2      -45.1350   37.5380  186.3040 C.ar    8  TYR8        0.0417
     11  CZ       -46.1080   37.2210  187.2330 C.ar    8  TYR8        0.1957
     12  OH       -46.4340   35.9050  187.4590 O.3     8  TYR8       -0.2866
     13  N        -45.2810   47.3530  187.9270 N.3    10  ARG10      -0.1245
     14  CA       -45.0360   47.9940  189.2090 C.3    10  ARG10       0.1563
     15  C        -45.2180   49.4690  189.0270 C.2    10  ARG10       0.2260
     16  O        -44.8210   50.0190  187.9970 O.2    10  ARG10      -0.2867
     17  CB       -43.6540   47.6900  189.7550 C.3    10  ARG10       0.0307
     18  CG       -43.4990   46.2590  190.1880 C.3    10  ARG10       0.0489
     19  CD       -42.0850   45.9970  190.6350 C.3    10  ARG10       0.2205
     20  NE       -41.7380   44.6010  190.4180 N.pl3  10  ARG10      -0.0865
     21  CZ       -40.5910   44.0570  190.7580 C.cat  10  ARG10       0.5346
     22  NH1      -39.6610   44.7860  191.3630 N.pl3  10  ARG10       0.1354
     23  NH2      -40.3650   42.7750  190.5160 N.pl3  10  ARG10       0.1354
     24  N        -48.4440   46.4680  192.3280 N.3    25  SER25      -0.1217
     25  CA       -47.8300   45.5330  191.3860 C.3    25  SER25       0.1889
     26  C        -48.8530   44.4910  190.9710 C.2    25  SER25       0.2288
     27  O        -49.4370   43.8260  191.8270 O.2    25  SER25      -0.2866
     28  CB       -46.5690   44.8960  191.9470 C.3    25  SER25       0.2089
     29  OG       -45.9720   44.0540  190.9710 O.3    25  SER25      -0.2183
     30  N        -52.5740   38.4660  189.2230 N.3    35  THR35      -0.1203
     31  CA       -52.0810   38.6920  190.5700 C.3    35  THR35       0.1994
     32  C        -52.1520   40.1700  190.8790 C.2    35  THR35       0.2618
     33  O        -52.1430   41.0000  189.9650 O.2    35  THR35      -0.2717
     34  CB       -50.6210   38.1660  190.7210 C.3    35  THR35       0.1784
     35  OG1      -49.7240   38.9540  189.9290 O.3    35  THR35      -0.2211
     36  CG2      -50.4660   36.6840  190.3640 C.3    35  THR35       0.0376
     37  N        -52.2090   40.4990  192.1710 N.am   36  THR36      -0.1952
     38  CA       -52.2200   41.8660  192.6670 C.3    36  THR36       0.1897
     39  C        -51.4820   41.9570  193.9990 C.2    36  THR36       0.2313
     40  O        -51.5160   41.0190  194.8020 O.2    36  THR36      -0.2863
     41  CB       -53.6400   42.4760  192.6860 C.3    36  THR36       0.1794
     42  OG1      -53.5260   43.8940  192.7830 O.3    36  THR36      -0.2208
     43  CG2      -54.5160   41.9280  193.8080 C.3    36  THR36       0.0378
     44  N        -49.8710   39.6280  198.3440 N.3    44  LYS44      -0.1245
     45  CA       -50.0960   39.1840  196.9750 C.3    44  LYS44       0.1561
     46  C        -51.3820   38.3150  197.0090 C.2    44  LYS44       0.2260
     47  O        -51.5060   37.3700  197.8000 O.2    44  LYS44      -0.2867
     48  CB       -48.9050   38.3960  196.4210 C.3    44  LYS44       0.0271
     49  CG       -49.0700   37.9920  194.9750 C.3    44  LYS44       0.0035
     50  CD       -47.9380   37.1340  194.5090 C.3    44  LYS44       0.0206
     51  CE       -48.2090   36.4220  193.1990 C.3    44  LYS44       0.1093
     52  NZ       -46.9900   35.7040  192.6810 N.3    44  LYS44      -0.1314
     53  N        -46.6360   29.6320  197.6100 N.3    59  HIS59      -0.1241
     54  CA       -46.4180   30.5240  196.4740 C.3    59  HIS59       0.1621
     55  C        -46.8310   31.9540  196.8090 C.2    59  HIS59       0.2264
     56  O        -46.1060   32.8990  196.4910 O.2    59  HIS59      -0.2867
     57  CB       -47.1730   30.0400  195.2350 C.3    59  HIS59       0.0745
     58  CG       -47.1500   31.0300  194.1090 C.ar   59  HIS59       0.0817
     59  ND1      -46.0740   31.1100  193.2470 N.ar   59  HIS59      -0.2268
     60  CD2      -48.0660   31.9690  193.7610 C.ar   59  HIS59       0.1154
     61  CE1      -46.3780   32.0730  192.3920 C.ar   59  HIS59       0.1986
     62  NE2      -47.5630   32.6300  192.6730 N.ar   59  HIS59      -0.2212
     63  N        -43.8800   34.9310  197.4950 N.3    63  TYR63      -0.1241
     64  CA       -43.9850   36.1220  196.6610 C.3    63  TYR63       0.1605
     65  C        -44.4800   37.4040  197.3580 C.2    63  TYR63       0.2264
     66  O        -44.1350   38.4800  196.8950 O.2    63  TYR63      -0.2867
     67  CB       -44.6960   35.8220  195.3520 C.3    63  TYR63       0.0534
     68  CG       -43.7790   35.2160  194.3100 C.ar   63  TYR63      -0.0201
     69  CD1      -42.9170   36.0140  193.5630 C.ar   63  TYR63      -0.0009
     70  CD2      -43.7960   33.8490  194.0460 C.ar   63  TYR63      -0.0009
     71  CE1      -42.0790   35.4640  192.5990 C.ar   63  TYR63       0.0417
     72  CE2      -43.0060   33.2950  193.0430 C.ar   63  TYR63       0.0417
     73  CZ       -42.1430   34.1050  192.3200 C.ar   63  TYR63       0.1957
     74  OH       -41.3070   33.5590  191.3530 O.3    63  TYR63      -0.2866
     75  N        -42.6000   40.7640  197.4650 N.3    67  LEU67      -0.1245
     76  CA       -43.2480   42.0120  197.0630 C.3    67  LEU67       0.1561
     77  C        -43.0180   43.1720  197.9780 C.2    67  LEU67       0.2260
     78  O        -42.8700   44.2940  197.5330 O.2    67  LEU67      -0.2867
     79  CB       -44.7200   41.8150  196.6450 C.3    67  LEU67       0.0270
     80  CG       -44.8820   41.3030  195.1570 C.3    67  LEU67       0.0019
     81  CD1      -46.1240   40.4460  194.9760 C.3    67  LEU67       0.0001
     82  CD2      -44.7530   42.4260  194.1370 C.3    67  LEU67       0.0001
     83  N        -39.4890   44.3760  197.0830 N.3    70  TRP70      -0.1241
     84  CA       -39.5900   45.0480  195.7950 C.3    70  TRP70       0.1605
     85  C        -40.2290   46.4410  195.9740 C.2    70  TRP70       0.2264
     86  O        -39.7470   47.4080  195.3730 O.2    70  TRP70      -0.2867
     87  CB       -40.3410   44.1750  194.7660 C.3    70  TRP70       0.0550
     88  CG       -39.5990   42.9400  194.3380 C.ar   70  TRP70       0.0003
     89  CD1      -38.2510   42.7460  194.3670 C.ar   70  TRP70       0.0946
     90  CD2      -40.1660   41.7400  193.7810 C.ar   70  TRP70       0.0152
     91  NE1      -37.9410   41.4820  193.9090 N.ar   70  TRP70      -0.2442
     92  CE2      -39.1010   40.8410  193.5480 C.ar   70  TRP70       0.0810
     93  CE3      -41.4650   41.3400  193.4510 C.ar   70  TRP70       0.0012
     94  CZ2      -39.3010   39.5710  193.0010 C.ar   70  TRP70       0.0191
     95  CZ3      -41.6630   40.0590  192.9620 C.ar   70  TRP70       0.0001
     96  CH2      -40.5890   39.1980  192.7250 C.ar   70  TRP70       0.0015
     97  N        -42.3700   49.9780  186.1090 N.3    95  ARG95      -0.1245
     98  CA       -41.6250   48.8400  185.6220 C.3    95  ARG95       0.1563
     99  C        -42.5770   47.8950  184.9730 C.2    95  ARG95       0.2260
    100  O        -43.6750   47.7110  185.4600 O.2    95  ARG95      -0.2867
    101  CB       -40.9030   48.1360  186.7890 C.3    95  ARG95       0.0307
    102  CG       -39.9680   46.9850  186.3930 C.3    95  ARG95       0.0489
    103  CD       -39.7600   46.1180  187.6020 C.3    95  ARG95       0.2205
    104  NE       -38.5250   45.3580  187.6110 N.pl3  95  ARG95      -0.0865
    105  CZ       -38.4260   44.0420  187.4510 C.cat  95  ARG95       0.5346
    106  NH1      -39.5000   43.3170  187.1710 N.pl3  95  ARG95       0.1354
    107  NH2      -37.2440   43.4510  187.5100 N.pl3  95  ARG95       0.1354
    108  N        -42.1670   43.9000  183.0780 N.3    97  ILE97      -0.1245
    109  CA       -41.3910   42.7250  182.7540 C.3    97  ILE97       0.1561
    110  C        -42.3320   41.7320  182.1680 C.2    97  ILE97       0.2260
    111  O        -43.5160   41.7580  182.4910 O.2    97  ILE97      -0.2867
    112  CB       -40.6140   42.1720  183.9690 C.3    97  ILE97       0.0252
    113  CG1      -39.4430   41.2410  183.5070 C.3    97  ILE97       0.0019
    114  CG2      -41.5600   41.5640  185.0660 C.3    97  ILE97       0.0019
    115  CD1      -38.6910   40.5660  184.5440 C.3    97  ILE97       0.0001
    116  N        -28.8320   36.7400  185.0970 N.3   153  TYR153     -0.1227
    117  CA       -30.0040   36.1950  185.7810 C.3   153  TYR153      0.1736
    118  C        -31.2970   36.7280  185.1020 C.2   153  TYR153      0.2595
    119  O        -32.2440   35.9550  184.8950 O.2   153  TYR153     -0.2718
    120  CB       -29.9710   36.5370  187.2870 C.3   153  TYR153      0.0548
    121  CG       -31.3620   36.7480  187.8420 C.ar  153  TYR153     -0.0200
    122  CD1      -32.1650   35.6640  188.1980 C.ar  153  TYR153     -0.0009
    123  CD2      -31.9180   38.0170  187.9120 C.ar  153  TYR153     -0.0009
    124  CE1      -33.4710   35.8450  188.6320 C.ar  153  TYR153      0.0417
    125  CE2      -33.2280   38.2070  188.3270 C.ar  153  TYR153      0.0417
    126  CZ       -34.0000   37.1200  188.6910 C.ar  153  TYR153      0.1957
    127  OH       -35.2900   37.3220  189.1160 O.3   153  TYR153     -0.2866
    128  N        -31.3200   38.0650  184.7880 N.am  154  GLN154     -0.1979
    129  CA       -32.4400   38.7510  184.1290 C.3   154  GLN154      0.1601
    130  C        -32.6920   38.1630  182.7740 C.2   154  GLN154      0.2287
    131  O        -33.8320   37.9380  182.4550 O.2   154  GLN154     -0.2864
    132  CB       -32.2390   40.2730  184.0530 C.3   154  GLN154      0.0394
    133  CG       -33.0880   41.0380  185.0760 C.3   154  GLN154      0.0908
    134  CD       -32.4890   42.3220  185.6140 C.2   154  GLN154      0.2608
    135  OE1      -33.1250   43.0210  186.4140 O.2   154  GLN154     -0.2717
    136  NE2      -31.2490   42.6560  185.2410 N.am  154  GLN154     -0.0878
    137  N        -34.2120   34.6080  183.3260 N.3   157  TRP157     -0.1241
    138  CA       -35.5880   34.6640  183.7690 C.3   157  TRP157      0.1605
    139  C        -36.5160   34.8720  182.5910 C.2   157  TRP157      0.2264
    140  O        -37.4390   34.0660  182.3730 O.2   157  TRP157     -0.2867
    141  CB       -35.8210   35.7140  184.8680 C.3   157  TRP157      0.0550
    142  CG       -37.1490   35.5050  185.5380 C.ar  157  TRP157      0.0003
    143  CD1      -37.4290   34.6080  186.5310 C.ar  157  TRP157      0.0946
    144  CD2      -38.4100   36.0640  185.1360 C.ar  157  TRP157      0.0152
    145  NE1      -38.7850   34.5770  186.7760 N.ar  157  TRP157     -0.2442
    146  CE2      -39.4080   35.4770  185.9470 C.ar  157  TRP157      0.0810
    147  CE3      -38.7960   37.0010  184.1660 C.ar  157  TRP157      0.0012
    148  CZ2      -40.7720   35.7870  185.7990 C.ar  157  TRP157      0.0191
    149  CZ3      -40.1400   37.3310  184.0460 C.ar  157  TRP157      0.0001
    150  CH2      -41.1090   36.7340  184.8610 C.ar  157  TRP157      0.0015
    151  N        -43.5450   29.7950  183.3420 N.3   165  TRP165     -0.1241
    152  CA       -44.7150   30.2260  184.1300 C.3   165  TRP165      0.1605
    153  C        -45.8900   30.4450  183.2030 C.2   165  TRP165      0.2264
    154  O        -46.9810   29.9600  183.4790 O.2   165  TRP165     -0.2867
    155  CB       -44.4530   31.5430  184.8750 C.3   165  TRP165      0.0550
    156  CG       -43.6990   31.4390  186.1650 C.ar  165  TRP165      0.0003
    157  CD1      -42.4550   31.9310  186.4220 C.ar  165  TRP165      0.0946
    158  CD2      -44.1810   30.8950  187.4040 C.ar  165  TRP165      0.0152
    159  NE1      -42.1270   31.7210  187.7500 N.ar  165  TRP165     -0.2442
    160  CE2      -43.1760   31.1060  188.3770 C.ar  165  TRP165      0.0810
    161  CE3      -45.3640   30.2590  187.7880 C.ar  165  TRP165      0.0012
    162  CZ2      -43.3260   30.7140  189.7110 C.ar  165  TRP165      0.0191
    163  CZ3      -45.5360   29.9300  189.1250 C.ar  165  TRP165      0.0001
    164  CH2      -44.5100   30.1190  190.0630 C.ar  165  TRP165      0.0015
    165  N        -49.6560   28.8710  183.6160 N.3   169  PHE169     -0.1241
    166  CA       -50.8650   29.6850  183.7110 C.3   169  PHE169      0.1605
    167  C        -51.8330   29.3990  182.5850 C.2   169  PHE169      0.2264
    168  O        -53.0250   29.2890  182.8490 O.2   169  PHE169     -0.2867
    169  CB       -50.5200   31.1670  183.7740 C.3   169  PHE169      0.0534
    170  CG       -49.6280   31.6000  184.9180 C.ar  169  PHE169     -0.0203
    171  CD1      -49.5290   30.8340  186.0800 C.ar  169  PHE169     -0.0042
    172  CD2      -48.9550   32.8190  184.8720 C.ar  169  PHE169     -0.0042
    173  CE1      -48.7280   31.2620  187.1600 C.ar  169  PHE169     -0.0003
    174  CE2      -48.1580   33.2450  185.9540 C.ar  169  PHE169     -0.0003
    175  CZ       -48.0510   32.4670  187.0900 C.ar  169  PHE169     -0.0000
@<TRIPOS>BOND
     1   110   111    2
     2   110   109    1
     3   140   139    2
     4   131   130    2
     5   167   168    2
     6   167   166    1
     7   139   138    1
     8   109   108    1
     9   109   112    1
    10   130   129    1
    11   153   154    2
    12   153   152    1
    13   137   138    1
    14   151   152    1
    15   113   112    1
    16   113   115    1
    17   165   166    1
    18   166   169    1
    19   138   141    1
    20   169   170    1
    21   112   114    1
    22   149   147   ar
    23   149   150   ar
    24   132   129    1
    25   132   133    1
    26   129   128    1
    27   152   155    1
    28   147   144   ar
    29     1     2    1
    30   128   118   am
    31   150   148   ar
    32   141   142    1
    33   172   170   ar
    34   172   174   ar
    35   155   156    1
    36   119   118    2
    37   170   171   ar
    38    99   100    2
    39    99    98    1
    40     4     3    2
    41   133   134    1
    42   116   117    1
    43   118   117    1
    44   144   142   ar
    45   144   146   ar
    46   136   134   am
    47   142   143   ar
    48   134   135    2
    49    98    97    1
    50    98   101    1
    51     2     3    1
    52     2     5    1
    53   117   120    1
    54   148   146   ar
    55   146   145   ar
    56   174   175   ar
    57   171   173   ar
    58     8    10   ar
    59     8     6   ar
    60   156   157   ar
    61   156   158   ar
    62    10    11   ar
    63   102   101    1
    64   102   103    1
    65   157   159   ar
    66   143   145   ar
    67     5     6    1
    68     6     7   ar
    69   175   173   ar
    70   106   105    1
    71    11    12    1
    72    11     9   ar
    73   120   121    1
    74   158   161   ar
    75   158   160   ar
    76   105   107    1
    77   105   104    2
    78   103   104    1
    79     7     9   ar
    80   159   160   ar
    81   161   163   ar
    82   121   123   ar
    83   121   122   ar
    84   123   125   ar
    85    13    14    1
    86    16    15    2
    87   122   124   ar
    88   125   126   ar
    89   160   162   ar
    90   124   126   ar
    91   126   127    1
    92    15    14    1
    93   163   164   ar
    94    14    17    1
    95    30    31    1
    96   162   164   ar
    97    17    18    1
    98    35    34    1
    99    33    32    2
   100    18    19    1
   101    36    34    1
   102    20    19    1
   103    20    21    2
   104    23    21    1
   105    31    34    1
   106    31    32    1
   107    21    22    1
   108    32    37   am
   109    26    25    1
   110    26    27    2
   111    29    28    1
   112    74    73    1
   113    25    28    1
   114    25    24    1
   115    37    38    1
   116    73    71   ar
   117    73    72   ar
   118    61    62   ar
   119    61    59   ar
   120    71    69   ar
   121    38    41    1
   122    38    39    1
   123    62    60   ar
   124    52    51    1
   125    41    42    1
   126    41    43    1
   127    96    95   ar
   128    96    94   ar
   129    95    93   ar
   130    94    92   ar
   131    72    70   ar
   132    51    50    1
   133    59    58   ar
   134    93    90   ar
   135    92    90   ar
   136    92    91   ar
   137    69    68   ar
   138    60    58   ar
   139    90    88   ar
   140    91    89   ar
   141    39    40    2
   142    70    68   ar
   143    58    57    1
   144    82    80    1
   145    68    67    1
   146    88    89   ar
   147    88    87    1
   148    50    49    1
   149    87    84    1
   150    49    48    1
   151    81    80    1
   152    80    79    1
   153    57    54    1
   154    67    64    1
   155    86    85    2
   156    84    85    1
   157    84    83    1
   158    48    45    1
   159    54    55    1
   160    54    53    1
   161    56    55    2
   162    79    76    1
   163    64    65    1
   164    64    63    1
   165    66    65    2
   166    45    46    1
   167    45    44    1
   168    46    47    2
   169    76    75    1
   170    76    77    1
   171    78    77    2
