@<TRIPOS>MOLECULE
tmp/4pjbA00.pdb
 187 184 0 0 0
SMALL
GASTEIGER

@<TRIPOS>ATOM
      1  N         -1.2930   65.4060  168.6290 N.3     8  TYR8       -0.1241
      2  CA        -1.6840   65.1280  167.2620 C.3     8  TYR8        0.1605
      3  C         -2.2910   63.7490  167.2410 C.2     8  TYR8        0.2264
      4  O         -1.7570   62.8000  167.8090 O.2     8  TYR8       -0.2867
      5  CB        -0.5130   65.2420  166.2960 C.3     8  TYR8        0.0534
      6  CG         0.0080   66.6520  166.1070 C.ar    8  TYR8       -0.0201
      7  CD1       -0.5730   67.5160  165.1850 C.ar    8  TYR8       -0.0009
      8  CD2        1.1010   67.1100  166.8270 C.ar    8  TYR8       -0.0009
      9  CE1       -0.0880   68.8110  165.0070 C.ar    8  TYR8        0.0417
     10  CE2        1.6030   68.3910  166.6450 C.ar    8  TYR8        0.0417
     11  CZ         1.0120   69.2390  165.7300 C.ar    8  TYR8        0.1957
     12  OH         1.5360   70.4950  165.5340 O.3     8  TYR8       -0.2866
     13  N         -4.3570   60.6480  164.8950 N.3    10  ARG10      -0.1245
     14  CA        -4.5620   60.0160  163.6010 C.3    10  ARG10       0.1563
     15  C         -5.6170   58.9390  163.7670 C.2    10  ARG10       0.2260
     16  O         -5.6410   58.2250  164.7700 O.2    10  ARG10      -0.2867
     17  CB        -3.2830   59.4220  163.0420 C.3    10  ARG10       0.0307
     18  CG        -2.2830   60.4650  162.6270 C.3    10  ARG10       0.0489
     19  CD        -1.0040   59.8190  162.1880 C.3    10  ARG10       0.2205
     20  NE         0.1380   60.6860  162.4370 N.pl3  10  ARG10      -0.0865
     21  CZ         1.3940   60.4070  162.0850 C.cat  10  ARG10       0.5346
     22  NH1        1.6770   59.2880  161.4370 N.pl3  10  ARG10       0.1354
     23  NH2        2.3770   61.2470  162.3810 N.pl3  10  ARG10       0.1354
     24  N         -6.3540   63.3760  160.5620 N.3    25  SER25      -0.1217
     25  CA        -5.2960   63.7230  161.5100 C.3    25  SER25       0.1889
     26  C         -5.4800   65.1710  161.9520 C.2    25  SER25       0.2288
     27  O         -5.5270   66.0740  161.1120 O.2    25  SER25      -0.2866
     28  CB        -3.9080   63.4680  160.9460 C.3    25  SER25       0.2089
     29  OG        -2.9340   63.7490  161.9390 O.3    25  SER25      -0.2183
     30  N         -4.8630   72.1930  163.8420 N.3    35  THR35      -0.1203
     31  CA        -4.6120   71.7340  162.4840 C.3    35  THR35       0.1994
     32  C         -5.5700   70.5970  162.1370 C.2    35  THR35       0.2619
     33  O         -6.0660   69.9040  163.0260 O.2    35  THR35      -0.2717
     34  CB        -3.1520   71.2800  162.3290 C.3    35  THR35       0.1784
     35  OG1       -2.9220   70.1040  163.1150 O.3    35  THR35      -0.2211
     36  CG2       -2.1480   72.3650  162.7030 C.3    35  THR35       0.0376
     37  N         -5.8140   70.4090  160.8450 N.am   36  THR36      -0.1938
     38  CA        -6.6310   69.3340  160.3390 C.3    36  THR36       0.2028
     39  C         -6.0930   68.8460  158.9880 C.2    36  THR36       0.2642
     40  O         -5.5660   69.6360  158.2030 O.2    36  THR36      -0.2714
     41  CB        -8.1260   69.6860  160.3250 C.3    36  THR36       0.1808
     42  OG1       -8.8840   68.4760  160.2070 O.3    36  THR36      -0.2208
     43  CG2       -8.5070   70.6690  159.2030 C.3    36  THR36       0.0379
     44  N         -6.2080   67.5280  158.7520 N.am   37  TYR37      -0.1973
     45  CA        -5.8670   66.8470  157.5170 C.3    37  TYR37       0.1639
     46  C         -6.7920   65.6580  157.4190 C.2    37  TYR37       0.2290
     47  O         -7.1070   65.0450  158.4450 O.2    37  TYR37      -0.2864
     48  CB        -4.3880   66.3750  157.4770 C.3    37  TYR37       0.0560
     49  CG        -4.0780   65.5370  156.2480 C.ar   37  TYR37      -0.0198
     50  CD1       -3.6120   66.1280  155.0780 C.ar   37  TYR37      -0.0009
     51  CD2       -4.3270   64.1640  156.2310 C.ar   37  TYR37      -0.0009
     52  CE1       -3.3840   65.3740  153.9250 C.ar   37  TYR37       0.0417
     53  CE2       -4.1270   63.4050  155.0810 C.ar   37  TYR37       0.0417
     54  CZ        -3.6490   64.0120  153.9300 C.ar   37  TYR37       0.1957
     55  OH        -3.4580   63.2560  152.7990 O.3    37  TYR37      -0.2866
     56  N         -3.3450   69.8250  154.6850 N.3    44  LYS44      -0.1245
     57  CA        -3.2380   70.2740  156.0730 C.3    44  LYS44       0.1561
     58  C         -3.7210   71.7480  156.1010 C.2    44  LYS44       0.2260
     59  O         -3.1560   72.6120  155.4210 O.2    44  LYS44      -0.2867
     60  CB        -1.8010   70.1400  156.6170 C.3    44  LYS44       0.0271
     61  CG        -1.6510   70.6790  158.0280 C.3    44  LYS44       0.0035
     62  CD        -0.2260   70.7030  158.5640 C.3    44  LYS44       0.0206
     63  CE        -0.2520   71.3310  159.9370 C.3    44  LYS44       0.1093
     64  NZ         1.0590   71.3400  160.6660 N.3    44  LYS44      -0.1314
     65  N          5.2580   75.7700  155.4790 N.3    59  HIS59      -0.1241
     66  CA         4.8960   74.9050  156.6080 C.3    59  HIS59       0.1621
     67  C          3.7200   74.0060  156.2540 C.2    59  HIS59       0.2264
     68  O          3.7370   72.8110  156.5540 O.2    59  HIS59      -0.2867
     69  CB         4.5700   75.7220  157.8660 C.3    59  HIS59       0.0745
     70  CG         3.9790   74.8950  158.9720 C.ar   59  HIS59       0.0817
     71  ND1        4.7760   74.1730  159.8380 N.ar   59  HIS59      -0.2268
     72  CD2        2.6850   74.6940  159.3040 C.ar   59  HIS59       0.1154
     73  CE1        3.9460   73.5750  160.6760 C.ar   59  HIS59       0.1986
     74  NE2        2.6780   73.8480  160.3870 N.ar   59  HIS59      -0.2212
     75  N          4.2540   69.8360  155.5250 N.3    63  TYR63      -0.1241
     76  CA         3.4580   68.9410  156.3440 C.3    63  TYR63       0.1605
     77  C          2.2920   68.2390  155.6140 C.2    63  TYR63       0.2264
     78  O          1.8580   67.1750  156.0660 O.2    63  TYR63      -0.2867
     79  CB         3.0580   69.6130  157.6560 C.3    63  TYR63       0.0534
     80  CG         4.1380   69.5270  158.7010 C.ar   63  TYR63      -0.0201
     81  CD1        4.3100   68.3750  159.4580 C.ar   63  TYR63      -0.0009
     82  CD2        4.9550   70.6190  158.9770 C.ar   63  TYR63      -0.0009
     83  CE1        5.2960   68.2970  160.4400 C.ar   63  TYR63       0.0417
     84  CE2        5.9280   70.5660  159.9750 C.ar   63  TYR63       0.0417
     85  CZ         6.1160   69.3930  160.6870 C.ar   63  TYR63       0.1957
     86  OH         7.1040   69.3210  161.6550 O.3    63  TYR63      -0.2866
     87  N          1.9020   64.2820  155.5900 N.3    67  LEU67      -0.1245
     88  CA         0.6520   63.6450  155.9820 C.3    67  LEU67       0.1561
     89  C          0.1000   62.6490  154.9630 C.2    67  LEU67       0.2260
     90  O         -0.4810   61.6480  155.3610 O.2    67  LEU67      -0.2867
     91  CB        -0.3920   64.6800  156.4250 C.3    67  LEU67       0.0270
     92  CG        -0.2300   65.2040  157.8660 C.3    67  LEU67       0.0019
     93  CD1       -0.6390   66.6670  157.9640 C.3    67  LEU67       0.0001
     94  CD2       -1.0100   64.3570  158.8470 C.3    67  LEU67       0.0001
     95  N          2.0380   59.6390  155.7540 N.3    70  TRP70      -0.1241
     96  CA         1.5350   59.1610  157.0400 C.3    70  TRP70       0.1605
     97  C          0.1940   58.4450  156.8470 C.2    70  TRP70       0.2264
     98  O         -0.0080   57.3850  157.4260 O.2    70  TRP70      -0.2867
     99  CB         1.4480   60.3300  158.0690 C.3    70  TRP70       0.0550
    100  CG         2.7960   60.8840  158.5000 C.ar   70  TRP70       0.0003
    101  CD1        4.0000   60.2570  158.4050 C.ar   70  TRP70       0.0946
    102  CD2        3.0570   62.1580  159.1250 C.ar   70  TRP70       0.0152
    103  NE1        5.0050   61.0820  158.8580 N.ar   70  TRP70      -0.2442
    104  CE2        4.4520   62.2480  159.3290 C.ar   70  TRP70       0.0810
    105  CE3        2.2540   63.2370  159.5280 C.ar   70  TRP70       0.0012
    106  CZ2        5.0590   63.3630  159.9470 C.ar   70  TRP70       0.0191
    107  CZ3        2.8620   64.3660  160.0660 C.ar   70  TRP70       0.0001
    108  CH2        4.2500   64.4180  160.2730 C.ar   70  TRP70       0.0015
    109  N         -3.6800   56.7270  166.6330 N.3    95  ARG95      -0.1245
    110  CA        -2.3950   57.1790  167.1460 C.3    95  ARG95       0.1563
    111  C         -2.5960   58.5110  167.8040 C.2    95  ARG95       0.2260
    112  O         -3.3780   59.3280  167.3190 O.2    95  ARG95      -0.2867
    113  CB        -1.3880   57.3190  165.9960 C.3    95  ARG95       0.0307
    114  CG         0.0230   57.6920  166.4060 C.3    95  ARG95       0.0489
    115  CD         0.8090   58.0780  165.1930 C.3    95  ARG95       0.2205
    116  NE         1.8110   59.1260  165.4060 N.pl3  95  ARG95      -0.0865
    117  CZ         3.1240   58.9780  165.3030 C.cat  95  ARG95       0.5346
    118  NH1        3.9170   60.0310  165.3720 N.pl3  95  ARG95       0.1354
    119  NH2        3.6570   57.7710  165.1360 N.pl3  95  ARG95       0.1354
    120  N          0.2080   61.3360  169.6430 N.3    97  ILE97      -0.1245
    121  CA         1.5500   61.7740  170.0080 C.3    97  ILE97       0.1561
    122  C          1.3740   63.1290  170.7260 C.2    97  ILE97       0.2260
    123  O          0.4580   63.8860  170.3740 O.2    97  ILE97      -0.2867
    124  CB         2.5930   61.8240  168.8220 C.3    97  ILE97       0.0252
    125  CG1        4.0450   62.0340  169.3380 C.3    97  ILE97       0.0019
    126  CG2        2.2470   62.8870  167.7680 C.3    97  ILE97       0.0019
    127  CD1        5.1440   61.1980  168.7490 C.3    97  ILE97       0.0001
    128  N         15.0100   59.1060  167.7970 N.3   153  TYR153     -0.1227
    129  CA        14.4010   60.2660  167.1440 C.3   153  TYR153      0.1736
    130  C         13.0330   60.6100  167.8240 C.2   153  TYR153      0.2595
    131  O         12.7270   61.7930  168.0470 O.2   153  TYR153     -0.2718
    132  CB        14.2150   60.0050  165.6370 C.3   153  TYR153      0.0548
    133  CG        12.9690   60.6710  165.0980 C.ar  153  TYR153     -0.0200
    134  CD1       12.9760   62.0140  164.7320 C.ar  153  TYR153     -0.0009
    135  CD2       11.7650   59.9780  165.0140 C.ar  153  TYR153     -0.0009
    136  CE1       11.8160   62.6520  164.2940 C.ar  153  TYR153      0.0417
    137  CE2       10.6000   60.6100  164.5930 C.ar  153  TYR153      0.0417
    138  CZ        10.6310   61.9470  164.2370 C.ar  153  TYR153      0.1957
    139  OH         9.4880   62.5620  163.8080 O.3   153  TYR153     -0.2866
    140  N         12.2040   59.5630  168.1120 N.am  154  GLN154     -0.1979
    141  CA        10.8980   59.6980  168.7230 C.3   154  GLN154      0.1601
    142  C         11.0470   60.2990  170.1110 C.2   154  GLN154      0.2287
    143  O         10.2960   61.2210  170.4280 O.2   154  GLN154     -0.2864
    144  CB        10.1500   58.3670  168.6910 C.3   154  GLN154      0.0394
    145  CG         9.4240   58.1710  167.3440 C.3   154  GLN154      0.0908
    146  CD         8.8080   56.8090  167.0390 C.2   154  GLN154      0.2608
    147  OE1        7.9480   56.6820  166.1410 O.2   154  GLN154     -0.2717
    148  NE2        9.2650   55.7510  167.7140 N.am  154  GLN154     -0.0878
    149  N         11.9960   63.9960  169.6440 N.3   157  TRP157     -0.1241
    150  CA        10.8570   64.7860  169.2060 C.3   157  TRP157      0.1605
    151  C          9.9830   65.1620  170.3980 C.2   157  TRP157      0.2264
    152  O          9.7260   66.3520  170.6310 O.2   157  TRP157     -0.2867
    153  CB        10.0290   64.0950  168.0980 C.3   157  TRP157      0.0550
    154  CG         9.1010   65.0780  167.4390 C.ar  157  TRP157      0.0003
    155  CD1        9.4240   65.9740  166.4640 C.ar  157  TRP157      0.0946
    156  CD2        7.7680   65.3820  167.8290 C.ar  157  TRP157      0.0152
    157  NE1        8.3820   66.8320  166.2390 N.ar  157  TRP157     -0.2442
    158  CE2        7.3430   66.4840  167.0500 C.ar  157  TRP157      0.0810
    159  CE3        6.8870   64.8460  168.7810 C.ar  157  TRP157      0.0012
    160  CZ2        6.0780   67.0660  167.1980 C.ar  157  TRP157      0.0191
    161  CZ3        5.6310   65.4190  168.9300 C.ar  157  TRP157      0.0001
    162  CH2        5.2380   66.5190  168.1500 C.ar  157  TRP157      0.0015
    163  N          7.4720   73.4720  169.7810 N.3   165  TRP165     -0.1241
    164  CA         6.3000   73.8630  168.9890 C.3   165  TRP165      0.1605
    165  C          5.2200   74.3870  169.9290 C.2   165  TRP165      0.2264
    166  O          4.6460   75.4420  169.6770 O.2   165  TRP165     -0.2867
    167  CB         5.7170   72.6890  168.2070 C.3   165  TRP165      0.0550
    168  CG         6.3950   72.3390  166.9270 C.ar  165  TRP165      0.0003
    169  CD1        7.0490   71.1770  166.6490 C.ar  165  TRP165      0.0946
    170  CD2        6.3410   73.0780  165.6930 C.ar  165  TRP165      0.0152
    171  NE1        7.4140   71.1450  165.3260 N.ar  165  TRP165     -0.2442
    172  CE2        6.9930   72.3020  164.7130 C.ar  165  TRP165      0.0810
    173  CE3        5.7710   74.3080  165.3100 C.ar  165  TRP165      0.0012
    174  CZ2        7.1410   72.7370  163.3910 C.ar  165  TRP165      0.0191
    175  CZ3        5.8600   74.7030  163.9900 C.ar  165  TRP165      0.0001
    176  CH2        6.5750   73.9450  163.0580 C.ar  165  TRP165      0.0015
    177  N          3.2010   77.9400  169.5470 N.3   169  PHE169     -0.1241
    178  CA         1.7530   78.0380  169.4430 C.3   169  PHE169      0.1605
    179  C          1.1530   78.8290  170.5900 C.2   169  PHE169      0.2264
    180  O          0.2540   79.6310  170.3600 O.2   169  PHE169     -0.2867
    181  CB         1.1270   76.6510  169.3520 C.3   169  PHE169      0.0534
    182  CG         1.5700   75.7860  168.1880 C.ar  169  PHE169     -0.0203
    183  CD1        2.1240   76.3560  167.0410 C.ar  169  PHE169     -0.0042
    184  CD2        1.3750   74.4090  168.2110 C.ar  169  PHE169     -0.0042
    185  CE1        2.5090   75.5590  165.9560 C.ar  169  PHE169     -0.0003
    186  CE2        1.7490   73.6170  167.1210 C.ar  169  PHE169     -0.0003
    187  CZ         2.3140   74.1970  165.9990 C.ar  169  PHE169     -0.0000
@<TRIPOS>BOND
     1    55    54    1
     2    52    54   ar
     3    52    50   ar
     4    54    53   ar
     5    56    57    1
     6    89    90    2
     7    89    88    1
     8    50    49   ar
     9    53    51   ar
    10    59    58    2
    11    65    66    1
    12    75    76    1
    13    87    88    1
    14    77    78    2
    15    77    76    1
    16    95    96    1
    17    88    91    1
    18    57    58    1
    19    57    60    1
    20    51    49   ar
    21    49    48    1
    22    67    68    2
    23    67    66    1
    24    76    79    1
    25    91    92    1
    26    66    69    1
    27    60    61    1
    28    97    96    1
    29    97    98    2
    30    96    99    1
    31    46    45    1
    32    46    47    2
    33    48    45    1
    34    45    44    1
    35    79    80    1
    36    69    70    1
    37    92    93    1
    38    92    94    1
    39    61    62    1
    40    99   100    1
    41    40    39    2
    42   101   100   ar
    43   101   103   ar
    44   100   102   ar
    45    62    63    1
    46    80    82   ar
    47    80    81   ar
    48    44    39   am
    49   103   104   ar
    50    70    72   ar
    51    70    71   ar
    52    82    84   ar
    53    39    38    1
    54   102   104   ar
    55   102   105   ar
    56    43    41    1
    57    72    74   ar
    58   104   106   ar
    59    81    83   ar
    60   105   107   ar
    61    71    73   ar
    62    63    64    1
    63   106   108   ar
    64    84    85   ar
    65   107   108   ar
    66    42    41    1
    67    41    38    1
    68    38    37    1
    69    74    73   ar
    70    83    85   ar
    71    24    25    1
    72    85    86    1
    73    37    32   am
    74    28    25    1
    75    28    29    1
    76    27    26    2
    77    22    21    1
    78    25    26    1
    79    21    23    1
    80    21    20    2
    81    32    31    1
    82    32    33    2
    83    19    20    1
    84    19    18    1
    85    34    31    1
    86    34    36    1
    87    34    35    1
    88    31    30    1
    89    18    17    1
    90    17    14    1
    91   176   174   ar
    92   176   175   ar
    93   174   172   ar
    94    14    15    1
    95    14    13    1
    96    15    16    2
    97   139   138    1
    98   175   173   ar
    99   138   136   ar
   100   138   137   ar
   101   136   134   ar
   102   137   135   ar
   103   172   171   ar
   104   172   170   ar
   105   134   133   ar
   106     9     7   ar
   107     9    11   ar
   108   135   133   ar
   109   133   132    1
   110   119   117    1
   111     7     6   ar
   112   115   116    1
   113   115   114    1
   114   117   118    1
   115   117   116    2
   116   173   170   ar
   117   171   169   ar
   118    12    11    1
   119   132   129    1
   120   170   168   ar
   121    11    10   ar
   122   185   187   ar
   123   185   183   ar
   124   113   114    1
   125   113   110    1
   126   187   186   ar
   127     6     5    1
   128     6     8   ar
   129   147   146    2
   130   157   155   ar
   131   157   158   ar
   132     5     2    1
   133   155   154   ar
   134   109   110    1
   135    10     8   ar
   136   169   168   ar
   137   168   167    1
   138   146   145    1
   139   146   148   am
   140   183   182   ar
   141   158   160   ar
   142   158   156   ar
   143   186   184   ar
   144   129   128    1
   145   129   130    1
   146   110   111    1
   147   160   162   ar
   148     3     2    1
   149     3     4    2
   150     2     1    1
   151   112   111    2
   152   145   144    1
   153   154   156   ar
   154   154   153    1
   155   126   124    1
   156   130   131    2
   157   130   140   am
   158   156   159   ar
   159   153   150    1
   160   140   141    1
   161   162   161   ar
   162   182   184   ar
   163   182   181    1
   164   167   164    1
   165   144   141    1
   166   141   142    1
   167   127   125    1
   168   159   161   ar
   169   124   125    1
   170   124   121    1
   171   164   163    1
   172   164   165    1
   173   150   149    1
   174   150   151    1
   175   181   178    1
   176   178   177    1
   177   178   179    1
   178   120   121    1
   179   166   165    2
   180   121   122    1
   181   142   143    2
   182   180   179    2
   183   123   122    2
   184   151   152    2
