@<TRIPOS>MOLECULE
tmp/4pjcA01.pdb
 147 145 0 0 0
SMALL
GASTEIGER

@<TRIPOS>ATOM
      1  N         -4.3710   59.5230  166.4870 N.3    10  ARG10      -0.1245
      2  CA        -4.5670   58.9620  165.1400 C.3    10  ARG10       0.1563
      3  C         -5.5650   57.8800  165.2940 C.2    10  ARG10       0.2260
      4  O         -5.5270   57.1750  166.2980 O.2    10  ARG10      -0.2867
      5  CB        -3.2780   58.3740  164.5430 C.3    10  ARG10       0.0307
      6  CG        -2.2890   59.4070  164.1090 C.3    10  ARG10       0.0489
      7  CD        -1.0030   58.7990  163.6270 C.3    10  ARG10       0.2205
      8  NE         0.0750   59.7840  163.7020 N.pl3  10  ARG10      -0.0865
      9  CZ         1.3500   59.5290  163.4410 C.cat  10  ARG10       0.5346
     10  NH1        1.7200   58.3340  163.0290 N.pl3  10  ARG10       0.1354
     11  NH2        2.2620   60.4700  163.5940 N.pl3  10  ARG10       0.1354
     12  N          1.8340   59.2250  156.9520 N.3    70  TRP70      -0.1241
     13  CA         1.4000   58.6120  158.2000 C.3    70  TRP70       0.1605
     14  C          0.1130   57.8460  158.0240 C.2    70  TRP70       0.2264
     15  O         -0.0430   56.7680  158.6270 O.2    70  TRP70      -0.2867
     16  CB         1.2990   59.6550  159.3430 C.3    70  TRP70       0.0550
     17  CG         2.6330   60.2340  159.7890 C.ar   70  TRP70       0.0003
     18  CD1        3.8560   59.6160  159.7490 C.ar   70  TRP70       0.0946
     19  CD2        2.8490   61.5090  160.4300 C.ar   70  TRP70       0.0152
     20  NE1        4.8290   60.4450  160.2820 N.ar   70  TRP70      -0.2442
     21  CE2        4.2350   61.6120  160.7150 C.ar   70  TRP70       0.0810
     22  CE3        2.0100   62.5800  160.7750 C.ar   70  TRP70       0.0012
     23  CZ2        4.8020   62.7570  161.3090 C.ar   70  TRP70       0.0191
     24  CZ3        2.5730   63.7000  161.3860 C.ar   70  TRP70       0.0001
     25  CH2        3.9490   63.7740  161.6580 C.ar   70  TRP70       0.0015
     26  N          0.8110   54.4960  156.3190 N.3    73  MET73      -0.1230
     27  CA         1.5130   53.6820  157.2930 C.3    73  MET73       0.1702
     28  C          0.5620   53.0990  158.3090 C.2    73  MET73       0.2592
     29  O          0.7250   51.9440  158.7020 O.2    73  MET73      -0.2718
     30  CB         2.5980   54.5160  157.9880 C.3    73  MET73       0.0401
     31  CG         3.7900   54.8080  157.0920 C.3    73  MET73       0.0596
     32  SD         4.8400   56.0830  157.8080 S.3    73  MET73      -0.1393
     33  CE         5.3400   56.9760  156.3390 C.3    73  MET73       0.0692
     34  N         -0.4360   53.8840  158.7260 N.am   74  PHE74      -0.1976
     35  CA        -1.4260   53.4580  159.7180 C.3    74  PHE74       0.1639
     36  C         -2.2760   52.3010  159.1700 C.2    74  PHE74       0.2290
     37  O         -2.4080   51.2830  159.8350 O.2    74  PHE74      -0.2864
     38  CB        -2.2610   54.6650  160.1960 C.3    74  PHE74       0.0560
     39  CG        -2.4670   54.7140  161.6860 C.ar   74  PHE74      -0.0200
     40  CD1       -1.3850   54.7770  162.5560 C.ar   74  PHE74      -0.0042
     41  CD2       -3.7430   54.6740  162.2290 C.ar   74  PHE74      -0.0042
     42  CE1       -1.5800   54.7580  163.9450 C.ar   74  PHE74      -0.0003
     43  CE2       -3.9330   54.6800  163.6140 C.ar   74  PHE74      -0.0003
     44  CZ        -2.8500   54.7180  164.4610 C.ar   74  PHE74      -0.0000
     45  N         -0.2380   49.1080  159.0370 N.3    77  GLU77      -0.1245
     46  CA        -0.1130   48.5800  160.3920 C.3    77  GLU77       0.1567
     47  C         -1.4110   47.9180  160.9160 C.2    77  GLU77       0.2260
     48  O         -1.3300   46.8950  161.5780 O.2    77  GLU77      -0.2867
     49  CB         0.3780   49.6560  161.3510 C.3    77  GLU77       0.0388
     50  CG         1.8490   50.0300  161.1990 C.3    77  GLU77       0.1160
     51  CD         2.2500   51.2850  161.9520 C.2    77  GLU77       0.3649
     52  OE1        1.5340   51.6510  162.9130 O.co2  77  GLU77      -0.2457
     53  OE2        3.2790   51.9040  161.5860 O.co2  77  GLU77      -0.2457
     54  N         -3.6320   55.6330  168.1810 N.3    95  ARG95      -0.1245
     55  CA        -2.3480   56.1240  168.6670 C.3    95  ARG95       0.1563
     56  C         -2.5790   57.4160  169.3570 C.2    95  ARG95       0.2260
     57  O         -3.3830   58.2230  168.9050 O.2    95  ARG95      -0.2867
     58  CB        -1.3860   56.3680  167.4930 C.3    95  ARG95       0.0307
     59  CG         0.0160   56.7290  167.9060 C.3    95  ARG95       0.0489
     60  CD         0.7100   57.5530  166.8500 C.3    95  ARG95       0.2205
     61  NE         2.1560   57.3080  166.7880 N.pl3  95  ARG95      -0.0865
     62  CZ         3.0840   58.2480  166.6580 C.cat  95  ARG95       0.5346
     63  NH1        2.7400   59.5300  166.6070 N.pl3  95  ARG95       0.1354
     64  NH2        4.3600   57.9130  166.5300 N.pl3  95  ARG95       0.1354
     65  N         -0.6870   52.9040  171.8510 N.3   113  TYR113     -0.1241
     66  CA        -1.5720   52.3370  170.8320 C.3   113  TYR113      0.1605
     67  C         -2.6650   51.5360  171.4360 C.2   113  TYR113      0.2264
     68  O         -2.5030   50.9890  172.5290 O.2   113  TYR113     -0.2867
     69  CB        -0.7790   51.4350  169.8800 C.3   113  TYR113      0.0534
     70  CG         0.2190   52.1970  169.0320 C.ar  113  TYR113     -0.0201
     71  CD1        1.4630   52.5410  169.5330 C.ar  113  TYR113     -0.0009
     72  CD2       -0.0920   52.5840  167.7250 C.ar  113  TYR113     -0.0009
     73  CE1        2.3670   53.2700  168.7710 C.ar  113  TYR113      0.0417
     74  CE2        0.8270   53.2690  166.9380 C.ar  113  TYR113      0.0417
     75  CZ         2.0540   53.6110  167.4680 C.ar  113  TYR113      0.1957
     76  OH         2.9680   54.3220  166.7430 O.3   113  TYR113     -0.2866
     77  N          8.7790   48.7620  174.9050 N.3   130  TRP130     -0.1241
     78  CA         7.3590   48.6860  174.6220 C.3   130  TRP130      0.1605
     79  C          6.7360   47.6310  175.5000 C.2   130  TRP130      0.2264
     80  O          7.2610   46.5140  175.6030 O.2   130  TRP130     -0.2867
     81  CB         7.1740   48.2860  173.1660 C.3   130  TRP130      0.0550
     82  CG         7.4830   49.3780  172.2070 C.ar  130  TRP130      0.0003
     83  CD1        8.5700   49.4790  171.3850 C.ar  130  TRP130      0.0946
     84  CD2        6.6380   50.4900  171.9010 C.ar  130  TRP130      0.0152
     85  NE1        8.4720   50.6070  170.6160 N.ar  130  TRP130     -0.2442
     86  CE2        7.2930   51.2490  170.9090 C.ar  130  TRP130      0.0810
     87  CE3        5.3760   50.9100  172.3630 C.ar  130  TRP130      0.0012
     88  CZ2        6.7230   52.4040  170.3580 C.ar  130  TRP130      0.0191
     89  CZ3        4.8160   52.0540  171.8240 C.ar  130  TRP130      0.0001
     90  CH2        5.4800   52.7800  170.8240 C.ar  130  TRP130      0.0015
     91  N          9.7320   43.3890  167.1790 N.3   143  ALA143     -0.1231
     92  CA        10.1360   44.0520  165.9310 C.3   143  ALA143      0.1694
     93  C         10.5850   45.4930  166.1770 C.2   143  ALA143      0.2592
     94  O         11.7030   45.8570  165.8020 O.2   143  ALA143     -0.2718
     95  CB         8.9950   44.0120  164.9190 C.3   143  ALA143      0.0304
     96  N          9.7410   46.2850  166.8750 N.am  144  TRP144     -0.1976
     97  CA         9.9870   47.6910  167.1810 C.3   144  TRP144      0.1640
     98  C         11.1800   47.9720  168.0860 C.2   144  TRP144      0.2290
     99  O         11.8730   48.9770  167.8790 O.2   144  TRP144     -0.2864
    100  CB         8.6950   48.3540  167.6800 C.3   144  TRP144      0.0576
    101  CG         7.6310   48.4680  166.6240 C.ar  144  TRP144      0.0006
    102  CD1        7.5940   47.8400  165.4150 C.ar  144  TRP144      0.0946
    103  CD2        6.4380   49.2420  166.7070 C.ar  144  TRP144      0.0152
    104  NE1        6.4820   48.2150  164.7220 N.ar  144  TRP144     -0.2442
    105  CE2        5.7290   49.0430  165.5050 C.ar  144  TRP144      0.0810
    106  CE3        5.8750   50.0600  167.7000 C.ar  144  TRP144      0.0012
    107  CZ2        4.5140   49.6790  165.2440 C.ar  144  TRP144      0.0191
    108  CZ3        4.6530   50.6550  167.4550 C.ar  144  TRP144      0.0001
    109  CH2        4.0030   50.4900  166.2310 C.ar  144  TRP144      0.0015
    110  N         14.7560   48.2250  166.6200 N.3   147  ASN147     -0.1240
    111  CA        15.1360   49.5100  166.0480 C.3   147  ASN147      0.1653
    112  C         15.5480   50.4690  167.1710 C.2   147  ASN147      0.2266
    113  O         14.7280   51.2100  167.7080 O.2   147  ASN147     -0.2867
    114  CB        14.0370   50.0690  165.1670 C.3   147  ASN147      0.1155
    115  CG        14.4920   51.1970  164.2770 C.2   147  ASN147      0.2627
    116  OD1       15.5400   51.8230  164.4940 O.2   147  ASN147     -0.2716
    117  ND2       13.6770   51.5180  163.2800 N.am  147  ASN147     -0.0877
    118  N         15.0940   54.2720  166.4920 N.3   150  GLU150     -0.1245
    119  CA        13.7090   54.6890  166.6910 C.3   150  GLU150      0.1567
    120  C         13.3660   54.8790  168.1630 C.2   150  GLU150      0.2260
    121  O         12.6430   55.8130  168.4880 O.2   150  GLU150     -0.2867
    122  CB        12.7590   53.6950  166.0470 C.3   150  GLU150      0.0388
    123  CG        11.3010   54.1180  166.1420 C.3   150  GLU150      0.1160
    124  CD        10.3950   53.1480  165.4250 C.2   150  GLU150      0.3649
    125  OE1       10.0930   53.4260  164.2400 O.co2 150  GLU150     -0.2457
    126  OE2       10.0740   52.0770  166.0020 O.co2 150  GLU150     -0.2457
    127  N         15.1290   58.1270  169.2290 N.3   153  TYR153     -0.1227
    128  CA        14.5070   59.2340  168.5270 C.3   153  TYR153      0.1736
    129  C         13.2380   59.6160  169.2690 C.2   153  TYR153      0.2595
    130  O         12.9410   60.7990  169.4580 O.2   153  TYR153     -0.2718
    131  CB        14.2160   58.8630  167.0430 C.3   153  TYR153      0.0548
    132  CG        13.0010   59.5930  166.5250 C.ar  153  TYR153     -0.0200
    133  CD1       13.0790   60.9300  166.1480 C.ar  153  TYR153     -0.0009
    134  CD2       11.7430   58.9980  166.5580 C.ar  153  TYR153     -0.0009
    135  CE1       11.9390   61.6540  165.8150 C.ar  153  TYR153      0.0417
    136  CE2       10.5920   59.7250  166.2660 C.ar  153  TYR153      0.0417
    137  CZ        10.6970   61.0460  165.8880 C.ar  153  TYR153      0.1957
    138  OH         9.5670   61.7550  165.6080 O.3   153  TYR153     -0.2866
    139  N         12.4680   58.6010  169.6450 N.am  154  GLN154     -0.1979
    140  CA        11.1870   58.7630  170.3050 C.3   154  GLN154      0.1601
    141  C         11.3050   59.4460  171.6440 C.2   154  GLN154      0.2287
    142  O         10.4870   60.3110  171.9590 O.2   154  GLN154     -0.2864
    143  CB        10.5250   57.4030  170.4620 C.3   154  GLN154      0.0394
    144  CG         9.0530   57.5140  170.5600 C.3   154  GLN154      0.0908
    145  CD         8.5100   58.1830  169.3420 C.2   154  GLN154      0.2608
    146  OE1        8.1500   59.3690  169.3490 O.2   154  GLN154     -0.2717
    147  NE2        8.4890   57.4460  168.2610 N.am  154  GLN154     -0.0878
@<TRIPOS>BOND
     1    26    27    1
     2    33    32    1
     3    12    13    1
     4    31    32    1
     5    31    30    1
     6    27    30    1
     7    27    28    1
     8    14    13    1
     9    14    15    2
    10    13    16    1
    11    28    29    2
    12    28    34   am
    13    34    35    1
    14    45    46    1
    15    36    35    1
    16    36    37    2
    17    16    17    1
    18    35    38    1
    19    18    17   ar
    20    18    20   ar
    21    17    19   ar
    22    38    39    1
    23    20    21   ar
    24    46    47    1
    25    46    49    1
    26    19    21   ar
    27    19    22   ar
    28    21    23   ar
    29    22    24   ar
    30    47    48    2
    31    50    49    1
    32    50    51    1
    33    23    25   ar
    34    24    25   ar
    35    53    51   ar
    36    39    41   ar
    37    39    40   ar
    38    51    52   ar
    39    41    43   ar
    40    40    42   ar
    41    10     9    1
    42   117   115   am
    43     9    11    1
    44     9     8    2
    45    43    44   ar
    46     7     8    1
    47     7     6    1
    48    42    44   ar
    49     6     5    1
    50   125   124   ar
    51   115   116    2
    52   115   114    1
    53     5     2    1
    54   104   102   ar
    55   104   105   ar
    56    95    92    1
    57     2     3    1
    58     2     1    1
    59   114   111    1
    60   107   105   ar
    61   107   109   ar
    62     3     4    2
    63   102   101   ar
    64   124   126   ar
    65   124   123    1
    66   105   103   ar
    67   138   137    1
    68    94    93    2
    69   135   137   ar
    70   135   133   ar
    71   137   136   ar
    72    92    93    1
    73    92    91    1
    74   122   123    1
    75   122   119    1
    76   111   110    1
    77   111   112    1
    78   133   132   ar
    79    93    96   am
    80   109   108   ar
    81   136   134   ar
    82   118   119    1
    83   132   134   ar
    84   132   131    1
    85    64    62    1
    86    63    62    1
    87   101   103   ar
    88   101   100    1
    89    62    61    2
    90   119   120    1
    91   103   106   ar
    92    76    75    1
    93    61    60    1
    94    60    59    1
    95    96    97    1
    96    74    75   ar
    97    74    72   ar
    98   131   128    1
    99   112   113    2
   100    97   100    1
   101    97    98    1
   102   108   106   ar
   103    75    73   ar
   104    58    59    1
   105    58    55    1
   106    72    70   ar
   107    99    98    2
   108   120   121    2
   109    54    55    1
   110   147   145   am
   111   128   127    1
   112   128   129    1
   113    55    56    1
   114    73    71   ar
   115    57    56    2
   116    70    71   ar
   117    70    69    1
   118   129   130    2
   119   129   139   am
   120   145   146    2
   121   145   144    1
   122   139   140    1
   123    69    66    1
   124   140   143    1
   125   140   141    1
   126    88    90   ar
   127    88    86   ar
   128   143   144    1
   129    85    86   ar
   130    85    83   ar
   131    90    89   ar
   132    66    67    1
   133    66    65    1
   134    86    84   ar
   135    83    82   ar
   136    67    68    2
   137   141   142    2
   138    89    87   ar
   139    84    82   ar
   140    84    87   ar
   141    82    81    1
   142    81    78    1
   143    78    77    1
   144    78    79    1
   145    79    80    2
