@<TRIPOS>MOLECULE
tmp/4pjhC00.pdb
 157 153 0 0 0
SMALL
GASTEIGER

@<TRIPOS>ATOM
      1  N        -11.5710   39.0680   45.9920 N.3     7  TYR7       -0.1241
      2  CA       -11.7300   39.6300   47.3340 C.3     7  TYR7        0.1605
      3  C        -11.3340   41.0680   47.3010 C.2     7  TYR7        0.2264
      4  O        -10.2440   41.4050   46.8120 O.2     7  TYR7       -0.2867
      5  CB       -10.8840   38.8790   48.3730 C.3     7  TYR7        0.0534
      6  CG       -11.3130   37.4480   48.6120 C.ar    7  TYR7       -0.0201
      7  CD1      -12.4590   37.1580   49.3470 C.ar    7  TYR7       -0.0009
      8  CD2      -10.5250   36.3800   48.1770 C.ar    7  TYR7       -0.0009
      9  CE1      -12.8520   35.8440   49.5850 C.ar    7  TYR7        0.0417
     10  CE2      -10.8880   35.0570   48.4450 C.ar    7  TYR7        0.0417
     11  CZ       -12.0560   34.7990   49.1500 C.ar    7  TYR7        0.1957
     12  OH       -12.3880   33.5120   49.4980 O.3     7  TYR7       -0.2866
     13  N        -10.8700   44.7780   49.5580 N.3     9  ARG9       -0.1245
     14  CA       -10.7040   45.4540   50.8440 C.3     9  ARG9        0.1563
     15  C        -10.9070   46.9430   50.6330 C.2     9  ARG9        0.2260
     16  O        -10.4610   47.4910   49.6280 O.2     9  ARG9       -0.2867
     17  CB        -9.3600   45.1980   51.5050 C.3     9  ARG9        0.0307
     18  CG        -9.0880   43.7500   51.8470 C.3     9  ARG9        0.0489
     19  CD        -7.7370   43.5520   52.4800 C.3     9  ARG9        0.2205
     20  NE        -7.3750   42.1430   52.3750 N.pl3   9  ARG9       -0.0865
     21  CZ        -6.1570   41.6560   52.5140 C.cat   9  ARG9        0.5346
     22  NH1       -5.1450   42.4580   52.8200 N.pl3   9  ARG9        0.1354
     23  NH2       -5.9360   40.3620   52.3440 N.pl3   9  ARG9        0.1354
     24  N        -14.2830   44.1510   54.0010 N.3    24  SER24      -0.1217
     25  CA       -13.7520   43.1840   53.0480 C.3    24  SER24       0.1889
     26  C        -14.8860   42.3390   52.5420 C.2    24  SER24       0.2288
     27  O        -15.6400   41.8000   53.3440 O.2    24  SER24      -0.2866
     28  CB       -12.6620   42.3160   53.6730 C.3    24  SER24       0.2089
     29  OG       -12.2140   41.3530   52.7250 O.3    24  SER24      -0.2183
     30  N        -18.8010   36.4910   50.7200 N.3    34  THR34      -0.1218
     31  CA       -18.3080   36.7210   52.0740 C.3    34  THR34       0.1862
     32  C        -18.3130   38.1840   52.4230 C.2    34  THR34       0.2287
     33  O        -18.1730   39.0240   51.5370 O.2    34  THR34      -0.2866
     34  CB       -16.8400   36.2070   52.2400 C.3    34  THR34       0.1770
     35  OG1      -15.9260   37.0470   51.5130 O.3    34  THR34      -0.2211
     36  CG2      -16.6340   34.7310   51.8630 C.3    34  THR34       0.0375
     37  N        -16.0080   37.3710   59.9970 N.3    43  LYS43      -0.1245
     38  CA       -16.1610   37.0420   58.5820 C.3    43  LYS43       0.1561
     39  C        -17.3640   36.1210   58.4780 C.2    43  LYS43       0.2260
     40  O        -17.4410   35.1130   59.2020 O.2    43  LYS43      -0.2867
     41  CB       -14.9110   36.4140   57.9560 C.3    43  LYS43       0.0271
     42  CG       -15.0560   36.3480   56.4360 C.3    43  LYS43       0.0035
     43  CD       -13.8320   35.8110   55.7800 C.3    43  LYS43       0.0206
     44  CE       -13.9320   36.0090   54.2960 C.3    43  LYS43       0.1093
     45  NZ       -12.7060   35.5760   53.5900 N.3    43  LYS43      -0.1314
     46  N        -13.9210   27.4070   59.0940 N.3    58  HIS58      -0.1241
     47  CA       -13.5280   28.2830   57.9840 C.3    58  HIS58       0.1621
     48  C        -13.7580   29.7430   58.4060 C.2    58  HIS58       0.2264
     49  O        -12.8440   30.5690   58.3200 O.2    58  HIS58      -0.2867
     50  CB       -14.3020   27.9550   56.6900 C.3    58  HIS58       0.0745
     51  CG       -13.9360   28.8550   55.5410 C.ar   58  HIS58       0.0817
     52  ND1      -12.8770   28.5480   54.6870 N.ar   58  HIS58      -0.2268
     53  CD2      -14.4680   30.0420   55.1620 C.ar   58  HIS58       0.1154
     54  CE1      -12.8190   29.5430   53.8120 C.ar   58  HIS58       0.1986
     55  NE2      -13.7390   30.4750   54.0660 N.ar   58  HIS58      -0.2212
     56  N        -10.7950   32.5910   59.2620 N.3    62  TYR62      -0.1241
     57  CA       -10.7170   33.7820   58.4080 C.3    62  TYR62       0.1605
     58  C        -11.1260   35.0430   59.1750 C.2    62  TYR62       0.2264
     59  O        -10.6010   36.1140   58.8730 O.2    62  TYR62      -0.2867
     60  CB       -11.4940   33.5990   57.0860 C.3    62  TYR62       0.0534
     61  CG       -10.6440   32.8170   56.1000 C.ar   62  TYR62      -0.0201
     62  CD1       -9.6840   33.4570   55.3170 C.ar   62  TYR62      -0.0009
     63  CD2      -10.6800   31.4260   56.0700 C.ar   62  TYR62      -0.0009
     64  CE1       -8.8200   32.7300   54.4850 C.ar   62  TYR62       0.0417
     65  CE2       -9.8250   30.6920   55.2460 C.ar   62  TYR62       0.0417
     66  CZ        -8.9010   31.3460   54.4490 C.ar   62  TYR62       0.1957
     67  OH        -8.0550   30.5990   53.6480 O.3    62  TYR62      -0.2866
     68  N         -8.6570   38.1540   59.0090 N.3    66  LEU66      -0.1245
     69  CA        -9.1780   39.4800   58.6340 C.3    66  LEU66       0.1561
     70  C         -8.9060   40.5110   59.7190 C.2    66  LEU66       0.2260
     71  O         -8.6370   41.6660   59.4020 O.2    66  LEU66      -0.2867
     72  CB       -10.6860   39.4420   58.2860 C.3    66  LEU66       0.0270
     73  CG       -11.0820   39.2460   56.7830 C.3    66  LEU66       0.0019
     74  CD1      -10.4980   40.3460   55.8950 C.3    66  LEU66       0.0001
     75  CD2      -10.6150   37.8930   56.2480 C.3    66  LEU66       0.0001
     76  N         -5.4080   41.4320   58.9080 N.3    69  TRP69      -0.1241
     77  CA        -5.3970   42.1820   57.6530 C.3    69  TRP69       0.1605
     78  C         -5.9820   43.5800   57.8130 C.2    69  TRP69       0.2264
     79  O         -5.4850   44.5240   57.2040 O.2    69  TRP69      -0.2867
     80  CB        -6.1380   41.4080   56.5560 C.3    69  TRP69       0.0550
     81  CG        -5.4080   40.1490   56.1570 C.ar   69  TRP69       0.0003
     82  CD1       -4.0880   39.8520   56.3730 C.ar   69  TRP69       0.0946
     83  CD2       -5.9680   39.0180   55.4780 C.ar   69  TRP69       0.0152
     84  NE1       -3.7980   38.6020   55.8800 N.ar   69  TRP69      -0.2442
     85  CE2       -4.9320   38.0720   55.3090 C.ar   69  TRP69       0.0810
     86  CE3       -7.2510   38.7100   55.0000 C.ar   69  TRP69       0.0012
     87  CZ2       -5.1460   36.8310   54.6940 C.ar   69  TRP69       0.0191
     88  CZ3       -7.4600   37.4910   54.3800 C.ar   69  TRP69       0.0001
     89  CH2       -6.4220   36.5610   54.2390 C.ar   69  TRP69       0.0015
     90  N         -8.0390   47.3610   47.8930 N.3    94  ARG94      -0.1245
     91  CA        -7.3200   46.2120   47.3510 C.3    94  ARG94       0.1563
     92  C         -8.3040   45.3170   46.6340 C.2    94  ARG94       0.2260
     93  O         -9.4260   45.1530   47.0970 O.2    94  ARG94      -0.2867
     94  CB        -6.6210   45.4310   48.4890 C.3    94  ARG94       0.0307
     95  CG        -5.7360   44.2320   48.0370 C.3    94  ARG94       0.0489
     96  CD        -5.3360   43.4710   49.2980 C.3    94  ARG94       0.2205
     97  NE        -4.1610   42.6110   49.1450 N.pl3  94  ARG94      -0.0865
     98  CZ        -4.1970   41.2820   49.0810 C.cat  94  ARG94       0.5346
     99  NH1       -5.3570   40.6430   49.0680 N.pl3  94  ARG94       0.1354
    100  NH2       -3.0700   40.5830   49.0300 N.pl3  94  ARG94       0.1354
    101  N         -7.9550   41.3830   44.8160 N.3    96  ILE96      -0.1245
    102  CA        -7.1650   40.2050   44.4410 C.3    96  ILE96       0.1561
    103  C         -8.1340   39.2100   43.8530 C.2    96  ILE96       0.2260
    104  O         -9.2700   39.1390   44.2970 O.2    96  ILE96      -0.2867
    105  CB        -6.3490   39.6280   45.6540 C.3    96  ILE96       0.0252
    106  CG1       -5.2430   38.6770   45.1410 C.3    96  ILE96       0.0019
    107  CG2       -7.2870   38.9170   46.7330 C.3    96  ILE96       0.0019
    108  CD1       -4.1990   38.1560   46.2200 C.3    96  ILE96       0.0001
    109  N          4.9980   34.1340   46.7920 N.3   152  TYR152     -0.1227
    110  CA         3.8160   33.6630   47.5200 C.3   152  TYR152      0.1736
    111  C          2.5380   34.1840   46.8400 C.2   152  TYR152      0.2595
    112  O          1.5740   33.4390   46.6900 O.2   152  TYR152     -0.2718
    113  CB         3.9230   34.1310   48.9940 C.3   152  TYR152      0.0548
    114  CG         2.6070   34.3440   49.6920 C.ar  152  TYR152     -0.0200
    115  CD1        1.9620   33.2940   50.3390 C.ar  152  TYR152     -0.0009
    116  CD2        2.0270   35.6070   49.7540 C.ar  152  TYR152     -0.0009
    117  CE1        0.7410   33.4850   50.9810 C.ar  152  TYR152      0.0417
    118  CE2        0.8280   35.8180   50.4230 C.ar  152  TYR152      0.0417
    119  CZ         0.1840   34.7540   51.0280 C.ar  152  TYR152      0.1957
    120  OH        -0.9940   34.9730   51.6870 O.3   152  TYR152     -0.2866
    121  N          2.5460   35.4720   46.4170 N.am  153  GLN153     -0.1979
    122  CA         1.3950   36.0830   45.7180 C.3   153  GLN153      0.1601
    123  C          1.2020   35.4400   44.3410 C.2   153  GLN153      0.2287
    124  O          0.0720   35.1540   43.9640 O.2   153  GLN153     -0.2864
    125  CB         1.5590   37.5980   45.5950 C.3   153  GLN153      0.0394
    126  CG         1.3960   38.2950   46.9590 C.3   153  GLN153      0.0908
    127  CD         1.8410   39.7170   47.0160 C.2   153  GLN153      0.2608
    128  OE1        2.7370   40.1530   46.2870 O.2   153  GLN153     -0.2717
    129  NE2        1.2840   40.4610   47.9650 N.am  153  GLN153     -0.0878
    130  N         -0.2960   32.0290   44.9800 N.3   156  TRP156     -0.1241
    131  CA        -1.6930   32.1440   45.4040 C.3   156  TRP156      0.1605
    132  C         -2.6130   32.4480   44.2060 C.2   156  TRP156      0.2264
    133  O         -3.6450   31.8030   44.0410 O.2   156  TRP156     -0.2867
    134  CB        -1.8670   33.2060   46.4960 C.3   156  TRP156      0.0550
    135  CG        -3.1810   33.0390   47.2080 C.ar  156  TRP156      0.0003
    136  CD1       -3.4250   32.2510   48.2980 C.ar  156  TRP156      0.0946
    137  CD2       -4.4380   33.6190   46.8410 C.ar  156  TRP156      0.0152
    138  NE1       -4.7730   32.2320   48.5760 N.ar  156  TRP156     -0.2442
    139  CE2       -5.4170   33.0800   47.7080 C.ar  156  TRP156      0.0810
    140  CE3       -4.8510   34.5090   45.8240 C.ar  156  TRP156      0.0012
    141  CZ2       -6.7630   33.4580   47.6420 C.ar  156  TRP156      0.0191
    142  CZ3       -6.1870   34.8880   45.7660 C.ar  156  TRP156      0.0001
    143  CH2       -7.1290   34.3570   46.6640 C.ar  156  TRP156      0.0015
    144  N         -9.6990   27.4860   45.0080 N.3   164  TRP164     -0.1241
    145  CA       -10.8430   28.0360   45.7670 C.3   164  TRP164      0.1605
    146  C        -12.0310   28.3030   44.8310 C.2   164  TRP164      0.2264
    147  O        -13.1780   27.9610   45.1480 O.2   164  TRP164     -0.2867
    148  CB       -10.4650   29.3550   46.4690 C.3   164  TRP164      0.0550
    149  CG        -9.6600   29.1870   47.7180 C.ar  164  TRP164      0.0003
    150  CD1       -8.3750   29.5930   47.9250 C.ar  164  TRP164      0.0946
    151  CD2      -10.1130   28.6390   48.9550 C.ar  164  TRP164      0.0152
    152  NE1       -7.9920   29.3150   49.2060 N.ar  164  TRP164     -0.2442
    153  CE2       -9.0330   28.7110   49.8640 C.ar  164  TRP164      0.0810
    154  CE3      -11.3230   28.0520   49.3820 C.ar  164  TRP164      0.0012
    155  CZ2       -9.1350   28.2610   51.1910 C.ar  164  TRP164      0.0191
    156  CZ3      -11.4250   27.6070   50.7010 C.ar  164  TRP164      0.0001
    157  CH2      -10.3390   27.7020   51.5840 C.ar  164  TRP164      0.0015
@<TRIPOS>BOND
     1   103   104    2
     2   103   102    1
     3   124   123    2
     4   133   132    2
     5   132   131    1
     6   123   122    1
     7   102   101    1
     8   102   105    1
     9   146   147    2
    10   146   145    1
    11   130   131    1
    12   144   145    1
    13   106   105    1
    14   106   108    1
    15   131   134    1
    16   125   122    1
    17   125   126    1
    18   105   107    1
    19   122   121    1
    20   142   140   ar
    21   142   143   ar
    22   145   148    1
    23   140   137   ar
    24     1     2    1
    25   128   127    2
    26   121   111   am
    27   148   149    1
    28   134   135    1
    29    92    93    2
    30    92    91    1
    31   143   141   ar
    32   112   111    2
    33   109   110    1
    34     4     3    2
    35   111   110    1
    36   137   135   ar
    37   137   139   ar
    38   126   127    1
    39   127   129   am
    40   135   136   ar
    41     3     2    1
    42     2     5    1
    43    91    90    1
    44    91    94    1
    45   110   113    1
    46   141   139   ar
    47   139   138   ar
    48   149   150   ar
    49   149   151   ar
    50   150   152   ar
    51    95    94    1
    52    95    96    1
    53     8    10   ar
    54     8     6   ar
    55   136   138   ar
    56     5     6    1
    57    10    11   ar
    58     6     7   ar
    59   151   154   ar
    60   151   153   ar
    61   113   114    1
    62   100    98    1
    63    99    98    1
    64    98    97    2
    65    97    96    1
    66    11    12    1
    67    11     9   ar
    68   152   153   ar
    69     7     9   ar
    70   154   156   ar
    71    13    14    1
    72    16    15    2
    73   114   116   ar
    74   114   115   ar
    75   116   118   ar
    76   153   155   ar
    77   115   117   ar
    78   118   119   ar
    79    15    14    1
    80   156   157   ar
    81    30    31    1
    82    14    17    1
    83   117   119   ar
    84   119   120    1
    85   155   157   ar
    86    17    18    1
    87    35    34    1
    88    33    32    2
    89    18    19    1
    90    36    34    1
    91    31    34    1
    92    31    32    1
    93    23    21    1
    94    20    19    1
    95    20    21    2
    96    21    22    1
    97    26    25    1
    98    26    27    2
    99    29    28    1
   100    25    28    1
   101    25    24    1
   102    45    44    1
   103    67    66    1
   104    54    55   ar
   105    54    52   ar
   106    55    53   ar
   107    89    88   ar
   108    89    87   ar
   109    44    43    1
   110    88    86   ar
   111    66    64   ar
   112    66    65   ar
   113    64    62   ar
   114    52    51   ar
   115    87    85   ar
   116    86    83   ar
   117    53    51   ar
   118    65    63   ar
   119    85    83   ar
   120    85    84   ar
   121    62    61   ar
   122    83    81   ar
   123    51    50    1
   124    43    42    1
   125    84    82   ar
   126    74    73    1
   127    63    61   ar
   128    61    60    1
   129    81    82   ar
   130    81    80    1
   131    75    73    1
   132    42    41    1
   133    80    77    1
   134    50    47    1
   135    73    72    1
   136    60    57    1
   137    79    78    2
   138    77    78    1
   139    77    76    1
   140    41    38    1
   141    47    48    1
   142    47    46    1
   143    72    69    1
   144    49    48    2
   145    57    58    1
   146    57    56    1
   147    39    38    1
   148    39    40    2
   149    38    37    1
   150    69    68    1
   151    69    70    1
   152    59    58    2
   153    71    70    2
