@<TRIPOS>MOLECULE
tmp/4pjvA00.pdb
 165 163 0 0 0
SMALL
GASTEIGER

@<TRIPOS>ATOM
      1  N         22.2820   16.9970   -6.7330 N.3    92  SER92      -0.1217
      2  CA        22.3950   15.5470   -6.6270 C.3    92  SER92       0.1889
      3  C         21.2850   14.9950   -5.7480 C.2    92  SER92       0.2288
      4  O         20.8160   13.8680   -5.9680 O.2    92  SER92      -0.2866
      5  CB        23.7590   15.1550   -6.0760 C.3    92  SER92       0.2089
      6  OG        23.9390   15.5140   -4.7490 O.3    92  SER92      -0.2183
      7  N         18.2570   14.6000   -7.8700 N.3    95  ILE95      -0.1231
      8  CA        18.3440   13.4220   -8.7400 C.3    95  ILE95       0.1692
      9  C         18.0380   12.1330   -7.9810 C.2    95  ILE95       0.2591
     10  O         17.2180   11.3220   -8.4130 O.2    95  ILE95      -0.2718
     11  CB        19.7020   13.3070   -9.4240 C.3    95  ILE95       0.0266
     12  CG1       19.7840   14.3250  -10.5640 C.3    95  ILE95       0.0019
     13  CG2       19.9040   11.8790   -9.9220 C.3    95  ILE95       0.0020
     14  CD1       21.1930   14.6900  -10.9950 C.3    95  ILE95       0.0001
     15  N         18.6670   11.9600   -6.8280 N.am   96  GLN96      -0.1979
     16  CA        18.2850   10.8600   -5.9120 C.3    96  GLN96       0.1601
     17  C         16.7840   10.8000   -5.7060 C.2    96  GLN96       0.2287
     18  O         16.2200    9.7190   -5.5490 O.2    96  GLN96      -0.2864
     19  CB        18.9700   11.0080   -4.5400 C.3    96  GLN96       0.0394
     20  CG        20.4830   10.7520   -4.5490 C.3    96  GLN96       0.0908
     21  CD        21.1750   11.1860   -3.2530 C.2    96  GLN96       0.2608
     22  OE1       20.6190   11.0850   -2.1370 O.2    96  GLN96      -0.2717
     23  NE2       22.3960   11.6900   -3.3980 N.am   96  GLN96      -0.0878
     24  N         15.1100    9.5660   -9.1780 N.3    99  GLU99      -0.1245
     25  CA        15.3910    8.1660   -9.3670 C.3    99  GLU99       0.1567
     26  C         14.4030    7.3600   -8.5680 C.2    99  GLU99       0.2260
     27  O         13.8020    6.3890   -9.0630 O.2    99  GLU99      -0.2867
     28  CB        16.7920    7.8410   -8.9040 C.3    99  GLU99       0.0388
     29  CG        17.8570    8.3050   -9.8700 C.3    99  GLU99       0.1160
     30  CD        19.0530    7.3700   -9.9390 C.2    99  GLU99       0.3649
     31  OE1       20.0340    7.7440  -10.6250 O.co2  99  GLU99      -0.2457
     32  OE2       19.0120    6.2710   -9.3240 O.co2  99  GLU99      -0.2457
     33  N         29.3800   -4.4440   -3.9730 N.3   187  TRP187     -0.1227
     34  CA        28.1940   -3.9790   -3.2580 C.3   187  TRP187      0.1737
     35  C         27.4390   -2.9730   -4.0510 C.2   187  TRP187      0.2595
     36  O         28.0110   -2.2270   -4.8230 O.2   187  TRP187     -0.2718
     37  CB        28.5680   -3.3270   -1.9170 C.3   187  TRP187      0.0564
     38  CG        29.2840   -4.2390   -0.9740 C.ar  187  TRP187      0.0003
     39  CD1       30.6600   -4.2890   -0.7070 C.ar  187  TRP187      0.0946
     40  CD2       28.6870   -5.2750   -0.1220 C.ar  187  TRP187      0.0152
     41  NE1       30.9360   -5.2740    0.2070 N.ar  187  TRP187     -0.2442
     42  CE2       29.7980   -5.9020    0.6000 C.ar  187  TRP187      0.0810
     43  CE3       27.3930   -5.7390    0.0930 C.ar  187  TRP187      0.0012
     44  CZ2       29.5980   -6.9280    1.4830 C.ar  187  TRP187      0.0191
     45  CZ3       27.2090   -6.7850    0.9910 C.ar  187  TRP187      0.0001
     46  CH2       28.2830   -7.3490    1.6830 C.ar  187  TRP187      0.0015
     47  N         26.1340   -2.9220   -3.7880 N.am  188  HIS188     -0.1961
     48  CA        25.2780   -1.8080   -4.1840 C.3   188  HIS188      0.1787
     49  C         24.2140   -1.6120   -3.1280 C.2   188  HIS188      0.2621
     50  O         23.5060   -2.5600   -2.7680 O.2   188  HIS188     -0.2715
     51  CB        24.6400   -2.0510   -5.5480 C.3   188  HIS188      0.0785
     52  CG        23.8560   -0.8740   -6.0440 C.ar  188  HIS188      0.0821
     53  ND1       24.3710    0.0320   -6.8850 N.ar  188  HIS188     -0.2267
     54  CD2       22.5670   -0.4480   -5.7490 C.ar  188  HIS188      0.1154
     55  CE1       23.4520    0.9890   -7.1160 C.ar  188  HIS188      0.1986
     56  NE2       22.3550    0.6960   -6.4170 N.ar  188  HIS188     -0.2212
     57  N         24.0760   -0.3940   -2.6160 N.am  189  GLY189     -0.1940
     58  CA        22.9790   -0.0780   -1.7030 C.3   189  GLY189      0.2014
     59  C         22.0040    0.9140   -2.3220 C.2   189  GLY189      0.2639
     60  O         22.3690    1.6500   -3.2210 O.2   189  GLY189     -0.2714
     61  N         20.7730    0.9720   -1.8020 N.am  190  SER190     -0.1949
     62  CA        19.7740    1.9130   -2.3280 C.3   190  SER190      0.1924
     63  C         18.6430    2.1710   -1.3250 C.2   190  SER190      0.2314
     64  O         18.4780    1.4440   -0.3400 O.2   190  SER190     -0.2863
     65  CB        19.2170    1.3720   -3.6710 C.3   190  SER190      0.2116
     66  OG        18.7590    2.4010   -4.5610 O.3   190  SER190     -0.2180
     67  N         25.4620   15.7250  -11.6900 N.3   214  GLY214     -0.1210
     68  CA        25.1470   14.8000  -10.5960 C.3   214  GLY214      0.1956
     69  C         26.1050   13.5960  -10.4110 C.2   214  GLY214      0.2612
     70  O         26.2430   13.0970   -9.2760 O.2   214  GLY214     -0.2717
     71  N         26.7490   13.1230  -11.4950 N.am  215  TYR215     -0.1962
     72  CA        27.4790   11.8200  -11.5000 C.3   215  TYR215      0.1771
     73  C         28.9860   11.9230  -11.5990 C.2   215  TYR215      0.2619
     74  O         29.5380   12.1510  -12.6600 O.2   215  TYR215     -0.2715
     75  CB        26.9880   10.8970  -12.6250 C.3   215  TYR215      0.0574
     76  CG        25.6070   10.4600  -12.3420 C.ar  215  TYR215     -0.0198
     77  CD1       25.3690    9.3160  -11.6040 C.ar  215  TYR215     -0.0009
     78  CD2       24.5190   11.2420  -12.7290 C.ar  215  TYR215     -0.0009
     79  CE1       24.0840    8.9270  -11.2950 C.ar  215  TYR215      0.0417
     80  CE2       23.2250   10.8600  -12.4210 C.ar  215  TYR215      0.0417
     81  CZ        23.0230    9.7040  -11.6980 C.ar  215  TYR215      0.1957
     82  OH        21.7490    9.3230  -11.3880 O.3   215  TYR215     -0.2866
     83  N         29.6250   11.6730  -10.4730 N.am  216  MET216     -0.1977
     84  CA        31.0580   11.7760  -10.3090 C.3   216  MET216      0.1605
     85  C         31.8650   11.1510  -11.4510 C.2   216  MET216      0.2287
     86  O         32.8490   11.7260  -11.9120 O.2   216  MET216     -0.2864
     87  CB        31.4360   11.1090   -8.9770 C.3   216  MET216      0.0413
     88  CG        32.7940   11.5480   -8.4680 C.3   216  MET216      0.0598
     89  SD        33.0680   11.2230   -6.7140 S.3   216  MET216     -0.1393
     90  CE        34.4730   12.3220   -6.4260 C.3   216  MET216      0.0692
     91  N         27.0320    2.2200  -10.1160 N.3   222  TYR222     -0.1227
     92  CA        28.1390    2.3770   -9.1510 C.3   222  TYR222      0.1736
     93  C         28.2070    1.2220   -8.1240 C.2   222  TYR222      0.2595
     94  O         27.1540    0.7610   -7.6160 O.2   222  TYR222     -0.2718
     95  CB        27.9720    3.7070   -8.4010 C.3   222  TYR222      0.0548
     96  CG        28.2630    4.9170   -9.2380 C.ar  222  TYR222     -0.0200
     97  CD1       27.4590    5.2660  -10.2970 C.ar  222  TYR222     -0.0009
     98  CD2       29.3570    5.7080   -8.9710 C.ar  222  TYR222     -0.0009
     99  CE1       27.7290    6.3900  -11.0570 C.ar  222  TYR222      0.0417
    100  CE2       29.6470    6.8120   -9.7340 C.ar  222  TYR222      0.0417
    101  CZ        28.8270    7.1510  -10.7680 C.ar  222  TYR222      0.1957
    102  OH        29.1270    8.2620  -11.4990 O.3   222  TYR222     -0.2866
    103  N         29.4240    0.7660   -7.8040 N.am  223  PHE223     -0.1962
    104  CA        29.6210   -0.2820   -6.7880 C.3   223  PHE223      0.1771
    105  C         30.7710    0.0860   -5.8530 C.2   223  PHE223      0.2619
    106  O         31.6070    0.9330   -6.1860 O.2   223  PHE223     -0.2715
    107  CB        29.8900   -1.6310   -7.4300 C.3   223  PHE223      0.0574
    108  CG        28.8630   -2.0470   -8.4490 C.ar  223  PHE223     -0.0200
    109  CD1       27.7930   -2.8740   -8.0980 C.ar  223  PHE223     -0.0042
    110  CD2       28.9740   -1.6440   -9.7880 C.ar  223  PHE223     -0.0042
    111  CE1       26.8460   -3.2770   -9.0510 C.ar  223  PHE223     -0.0003
    112  CE2       28.0060   -2.0290  -10.7310 C.ar  223  PHE223     -0.0003
    113  CZ        26.9620   -2.8580  -10.3640 C.ar  223  PHE223     -0.0000
    114  N         30.7970   -0.5210   -4.6680 N.am  224  ALA224     -0.1977
    115  CA        31.9560   -0.4250   -3.7540 C.3   224  ALA224      0.1597
    116  C         32.4760   -1.8030   -3.4010 C.2   224  ALA224      0.2287
    117  O         31.7380   -2.8060   -3.4340 O.2   224  ALA224     -0.2864
    118  CB        31.5990    0.3310   -2.4870 C.3   224  ALA224      0.0319
    119  N         30.3610    1.9180    2.3680 N.3   229  LYS229     -0.1231
    120  CA        30.2010    2.9580    1.3300 C.3   229  LYS229      0.1693
    121  C         28.8360    2.7850    0.6340 C.2   229  LYS229      0.2592
    122  O         28.0390    3.7300    0.5600 O.2   229  LYS229     -0.2718
    123  CB        31.3420    2.9490    0.3150 C.3   229  LYS229      0.0285
    124  CG        31.3740    4.1490   -0.6160 C.3   229  LYS229      0.0035
    125  CD        32.6930    4.2380   -1.3800 C.3   229  LYS229      0.0206
    126  CE        32.6870    5.2950   -2.4890 C.3   229  LYS229      0.1093
    127  NZ        34.0270    5.5260   -3.1250 N.3   229  LYS229     -0.1314
    128  N         28.5650    1.5600    0.1840 N.am  230  SER230     -0.1952
    129  CA        27.2780    1.1840   -0.3920 C.3   230  SER230      0.1924
    130  C         26.1140    1.3200    0.6000 C.2   230  SER230      0.2314
    131  O         25.0780    1.8930    0.2870 O.2   230  SER230     -0.2863
    132  CB        27.3550   -0.2550   -0.9430 C.3   230  SER230      0.2116
    133  OG        27.9770   -0.3110   -2.2290 O.3   230  SER230     -0.2180
    134  N         24.2210    4.4080    1.1120 N.3   233  TYR233     -0.1241
    135  CA        23.2200    4.7710    0.1260 C.3   233  TYR233      0.1605
    136  C         21.8760    4.0730    0.3390 C.2   233  TYR233      0.2264
    137  O         20.9420    4.2730   -0.4200 O.2   233  TYR233     -0.2867
    138  CB        23.7840    4.5510   -1.3090 C.3   233  TYR233      0.0534
    139  CG        24.8730    5.5590   -1.6590 C.ar  233  TYR233     -0.0201
    140  CD1       24.5520    6.8790   -1.9640 C.ar  233  TYR233     -0.0009
    141  CD2       26.2190    5.2070   -1.6330 C.ar  233  TYR233     -0.0009
    142  CE1       25.5450    7.8080   -2.2750 C.ar  233  TYR233      0.0417
    143  CE2       27.2160    6.1310   -1.9380 C.ar  233  TYR233      0.0417
    144  CZ        26.8670    7.4250   -2.2520 C.ar  233  TYR233      0.1957
    145  OH        27.8220    8.3560   -2.5180 O.3   233  TYR233     -0.2866
    146  N         20.4000    4.8050    3.0880 N.3   235  PHE235     -0.1241
    147  CA        19.8080    5.8630    3.9090 C.3   235  PHE235      0.1605
    148  C         18.9590    5.4160    5.0900 C.2   235  PHE235      0.2264
    149  O         17.9570    6.0390    5.4060 O.2   235  PHE235     -0.2867
    150  CB        19.0380    6.8460    3.0210 C.3   235  PHE235      0.0534
    151  CG        19.9250    7.6670    2.1420 C.ar  235  PHE235     -0.0203
    152  CD1       20.5020    8.8380    2.6250 C.ar  235  PHE235     -0.0042
    153  CD2       20.2130    7.2600    0.8460 C.ar  235  PHE235     -0.0042
    154  CE1       21.3360    9.6000    1.8250 C.ar  235  PHE235     -0.0003
    155  CE2       21.0410    8.0210    0.0490 C.ar  235  PHE235     -0.0003
    156  CZ        21.5960    9.1970    0.5390 C.ar  235  PHE235     -0.0000
    157  N         35.5260    3.1840   -5.8500 N.3   318  GLU318     -0.1245
    158  CA        34.2260    2.8870   -6.4470 C.3   318  GLU318      0.1567
    159  C         34.4030    2.3960   -7.8710 C.2   318  GLU318      0.2260
    160  O         35.4350    2.6630   -8.5160 O.2   318  GLU318     -0.2867
    161  CB        33.2600    4.0680   -6.3800 C.3   318  GLU318      0.0388
    162  CG        33.7190    5.3760   -6.9760 C.3   318  GLU318      0.1160
    163  CD        32.8440    6.5180   -6.4980 C.2   318  GLU318      0.3649
    164  OE1       31.9540    6.9530   -7.2540 O.co2 318  GLU318     -0.2457
    165  OE2       33.0250    6.9680   -5.3500 O.co2 318  GLU318     -0.2457
@<TRIPOS>BOND
     1    78    80   ar
     2    78    76   ar
     3    74    73    2
     4    75    76    1
     5    75    72    1
     6    80    81   ar
     7    76    77   ar
     8    86    85    2
     9    81    82    1
    10    81    79   ar
    11    67    68    1
    12    77    79   ar
    13    73    72    1
    14    73    83   am
    15    72    71    1
    16   102   101    1
    17    71    69   am
    18    85    84    1
    19    99   101   ar
    20    99    97   ar
    21    14    12    1
    22   101   100   ar
    23   112   113   ar
    24   112   110   ar
    25    31    30   ar
    26    68    69    1
    27    12    11    1
    28    83    84    1
    29    69    70    2
    30   113   111   ar
    31    84    87    1
    32    97    96   ar
    33    91    92    1
    34    30    29    1
    35    30    32   ar
    36    13    11    1
    37    29    28    1
    38   110   108   ar
    39   100    98   ar
    40    11     8    1
    41    25    24    1
    42    25    28    1
    43    25    26    1
    44    96    98   ar
    45    96    95    1
    46    92    95    1
    47    92    93    1
    48    27    26    2
    49   111   109   ar
    50    87    88    1
    51     8     9    1
    52     8     7    1
    53   160   159    2
    54    88    89    1
    55   108   109   ar
    56   108   107    1
    57    10     9    2
    58    93   103   am
    59    93    94    2
    60     9    15   am
    61   159   158    1
    62   103   104    1
    63   107   104    1
    64   164   163   ar
    65    55    53   ar
    66    55    56   ar
    67   162   163    1
    68   162   161    1
    69    53    52   ar
    70    15    16    1
    71   104   105    1
    72     1     2    1
    73    89    90    1
    74     2     5    1
    75     2     3    1
    76   163   165   ar
    77   158   161    1
    78   158   157    1
    79    56    54   ar
    80   106   105    2
    81     5     6    1
    82    52    54   ar
    83    52    51    1
    84     4     3    2
    85    16    17    1
    86    16    19    1
    87   105   114   am
    88    17    18    2
    89    51    48    1
    90    36    35    2
    91   114   115    1
    92    66    65    1
    93    20    19    1
    94    20    21    1
    95    48    47    1
    96    48    49    1
    97    35    47   am
    98    35    34    1
    99    33    34    1
   100   115   116    1
   101   115   118    1
   102    65    62    1
   103   117   116    2
   104    23    21   am
   105    34    37    1
   106    21    22    2
   107    60    59    2
   108    49    50    2
   109    49    57   am
   110   127   126    1
   111    57    58    1
   112   145   144    1
   113   126   125    1
   114    62    61    1
   115    62    63    1
   116    59    61   am
   117    59    58    1
   118   142   144   ar
   119   142   140   ar
   120   144   143   ar
   121   133   132    1
   122   140   139   ar
   123   143   141   ar
   124    37    38    1
   125   139   141   ar
   126   139   138    1
   127   125   124    1
   128    63    64    2
   129   138   135    1
   130    38    39   ar
   131    38    40   ar
   132   132   129    1
   133    39    41   ar
   134   124   123    1
   135   137   136    2
   136   129   128    1
   137   129   130    1
   138    40    43   ar
   139    40    42   ar
   140   155   156   ar
   141   155   153   ar
   142    43    45   ar
   143   135   136    1
   144   135   134    1
   145   128   121   am
   146    41    42   ar
   147   131   130    2
   148   123   120    1
   149   156   154   ar
   150   122   121    2
   151    42    44   ar
   152   121   120    1
   153   153   151   ar
   154    45    46   ar
   155   120   119    1
   156    44    46   ar
   157   154   152   ar
   158   151   152   ar
   159   151   150    1
   160   150   147    1
   161   146   147    1
   162   147   148    1
   163   148   149    2
