@<TRIPOS>MOLECULE
tmp/4pjxA01.pdb
 115 110 0 0 0
SMALL
GASTEIGER

@<TRIPOS>ATOM
      1  N         -3.9200   18.6100  164.4100 N.3    10  ARG10      -0.1245
      2  CA        -4.1900   17.9970  163.0960 C.3    10  ARG10       0.1563
      3  C         -5.2510   16.9490  163.2900 C.2    10  ARG10       0.2260
      4  O         -5.2340   16.2430  164.3060 O.2    10  ARG10      -0.2867
      5  CB        -2.9490   17.3710  162.4400 C.3    10  ARG10       0.0307
      6  CG        -1.7790   18.3200  162.2410 C.3    10  ARG10       0.0489
      7  CD        -0.6480   17.6650  161.4760 C.3    10  ARG10       0.2205
      8  NE         0.5550   18.4610  161.6770 N.pl3  10  ARG10      -0.0865
      9  CZ         1.8000   18.0110  161.5930 C.cat  10  ARG10       0.5346
     10  NH1        2.0390   16.7570  161.2270 N.pl3  10  ARG10       0.1354
     11  NH2        2.8170   18.8120  161.8630 N.pl3  10  ARG10       0.1354
     12  N          1.2220   12.9530  154.5360 N.3    71  MET71      -0.1245
     13  CA         1.8430   12.0730  155.5450 C.3    71  MET71       0.1570
     14  C          0.7960   11.5260  156.5040 C.2    71  MET71       0.2261
     15  O          0.8540   10.3450  156.8610 O.2    71  MET71      -0.2867
     16  CB         2.9500   12.8220  156.3170 C.3    71  MET71       0.0387
     17  CG         4.1530   13.1410  155.4320 C.3    71  MET71       0.0595
     18  SD         5.3400   14.3490  156.1410 S.3    71  MET71      -0.1393
     19  CE         6.5610   13.2620  156.7620 C.3    71  MET71       0.0692
     20  N         -0.1960    7.6120  157.1240 N.3    75  GLU75      -0.1245
     21  CA        -0.0610    7.0850  158.4790 C.3    75  GLU75       0.1567
     22  C         -1.3740    6.4940  158.9940 C.2    75  GLU75       0.2260
     23  O         -1.3370    5.4320  159.5930 O.2    75  GLU75      -0.2867
     24  CB         0.4760    8.1420  159.4480 C.3    75  GLU75       0.0388
     25  CG         1.9640    8.3850  159.2700 C.3    75  GLU75       0.1160
     26  CD         2.5590    9.6300  159.9140 C.2    75  GLU75       0.3649
     27  OE1        3.6660   10.0140  159.4800 O.co2  75  GLU75      -0.2457
     28  OE2        1.9460   10.2180  160.8380 O.co2  75  GLU75      -0.2457
     29  N         -3.3120   14.7520  166.0280 N.3    93  ARG93      -0.1245
     30  CA        -2.0380   15.1990  166.5390 C.3    93  ARG93       0.1563
     31  C         -2.2160   16.5160  167.3010 C.2    93  ARG93       0.2260
     32  O         -3.0180   17.3780  166.9120 O.2    93  ARG93      -0.2867
     33  CB        -1.0130   15.3790  165.3800 C.3    93  ARG93       0.0307
     34  CG         0.4360   15.6040  165.8320 C.3    93  ARG93       0.0489
     35  CD         1.2020   16.1210  164.6580 C.3    93  ARG93       0.2205
     36  NE         2.6500   15.8980  164.7540 N.pl3  93  ARG93      -0.0865
     37  CZ         3.5560   16.8700  164.8120 C.cat  93  ARG93       0.5346
     38  NH1        3.1750   18.1390  164.9210 N.pl3  93  ARG93       0.1354
     39  NH2        4.8500   16.5760  164.8270 N.pl3  93  ARG93       0.1354
     40  N         -0.3170   11.8770  169.7820 N.3   111  TYR111     -0.1241
     41  CA        -1.1520   11.3370  168.7030 C.3   111  TYR111      0.1605
     42  C         -2.2960   10.5430  169.3110 C.2   111  TYR111      0.2264
     43  O         -2.1840    9.9890  170.4230 O.2   111  TYR111     -0.2867
     44  CB        -0.3460   10.4550  167.7400 C.3   111  TYR111      0.0534
     45  CG         0.5480   11.2200  166.7900 C.ar  111  TYR111     -0.0201
     46  CD1        1.8390   11.5940  167.1610 C.ar  111  TYR111     -0.0009
     47  CD2        0.1270   11.5140  165.4940 C.ar  111  TYR111     -0.0009
     48  CE1        2.6710   12.2830  166.2750 C.ar  111  TYR111      0.0417
     49  CE2        0.9530   12.1770  164.5930 C.ar  111  TYR111      0.0417
     50  CZ         2.2230   12.5560  164.9850 C.ar  111  TYR111      0.1957
     51  OH         3.0020   13.2050  164.0800 O.3   111  TYR111     -0.2866
     52  N          8.9090    7.6530  172.8860 N.3   128  TRP128     -0.1241
     53  CA         7.4660    7.6510  172.7280 C.3   128  TRP128      0.1605
     54  C          6.8420    6.6610  173.6640 C.2   128  TRP128      0.2264
     55  O          7.3370    5.5430  173.7860 O.2   128  TRP128     -0.2867
     56  CB         7.1520    7.2740  171.2820 C.3   128  TRP128      0.0550
     57  CG         7.4150    8.3900  170.3130 C.ar  128  TRP128      0.0003
     58  CD1        8.5350    8.5780  169.5550 C.ar  128  TRP128      0.0946
     59  CD2        6.5320    9.4680  170.0010 C.ar  128  TRP128      0.0152
     60  NE1        8.3820    9.6890  168.7510 N.ar  128  TRP128     -0.2442
     61  CE2        7.1620   10.2540  169.0060 C.ar  128  TRP128      0.0810
     62  CE3        5.2430    9.8300  170.4400 C.ar  128  TRP128      0.0012
     63  CZ2        6.5670   11.3940  168.4670 C.ar  128  TRP128      0.0191
     64  CZ3        4.6360   10.9430  169.8780 C.ar  128  TRP128      0.0001
     65  CH2        5.2960   11.7140  168.9070 C.ar  128  TRP128      0.0015
     66  N          9.5360    2.0330  165.1250 N.3   141  ALA141     -0.1231
     67  CA         9.8990    2.6200  163.8380 C.3   141  ALA141      0.1694
     68  C         10.3590    4.0900  163.9850 C.2   141  ALA141      0.2592
     69  O         11.3950    4.4700  163.4290 O.2   141  ALA141     -0.2718
     70  CB         8.7340    2.5190  162.8470 C.3   141  ALA141      0.0304
     71  N          9.6060    4.8930  164.7340 N.am  142  TRP142     -0.1976
     72  CA         9.9130    6.3180  164.9250 C.3   142  TRP142      0.1640
     73  C         11.2090    6.5390  165.7480 C.2   142  TRP142      0.2290
     74  O         12.0140    7.4150  165.3940 O.2   142  TRP142     -0.2864
     75  CB         8.7180    7.0370  165.5690 C.3   142  TRP142      0.0576
     76  CG         7.5340    7.2070  164.6460 C.ar  142  TRP142      0.0006
     77  CD1        7.3870    6.7010  163.3870 C.ar  142  TRP142      0.0946
     78  CD2        6.3210    7.9290  164.9330 C.ar  142  TRP142      0.0152
     79  NE1        6.1390    7.0370  162.8800 N.ar  142  TRP142     -0.2442
     80  CE2        5.4790    7.8170  163.7960 C.ar  142  TRP142      0.0810
     81  CE3        5.8620    8.6600  166.0440 C.ar  142  TRP142      0.0012
     82  CZ2        4.2250    8.4540  163.7200 C.ar  142  TRP142      0.0191
     83  CZ3        4.6090    9.2540  165.9870 C.ar  142  TRP142      0.0001
     84  CH2        3.8140    9.1740  164.8250 C.ar  142  TRP142      0.0015
     85  N         13.8410    4.7770  165.7500 N.3   144  ALA144     -0.1231
     86  CA        14.9980    4.3980  164.9290 C.3   144  ALA144      0.1694
     87  C         15.6680    5.6460  164.3020 C.2   144  ALA144      0.2592
     88  O         16.8120    5.5650  163.8410 O.2   144  ALA144     -0.2718
     89  CB        14.5650    3.4290  163.8380 C.3   144  ALA144      0.0304
     90  N         14.9540    6.7950  164.2930 N.am  145  ASN145     -0.1974
     91  CA        15.4500    8.0610  163.7460 C.3   145  ASN145      0.1688
     92  C         15.7430    9.0190  164.8800 C.2   145  ASN145      0.2292
     93  O         14.9130    9.8490  165.2090 O.2   145  ASN145     -0.2864
     94  CB        14.4330    8.6420  162.7610 C.3   145  ASN145      0.1181
     95  CG        14.8660    9.8670  161.9710 C.2   145  ASN145      0.2629
     96  OD1       15.9340   10.4770  162.1730 O.2   145  ASN145     -0.2716
     97  ND2       14.0270   10.2550  161.0260 N.am  145  ASN145     -0.0877
     98  N         15.3350   13.0200  164.3700 N.3   148  GLU148     -0.1245
     99  CA        13.9690   13.5310  164.4560 C.3   148  GLU148      0.1567
    100  C         13.5310   13.7560  165.9380 C.2   148  GLU148      0.2260
    101  O         12.9110   14.7750  166.2210 O.2   148  GLU148     -0.2867
    102  CB        13.0220   12.5810  163.7490 C.3   148  GLU148      0.0388
    103  CG        11.5820   13.0390  163.7600 C.3   148  GLU148      0.1160
    104  CD        10.6700   12.1100  162.9660 C.2   148  GLU148      0.3649
    105  OE1       10.1890   12.5320  161.8890 O.co2 148  GLU148     -0.2457
    106  OE2       10.4740   10.9440  163.3900 O.co2 148  GLU148     -0.2457
    107  N         12.6170   17.3410  167.5080 N.3   152  GLN152     -0.1245
    108  CA        11.3420   17.5620  168.1890 C.3   152  GLN152      0.1566
    109  C         11.5750   18.1280  169.5750 C.2   152  GLN152      0.2260
    110  O         10.8710   19.0620  169.9560 O.2   152  GLN152     -0.2867
    111  CB        10.5200   16.2690  168.2310 C.3   152  GLN152      0.0367
    112  CG         9.9320   16.0060  166.8260 C.3   152  GLN152      0.0905
    113  CD         9.3580   14.6380  166.5980 C.2   152  GLN152      0.2608
    114  OE1        9.7610   13.6560  167.2120 O.2   152  GLN152     -0.2717
    115  NE2        8.4570   14.5470  165.6310 N.am  152  GLN152     -0.0878
@<TRIPOS>BOND
     1    12    13    1
     2    17    18    1
     3    17    16    1
     4    13    16    1
     5    13    14    1
     6    18    19    1
     7    14    15    2
     8    20    21    1
     9    21    22    1
    10    21    24    1
    11    22    23    2
    12    25    24    1
    13    25    26    1
    14    27    26   ar
    15    26    28   ar
    16    97    95   am
    17    10     9    1
    18     7     8    1
    19     7     6    1
    20     9     8    2
    21     9    11    1
    22   105   104   ar
    23    95    96    2
    24    95    94    1
    25     6     5    1
    26     5     2    1
    27    94    91    1
    28    70    67    1
    29    79    77   ar
    30    79    80   ar
    31   104   106   ar
    32   104   103    1
    33     2     3    1
    34     2     1    1
    35     3     4    2
    36    77    76   ar
    37    69    68    2
    38    82    80   ar
    39    82    84   ar
    40    91    90    1
    41    91    92    1
    42   102   103    1
    43   102    99    1
    44    80    78   ar
    45    89    86    1
    46    67    68    1
    47    67    66    1
    48    88    87    2
    49    68    71   am
    50    51    50    1
    51    90    87   am
    52    87    86    1
    53    98    99    1
    54    99   100    1
    55    49    50   ar
    56    49    47   ar
    57    76    78   ar
    58    76    75    1
    59    35    36    1
    60    35    34    1
    61    71    72    1
    62    36    37    2
    63    37    39    1
    64    37    38    1
    65    84    83   ar
    66    92    93    2
    67    72    75    1
    68    72    73    1
    69    86    85    1
    70    78    81   ar
    71    50    48   ar
    72    33    34    1
    73    33    30    1
    74    74    73    2
    75    47    45   ar
    76   115   113   am
    77   100   101    2
    78    83    81   ar
    79    29    30    1
    80    48    46   ar
    81    30    31    1
    82   113   112    1
    83   113   114    2
    84    45    46   ar
    85    45    44    1
    86   112   111    1
    87    32    31    2
    88   107   108    1
    89    44    41    1
    90   108   111    1
    91   108   109    1
    92    63    65   ar
    93    63    61   ar
    94    41    42    1
    95    41    40    1
    96    60    61   ar
    97    60    58   ar
    98    65    64   ar
    99    61    59   ar
   100    42    43    2
   101    58    57   ar
   102   109   110    2
   103    64    62   ar
   104    59    57   ar
   105    59    62   ar
   106    57    56    1
   107    56    53    1
   108    53    52    1
   109    53    54    1
   110    54    55    2
