@<TRIPOS>MOLECULE
tmp/4pk0B00.pdb
 86 82 0 0 0
SMALL
GASTEIGER

@<TRIPOS>ATOM
      1  N         19.9000   14.4270   23.1650 N.3     8  ARG8       -0.1245
      2  CA        20.7340   14.8260   24.2840 C.3     8  ARG8        0.1563
      3  C         20.6390   16.3190   24.5490 C.2     8  ARG8        0.2260
      4  O         20.6360   16.7580   25.6940 O.2     8  ARG8       -0.2867
      5  CB        22.1620   14.3570   24.0650 C.3     8  ARG8        0.0307
      6  CG        22.2950   12.8820   24.4180 C.3     8  ARG8        0.0489
      7  CD        23.6760   12.3580   24.0940 C.3     8  ARG8        0.2205
      8  NE        24.7100   13.0730   24.8320 N.pl3   8  ARG8       -0.0865
      9  CZ        26.0110   12.9350   24.6100 C.cat   8  ARG8        0.5346
     10  NH1       26.4400   12.0870   23.6810 N.pl3   8  ARG8        0.1354
     11  NH2       26.8860   13.6380   25.3240 N.pl3   8  ARG8        0.1354
     12  N         16.7570   16.5700   26.0440 N.3    11  GLU11      -0.1231
     13  CA        16.3510   15.7990   27.2390 C.3    11  GLU11       0.1699
     14  C         17.1350   16.1140   28.5320 C.2    11  GLU11       0.2593
     15  O         16.6150   15.9860   29.6570 O.2    11  GLU11      -0.2718
     16  CB        16.4430   14.3050   26.9440 C.3    11  GLU11       0.0402
     17  CG        15.2900   13.7930   26.0970 C.3    11  GLU11       0.1161
     18  CD        13.9840   13.7170   26.8660 C.2    11  GLU11       0.3649
     19  OE1       14.0350   13.7670   28.1020 O.co2  11  GLU11      -0.2457
     20  OE2       12.9080   13.6040   26.2370 O.co2  11  GLU11      -0.2457
     21  N         18.3880   16.5130   28.4010 N.am   12  GLY12      -0.1942
     22  CA        19.1970   16.6390   29.6110 C.3    12  GLY12       0.2014
     23  C         19.5560   15.2830   30.2290 C.2    12  GLY12       0.2639
     24  O         19.3020   14.2140   29.6470 O.2    12  GLY12      -0.2714
     25  N         20.1380   15.3390   31.4210 N.am   13  LEU13      -0.1963
     26  CA        20.8880   14.2090   31.9570 C.3    13  LEU13       0.1728
     27  C         20.9210   14.2180   33.4750 C.2    13  LEU13       0.2616
     28  O         21.1840   15.2650   34.0790 O.2    13  LEU13      -0.2715
     29  CB        22.3170   14.3070   31.4370 C.3    13  LEU13       0.0311
     30  CG        23.3390   13.2610   31.8680 C.3    13  LEU13       0.0022
     31  CD1       23.0220   11.9270   31.2210 C.3    13  LEU13       0.0001
     32  CD2       24.7290   13.7390   31.4890 C.3    13  LEU13       0.0001
     33  N         20.6680   13.0580   34.0830 N.am   14  ARG14      -0.1963
     34  CA        20.9910   12.8460   35.4970 C.3    14  ARG14       0.1729
     35  C         21.7200   11.5130   35.7620 C.2    14  ARG14       0.2616
     36  O         21.4050   10.4690   35.1970 O.2    14  ARG14      -0.2715
     37  CB        19.7320   12.9400   36.3540 C.3    14  ARG14       0.0348
     38  CG        19.3060   14.3750   36.6950 C.3    14  ARG14       0.0492
     39  CD        20.0660   14.9540   37.9000 C.3    14  ARG14       0.2205
     40  NE        19.6980   14.3140   39.1800 N.pl3  14  ARG14      -0.0865
     41  CZ        19.7690   14.9010   40.3800 C.cat  14  ARG14       0.5346
     42  NH1       20.2000   16.1530   40.4890 N.pl3  14  ARG14       0.1354
     43  NH2       19.3990   14.2380   41.4820 N.pl3  14  ARG14       0.1354
     44  N         22.7210   11.5560   36.6160 N.am   15  LEU15      -0.1963
     45  CA        23.3730   10.3370   37.0360 C.3    15  LEU15       0.1728
     46  C         22.8090    9.8650   38.3490 C.2    15  LEU15       0.2616
     47  O         23.1650    8.7830   38.8010 O.2    15  LEU15      -0.2715
     48  CB        24.8780   10.5450   37.1550 C.3    15  LEU15       0.0311
     49  CG        25.5580   10.8420   35.8250 C.3    15  LEU15       0.0022
     50  CD1       27.0660   10.7660   36.0500 C.3    15  LEU15       0.0001
     51  CD2       25.1260    9.8960   34.7210 C.3    15  LEU15       0.0001
     52  N         21.9260   10.6620   38.9510 N.am   16  LYS16      -0.1977
     53  CA        21.2540   10.2740   40.1770 C.3    16  LYS16       0.1596
     54  C         19.7350   10.4210   40.0570 C.2    16  LYS16       0.2287
     55  O         19.2360   11.3480   39.4040 O.2    16  LYS16      -0.2864
     56  CB        21.7660   11.1140   41.3370 C.3    16  LYS16       0.0298
     57  CG        21.3300   10.6030   42.6900 C.3    16  LYS16       0.0038
     58  CD        21.8210   11.4860   43.8100 C.3    16  LYS16       0.0206
     59  CE        21.1260   11.1310   45.1110 C.3    16  LYS16       0.1093
     60  NZ        21.6280   11.9580   46.2390 N.3    16  LYS16      -0.1314
     61  N         16.0430   11.3760   40.1980 N.3    18  TYR18      -0.1241
     62  CA        15.4630   12.7050   40.3060 C.3    18  TYR18       0.1605
     63  C         13.9340   12.6560   40.1800 C.2    18  TYR18       0.2264
     64  O         13.3790   11.9450   39.3280 O.2    18  TYR18      -0.2867
     65  CB        16.0780   13.5850   39.2270 C.3    18  TYR18       0.0534
     66  CG        15.5110   14.9770   39.1360 C.ar   18  TYR18      -0.0201
     67  CD1       15.8060   15.9490   40.1030 C.ar   18  TYR18      -0.0009
     68  CD2       14.6980   15.3420   38.0650 C.ar   18  TYR18      -0.0009
     69  CE1       15.2920   17.2460   40.0030 C.ar   18  TYR18       0.0417
     70  CE2       14.1790   16.6250   37.9620 C.ar   18  TYR18       0.0417
     71  CZ        14.4790   17.5750   38.9210 C.ar   18  TYR18       0.1957
     72  OH        13.9650   18.8380   38.7730 O.3    18  TYR18      -0.2866
     73  N         27.9880    7.1580   33.5090 N.3    60  LYS60      -0.1245
     74  CA        27.6010    7.6570   32.1870 C.3    60  LYS60       0.1561
     75  C         27.2730    6.4910   31.2500 C.2    60  LYS60       0.2260
     76  O         26.3090    6.5530   30.4950 O.2    60  LYS60      -0.2867
     77  CB        28.6980    8.5230   31.5640 C.3    60  LYS60       0.0271
     78  CG        28.8250    9.8940   32.1890 C.3    60  LYS60       0.0035
     79  CD        30.2500   10.4450   32.1050 C.3    60  LYS60       0.0206
     80  CE        30.3750   11.7930   32.8090 C.3    60  LYS60       0.1093
     81  NZ        31.6510   11.9000   33.5680 N.3    60  LYS60      -0.1314
     82  N         25.3340   25.9950   26.0230 N.3   165  ALA165     -0.1245
     83  CA        24.8240   25.7780   27.3840 C.3   165  ALA165      0.1562
     84  C         24.8980   27.0520   28.2380 C.2   165  ALA165      0.2260
     85  O         25.7080   27.9310   27.9760 O.2   165  ALA165     -0.2867
     86  CB        25.5950   24.6520   28.0550 C.3   165  ALA165      0.0290
@<TRIPOS>BOND
     1     1     2    1
     2    10     9    1
     3     5     2    1
     4     5     6    1
     5     7     6    1
     6     7     8    1
     7     2     3    1
     8     3     4    2
     9     9     8    2
    10     9    11    1
    11    82    83    1
    12    12    13    1
    13    17    18    1
    14    17    16    1
    15    20    18   ar
    16    18    19   ar
    17    16    13    1
    18    13    14    1
    19    83    86    1
    20    83    84    1
    21    85    84    2
    22    21    14   am
    23    21    22    1
    24    14    15    2
    25    22    23    1
    26    24    23    2
    27    23    25   am
    28    76    75    2
    29    31    30    1
    30    75    74    1
    31    25    26    1
    32    29    30    1
    33    29    26    1
    34    32    30    1
    35    77    74    1
    36    77    78    1
    37    26    27    1
    38    79    78    1
    39    79    80    1
    40    74    73    1
    41    80    81    1
    42    27    28    2
    43    27    33   am
    44    33    34    1
    45    51    49    1
    46    36    35    2
    47    34    35    1
    48    34    37    1
    49    35    44   am
    50    49    50    1
    51    49    48    1
    52    37    38    1
    53    44    45    1
    54    38    39    1
    55    45    48    1
    56    45    46    1
    57    39    40    1
    58    70    68   ar
    59    70    71   ar
    60    68    66   ar
    61    46    47    2
    62    46    52   am
    63    72    71    1
    64    71    69   ar
    65    52    53    1
    66    66    65    1
    67    66    67   ar
    68    40    41    2
    69    65    62    1
    70    64    63    2
    71    55    54    2
    72    69    67   ar
    73    54    53    1
    74    53    56    1
    75    63    62    1
    76    61    62    1
    77    41    42    1
    78    41    43    1
    79    56    57    1
    80    57    58    1
    81    58    59    1
    82    59    60    1
