@<TRIPOS>MOLECULE
tmp/4pk3A01.pdb
 225 225 0 0 0
SMALL
GASTEIGER

@<TRIPOS>ATOM
      1  N         -9.9020   -2.5240  -11.6740 N.3    49  ALA49      -0.1231
      2  CA        -9.3650   -2.8470  -10.3540 C.3    49  ALA49       0.1694
      3  C        -10.4730   -3.0530   -9.3130 C.2    49  ALA49       0.2591
      4  O        -10.2530   -3.7150   -8.2900 O.2    49  ALA49      -0.2718
      5  CB        -8.4190   -1.7260   -9.9030 C.3    49  ALA49       0.0304
      6  N        -11.6550   -2.5000   -9.5740 N.am   50  GLN50      -0.1979
      7  CA       -12.7790   -2.5630   -8.6370 C.3    50  GLN50       0.1601
      8  C        -13.8740   -3.5070   -9.1080 C.2    50  GLN50       0.2287
      9  O        -14.9970   -3.4770   -8.5920 O.2    50  GLN50      -0.2864
     10  CB       -13.3930   -1.1830   -8.4530 C.3    50  GLN50       0.0394
     11  CG       -12.4890   -0.1750   -7.8170 C.3    50  GLN50       0.0908
     12  CD       -13.2280    1.0960   -7.5260 C.2    50  GLN50       0.2608
     13  OE1      -14.1950    1.1030   -6.7720 O.2    50  GLN50      -0.2717
     14  NE2      -12.7920    2.1720   -8.1320 N.am   50  GLN50      -0.0878
     15  N        -15.9940   10.5660   -1.5100 N.3   113  ILE113     -0.1245
     16  CA       -14.9630    9.8930   -2.3020 C.3   113  ILE113      0.1561
     17  C        -15.6840    9.0560   -3.3440 C.2   113  ILE113      0.2260
     18  O        -16.4430    8.1390   -3.0030 O.2   113  ILE113     -0.2867
     19  CB       -14.0360    9.0160   -1.4290 C.3   113  ILE113      0.0252
     20  CG1      -13.4540    9.8220   -0.2320 C.3   113  ILE113      0.0019
     21  CG2      -12.9480    8.3920   -2.3180 C.3   113  ILE113      0.0019
     22  CD1      -12.7330   11.1240   -0.6320 C.3   113  ILE113      0.0001
     23  N        -14.0770    8.0420   -6.6480 N.3   115  ASP115     -0.1225
     24  CA       -13.2030    7.0940   -7.3510 C.3   115  ASP115      0.1805
     25  C        -11.7970    7.3120   -6.8010 C.2   115  ASP115      0.2598
     26  O        -11.4420    8.4220   -6.4610 O.2   115  ASP115     -0.2718
     27  CB       -13.2930    7.2960   -8.8670 C.3   115  ASP115      0.1424
     28  CG       -12.7950    6.1020   -9.6660 C.2   115  ASP115      0.3668
     29  OD1      -12.2700    5.1260   -9.0860 O.co2 115  ASP115     -0.2456
     30  OD2      -12.9290    6.1490  -10.9170 O.co2 115  ASP115     -0.2456
     31  N        -11.0040    6.2610   -6.6930 N.am  116  PHE116     -0.1962
     32  CA        -9.6830    6.3580   -6.0690 C.3   116  PHE116      0.1771
     33  C         -8.9120    5.1480   -6.5600 C.2   116  PHE116      0.2620
     34  O         -9.3500    4.0140   -6.3590 O.2   116  PHE116     -0.2715
     35  CB        -9.8770    6.3110   -4.5360 C.3   116  PHE116      0.0574
     36  CG        -8.6460    6.5760   -3.6910 C.ar  116  PHE116     -0.0200
     37  CD1       -7.4700    7.0920   -4.1990 C.ar  116  PHE116     -0.0042
     38  CD2       -8.7020    6.2910   -2.3420 C.ar  116  PHE116     -0.0042
     39  CE1       -6.3750    7.3240   -3.3570 C.ar  116  PHE116     -0.0003
     40  CE2       -7.6350    6.5270   -1.5000 C.ar  116  PHE116     -0.0003
     41  CZ        -6.4580    7.0380   -2.0110 C.ar  116  PHE116     -0.0000
     42  N         -7.7680    5.3890   -7.1970 N.am  117  TYR117     -0.1960
     43  CA        -6.9680    4.3290   -7.7910 C.3   117  TYR117      0.1771
     44  C         -5.5000    4.7020   -7.8890 C.2   117  TYR117      0.2619
     45  O         -5.1660    5.8130   -8.3010 O.2   117  TYR117     -0.2715
     46  CB        -7.5200    4.0260   -9.1850 C.3   117  TYR117      0.0574
     47  CG        -6.6210    3.1840  -10.0560 C.ar  117  TYR117     -0.0198
     48  CD1       -6.5480    1.8090   -9.8810 C.ar  117  TYR117     -0.0009
     49  CD2       -5.8580    3.7620  -11.0650 C.ar  117  TYR117     -0.0009
     50  CE1       -5.7240    1.0220  -10.6940 C.ar  117  TYR117      0.0417
     51  CE2       -5.0310    2.9910  -11.8750 C.ar  117  TYR117      0.0417
     52  CZ        -4.9730    1.6310  -11.6910 C.ar  117  TYR117      0.1957
     53  OH        -4.1390    0.8980  -12.5230 O.3   117  TYR117     -0.2866
     54  N         -4.6430    3.7470   -7.5320 N.am  118  ILE118     -0.1977
     55  CA        -3.2040    3.8390   -7.6940 C.3   118  ILE118      0.1596
     56  C         -2.7720    2.6480   -8.5630 C.2   118  ILE118      0.2287
     57  O         -3.2160    1.5160   -8.3300 O.2   118  ILE118     -0.2864
     58  CB        -2.5100    3.7460   -6.3490 C.3   118  ILE118      0.0276
     59  CG1       -2.9060    4.9170   -5.4490 C.3   118  ILE118      0.0022
     60  CG2       -1.0060    3.6550   -6.5090 C.3   118  ILE118      0.0022
     61  CD1       -2.4820    6.2790   -5.9070 C.3   118  ILE118      0.0001
     62  N          1.0910    0.1540   -5.8950 N.3   123  GLN123     -0.1231
     63  CA         0.2400    0.1570   -4.6960 C.3   123  GLN123      0.1698
     64  C          1.0790   -0.2310   -3.4850 C.2   123  GLN123      0.2592
     65  O          2.1260   -0.8620   -3.6030 O.2   123  GLN123     -0.2718
     66  CB        -0.9240   -0.8280   -4.8560 C.3   123  GLN123      0.0381
     67  CG        -1.9900   -0.3230   -5.8250 C.3   123  GLN123      0.0905
     68  CD        -3.0580   -1.3300   -6.1390 C.2   123  GLN123      0.2608
     69  OE1       -3.1410   -2.3690   -5.5060 O.2   123  GLN123     -0.2717
     70  NE2       -3.8630   -1.0390   -7.1320 N.am  123  GLN123     -0.0878
     71  N          0.6100    0.1830   -2.3110 N.am  124  ARG124     -0.1966
     72  CA         1.2670   -0.1240   -1.0470 C.3   124  ARG124      0.1729
     73  C          2.6740    0.4920   -0.9790 C.2   124  ARG124      0.2616
     74  O          3.5450    0.0120   -0.2480 O.2   124  ARG124     -0.2715
     75  CB         1.2470   -1.6380   -0.7750 C.3   124  ARG124      0.0348
     76  CG        -0.1700   -2.1940   -0.6090 C.3   124  ARG124      0.0492
     77  CD        -0.1330   -3.6470   -0.2020 C.3   124  ARG124      0.2205
     78  NE        -0.7940   -3.8930    1.0680 N.pl3 124  ARG124     -0.0865
     79  CZ        -1.5280   -4.9780    1.3190 C.cat 124  ARG124      0.5346
     80  NH1       -1.7190   -5.8980    0.3890 N.pl3 124  ARG124      0.1354
     81  NH2       -2.1010   -5.1410    2.4910 N.pl3 124  ARG124      0.1354
     82  N          2.8650    1.5770   -1.7370 N.am  125  HIS125     -0.1959
     83  CA         4.1130    2.3640   -1.6950 C.3   125  HIS125      0.1787
     84  C          3.9030    3.7350   -1.0470 C.2   125  HIS125      0.2621
     85  O          4.7970    4.5750   -1.1140 O.2   125  HIS125     -0.2715
     86  CB         4.6950    2.5860   -3.1060 C.3   125  HIS125      0.0785
     87  CG         5.2560    1.3570   -3.7450 C.ar  125  HIS125      0.0821
     88  ND1        5.7930    1.3660   -5.0150 N.ar  125  HIS125     -0.2267
     89  CD2        5.3840    0.0900   -3.2910 C.ar  125  HIS125      0.1154
     90  CE1        6.2260    0.1550   -5.3160 C.ar  125  HIS125      0.1986
     91  NE2        5.9760   -0.6410   -4.2930 N.ar  125  HIS125     -0.2212
     92  N          2.7260    3.9630   -0.4590 N.am  126  GLY126     -0.1940
     93  CA         2.3940    5.2190    0.1820 C.3   126  GLY126      0.2014
     94  C          1.7690    6.2790   -0.6890 C.2   126  GLY126      0.2639
     95  O          1.4350    7.3470   -0.1870 O.2   126  GLY126     -0.2714
     96  N          1.5860    6.0140   -1.9800 N.am  127  HIS127     -0.1959
     97  CA         1.0650    7.0360   -2.8780 C.3   127  HIS127      0.1787
     98  C         -0.3850    7.3690   -2.5640 C.2   127  HIS127      0.2621
     99  O         -0.7680    8.5370   -2.6070 O.2   127  HIS127     -0.2715
    100  CB         1.1800    6.5880   -4.3380 C.3   127  HIS127      0.0785
    101  CG         2.5820    6.3600   -4.7980 C.ar  127  HIS127      0.0821
    102  ND1        3.5510    7.3400   -4.7640 N.ar  127  HIS127     -0.2267
    103  CD2        3.1660    5.2700   -5.3440 C.ar  127  HIS127      0.1154
    104  CE1        4.6840    6.8520   -5.2380 C.ar  127  HIS127      0.1986
    105  NE2        4.4770    5.5940   -5.5920 N.ar  127  HIS127     -0.2212
    106  N         -1.1850    6.3720   -2.2390 N.am  128  GLY128     -0.1940
    107  CA        -2.5690    6.6200   -1.9150 C.3   128  GLY128      0.2014
    108  C         -2.7140    7.5400   -0.6990 C.2   128  GLY128      0.2638
    109  O         -3.5120    8.4800   -0.7150 O.2   128  GLY128     -0.2714
    110  N         -1.9190    7.3070    0.3480 N.am  129  ARG129     -0.1977
    111  CA        -1.9730    8.1600    1.5160 C.3   129  ARG129      0.1597
    112  C         -1.5700    9.5950    1.1690 C.2   129  ARG129      0.2287
    113  O         -2.1940   10.5460    1.6330 O.2   129  ARG129     -0.2864
    114  CB        -1.1280    7.6020    2.6560 C.3   129  ARG129      0.0334
    115  CG        -1.3360    8.3620    3.9510 C.3   129  ARG129      0.0492
    116  CD        -0.3010    8.0060    5.0000 C.3   129  ARG129      0.2205
    117  NE        -0.6160    8.6460    6.2750 N.pl3 129  ARG129     -0.0865
    118  CZ        -0.2910    9.8960    6.5910 C.cat 129  ARG129      0.5346
    119  NH1        0.3830   10.6500    5.7320 N.pl3 129  ARG129      0.1354
    120  NH2       -0.6330   10.3940    7.7780 N.pl3 129  ARG129      0.1354
    121  N        -18.3670    7.6410    1.3160 N.3   148  ILE148     -0.1231
    122  CA       -17.6660    6.9710    0.2390 C.3   148  ILE148      0.1692
    123  C        -18.6380    6.1570   -0.5780 C.2   148  ILE148      0.2592
    124  O        -19.4370    5.3880   -0.0350 O.2   148  ILE148     -0.2718
    125  CB       -16.5350    6.1140    0.7800 C.3   148  ILE148      0.0266
    126  CG1      -15.6260    6.9870    1.6650 C.3   148  ILE148      0.0019
    127  CG2      -15.7560    5.5160   -0.3960 C.3   148  ILE148      0.0020
    128  CD1      -14.3540    6.3670    2.1210 C.3   148  ILE148      0.0001
    129  N        -18.5690    6.3220   -1.8910 N.am  149  ASP149     -0.1960
    130  CA       -19.3610    5.4860   -2.7850 C.3   149  ASP149      0.1840
    131  C        -18.7890    4.0600   -2.7760 C.2   149  ASP149      0.2622
    132  O        -17.6100    3.8600   -3.1010 O.2   149  ASP149     -0.2715
    133  CB       -19.3750    6.0740   -4.1910 C.3   149  ASP149      0.1450
    134  CG       -20.4590    5.4760   -5.0850 C.2   149  ASP149      0.3671
    135  OD1      -21.2310    4.6170   -4.6090 O.co2 149  ASP149     -0.2456
    136  OD2      -20.5600    5.8970   -6.2590 O.co2 149  ASP149     -0.2456
    137  N        -19.6040    3.1070   -2.3270 N.am  150  ARG150     -0.1964
    138  CA       -19.3020    1.6690   -2.3680 C.3   150  ARG150      0.1714
    139  C        -17.8130    1.3320   -2.2220 C.2   150  ARG150      0.2458
    140  O        -17.1840    0.8280   -3.1450 O.2   150  ARG150     -0.2730
    141  CB       -19.8610    1.0440   -3.6530 C.3   150  ARG150      0.0347
    142  CG       -20.0570   -0.4800   -3.5520 C.3   150  ARG150      0.0492
    143  CD       -19.9820   -1.1900   -4.9070 C.3   150  ARG150      0.2205
    144  NE       -18.6070   -1.1740   -5.4060 N.pl3 150  ARG150     -0.0865
    145  CZ       -18.1610   -1.9300   -6.4070 C.cat 150  ARG150      0.5346
    146  NH1      -18.9860   -2.7600   -7.0290 N.pl3 150  ARG150      0.1354
    147  NH2      -16.8910   -1.8550   -6.7830 N.pl3 150  ARG150      0.1354
    148  N        -17.2470    1.6130   -1.0470 N.am  151  PRO151     -0.2716
    149  CA       -15.8050    1.4300   -0.8730 C.3   151  PRO151      0.1536
    150  C        -15.4010   -0.0300   -0.9850 C.2   151  PRO151      0.2599
    151  O        -16.1020   -0.9210   -0.5110 O.2   151  PRO151     -0.2715
    152  CB       -15.5390    1.9540    0.5480 C.3   151  PRO151      0.0310
    153  CG       -16.8580    1.8120    1.2450 C.3   151  PRO151      0.0237
    154  CD       -17.8720    2.1570    0.1690 C.3   151  PRO151      0.0939
    155  N        -14.2420   -0.2570   -1.5770 N.am  152  SER152     -0.1936
    156  CA       -13.6360   -1.5890   -1.5620 C.3   152  SER152      0.2055
    157  C        -13.1410   -1.8580   -0.1530 C.2   152  SER152      0.2643
    158  O        -12.9000   -0.9360    0.6290 O.2   152  SER152     -0.2714
    159  CB       -12.4490   -1.6120   -2.5220 C.3   152  SER152      0.2130
    160  OG       -11.4620   -0.6890   -2.0960 O.3   152  SER152     -0.2179
    161  N        -12.9920   -3.1310    0.1580 N.am  153  GLN153     -0.1963
    162  CA       -12.4010   -3.5350    1.4230 C.3   153  GLN153      0.1733
    163  C        -10.9540   -3.0290    1.5620 C.2   153  GLN153      0.2616
    164  O        -10.5180   -2.7080    2.6620 O.2   153  GLN153     -0.2715
    165  CB       -12.4800   -5.0520    1.5740 C.3   153  GLN153      0.0408
    166  CG       -13.9090   -5.5660    1.5390 C.3   153  GLN153      0.0908
    167  CD       -14.6910   -5.0750    2.7230 C.2   153  GLN153      0.2608
    168  OE1      -14.3010   -5.3100    3.8610 O.2   153  GLN153     -0.2717
    169  NE2      -15.7860   -4.3720    2.4700 N.am  153  GLN153     -0.0878
    170  N        -10.2340   -2.9050    0.4370 N.am  154  LYS154     -0.1963
    171  CA        -8.8720   -2.3570    0.4530 C.3   154  LYS154      0.1728
    172  C         -8.9020   -0.9430    1.0280 C.2   154  LYS154      0.2616
    173  O         -8.0370   -0.5450    1.8180 O.2   154  LYS154     -0.2715
    174  CB        -8.2370   -2.3110   -0.9630 C.3   154  LYS154      0.0311
    175  CG        -8.0560   -3.6280   -1.6340 C.3   154  LYS154      0.0038
    176  CD        -7.3630   -3.4180   -2.9600 C.3   154  LYS154      0.0206
    177  CE        -7.2470   -4.7440   -3.7040 C.3   154  LYS154      0.1093
    178  NZ        -8.5990   -5.3290   -3.9730 N.3   154  LYS154     -0.1314
    179  N         -9.8810   -0.1630    0.6000 N.am  155  LEU155     -0.1977
    180  CA        -9.9910    1.2180    1.0600 C.3   155  LEU155      0.1596
    181  C        -10.4170    1.2880    2.5210 C.2   155  LEU155      0.2287
    182  O         -9.9120    2.1070    3.2470 O.2   155  LEU155     -0.2864
    183  CB       -10.9160    2.0530    0.1670 C.3   155  LEU155      0.0297
    184  CG       -11.0630    3.5110    0.5600 C.3   155  LEU155      0.0022
    185  CD1       -9.7250    4.2130    0.5490 C.3   155  LEU155      0.0001
    186  CD2      -12.0210    4.2250   -0.3810 C.3   155  LEU155      0.0001
    187  N         -9.6260   -0.8610    4.7810 N.3   157  LYS157     -0.1231
    188  CA        -8.4390   -1.2190    5.5690 C.3   157  LYS157      0.1693
    189  C         -7.4660   -0.0260    5.5770 C.2   157  LYS157      0.2592
    190  O         -6.8840    0.3030    6.6140 O.2   157  LYS157     -0.2718
    191  CB        -7.7340   -2.4690    5.0100 C.3   157  LYS157      0.0285
    192  CG        -8.5030   -3.7960    5.1670 C.3   157  LYS157      0.0035
    193  CD        -8.7050   -4.2260    6.6160 C.3   157  LYS157      0.0206
    194  CE        -9.3150   -5.6290    6.6850 C.3   157  LYS157      0.1093
    195  NZ        -9.5510   -6.1020    8.0790 N.3   157  LYS157     -0.1314
    196  N         -7.3040    0.6240    4.4260 N.am  158  PHE158     -0.1976
    197  CA        -6.4660    1.8290    4.2950 C.3   158  PHE158      0.1639
    198  C         -6.9220    2.9080    5.2660 C.2   158  PHE158      0.2290
    199  O         -6.1180    3.4840    5.9830 O.2   158  PHE158     -0.2864
    200  CB        -6.5790    2.2890    2.8390 C.3   158  PHE158      0.0560
    201  CG        -6.0290    3.6740    2.5150 C.ar  158  PHE158     -0.0200
    202  CD1       -6.7810    4.8210    2.7370 C.ar  158  PHE158     -0.0042
    203  CD2       -4.8090    3.8110    1.8650 C.ar  158  PHE158     -0.0042
    204  CE1       -6.3110    6.0860    2.3730 C.ar  158  PHE158     -0.0003
    205  CE2       -4.3320    5.0840    1.4950 C.ar  158  PHE158     -0.0003
    206  CZ        -5.0820    6.2140    1.7420 C.ar  158  PHE158     -0.0000
    207  N         -6.2800    1.8030    8.9160 N.3   161  LYS161     -0.1231
    208  CA        -4.8590    1.8680    9.2270 C.3   161  LYS161      0.1693
    209  C         -4.3640    3.3130    9.3790 C.2   161  LYS161      0.2592
    210  O         -3.7130    3.6360   10.3640 O.2   161  LYS161     -0.2718
    211  CB        -4.0340    1.1290    8.1720 C.3   161  LYS161      0.0285
    212  CG        -2.5440    1.1420    8.4900 C.3   161  LYS161      0.0035
    213  CD        -1.6780    0.3850    7.5120 C.3   161  LYS161      0.0206
    214  CE        -0.2270    0.4470    7.9950 C.3   161  LYS161      0.1093
    215  NZ         0.6630   -0.4680    7.2540 N.3   161  LYS161     -0.1314
    216  N         -4.6480    4.1710    8.3990 N.am  162  HIS162     -0.1976
    217  CA        -4.0900    5.5230    8.4210 C.3   162  HIS162      0.1656
    218  C         -4.8330    6.5160    9.2940 C.2   162  HIS162      0.2291
    219  O         -4.2250    7.4650    9.7780 O.2   162  HIS162     -0.2864
    220  CB        -3.9690    6.0850    6.9970 C.3   162  HIS162      0.0771
    221  CG        -3.0740    5.2880    6.1080 C.ar  162  HIS162      0.0820
    222  ND1       -1.8360    4.8480    6.5130 N.ar  162  HIS162     -0.2267
    223  CD2       -3.2350    4.8500    4.8380 C.ar  162  HIS162      0.1154
    224  CE1       -1.2670    4.1740    5.5310 C.ar  162  HIS162      0.1986
    225  NE2       -2.0910    4.1690    4.5000 N.ar  162  HIS162     -0.2212
@<TRIPOS>BOND
     1    53    52    1
     2    51    52   ar
     3    51    49   ar
     4    52    50   ar
     5     1     2    1
     6    49    47   ar
     7    30    28   ar
     8    50    48   ar
     9     2     5    1
    10     2     3    1
    11    47    48   ar
    12    47    46    1
    13    28    29   ar
    14    28    27    1
    15     6     3   am
    16     6     7    1
    17     3     4    2
    18    46    43    1
    19     8     7    1
    20     8     9    2
    21    27    24    1
    22     7    10    1
    23    56    57    2
    24    56    55    1
    25    10    11    1
    26    45    44    2
    27    14    12   am
    28    44    43    1
    29    44    54   am
    30    11    12    1
    31    43    42    1
    32    55    54    1
    33    55    58    1
    34    12    13    2
    35    24    25    1
    36    24    23    1
    37    42    33   am
    38    70    68   am
    39   146   145    1
    40    25    31   am
    41    25    26    2
    42   147   145    1
    43    31    32    1
    44    33    34    2
    45    33    32    1
    46    60    58    1
    47   145   144    2
    48    58    59    1
    49   136   134   ar
    50    68    67    1
    51    68    69    2
    52    32    35    1
    53    61    59    1
    54    62    63    1
    55    67    66    1
    56   105   103   ar
    57   105   104   ar
    58   144   143    1
    59   103   101   ar
    60    90    88   ar
    61    90    91   ar
    62   104   102   ar
    63   134   135   ar
    64   134   133    1
    65    88    87   ar
    66   143   142    1
    67    66    63    1
    68   101   102   ar
    69   101   100    1
    70    63    64    1
    71    35    36    1
    72   100    97    1
    73    91    89   ar
    74    37    36   ar
    75    37    39   ar
    76   133   130    1
    77   178   177    1
    78    87    89   ar
    79    87    86    1
    80   177   176    1
    81    36    38   ar
    82   141   142    1
    83   141   138    1
    84    65    64    2
    85    64    71   am
    86    39    41   ar
    87    17    18    2
    88    17    16    1
    89   140   139    2
    90    86    83    1
    91   132   131    2
    92   176   175    1
    93    97    98    1
    94    97    96    1
    95   130   131    1
    96   130   129    1
    97   131   137   am
    98    99    98    2
    99    98   106   am
   100   159   160    1
   101   159   156    1
   102   138   137    1
   103   138   139    1
   104    38    40   ar
   105    21    19    1
   106    71    72    1
   107    16    15    1
   108    16    19    1
   109   106   107    1
   110   139   148   am
   111    41    40   ar
   112    96    94   am
   113   107   108    1
   114   129   123   am
   115    82    83    1
   116    82    73   am
   117    83    84    1
   118   175   174    1
   119   155   156    1
   120   155   150   am
   121   156   157    1
   122    19    20    1
   123    85    84    2
   124    72    73    1
   125    72    75    1
   126    84    92   am
   127   148   149    1
   128   148   154    1
   129   150   149    1
   130   150   151    2
   131    73    74    2
   132   174   171    1
   133   149   152    1
   134    75    76    1
   135   109   108    2
   136   108   110   am
   137    94    95    2
   138    94    93    1
   139    22    20    1
   140    76    77    1
   141   123   124    2
   142   123   122    1
   143    92    93    1
   144   127   125    1
   145   186   184    1
   146    77    78    1
   147   157   161   am
   148   157   158    2
   149   161   162    1
   150   183   184    1
   151   183   180    1
   152   154   153    1
   153   122   125    1
   154   122   121    1
   155   110   111    1
   156    80    79    1
   157   170   171    1
   158   170   163   am
   159   171   172    1
   160   152   153    1
   161   185   184    1
   162   179   172   am
   163   179   180    1
   164   125   126    1
   165   172   173    2
   166   180   181    1
   167    78    79    2
   168   112   111    1
   169   112   113    2
   170    79    81    1
   171   162   163    1
   172   162   165    1
   173   205   206   ar
   174   205   203   ar
   175   111   114    1
   176   166   165    1
   177   166   167    1
   178   163   164    2
   179   126   128    1
   180   206   204   ar
   181   203   201   ar
   182   204   202   ar
   183   169   167   am
   184   201   202   ar
   185   201   200    1
   186   181   182    2
   187   114   115    1
   188   167   168    2
   189   200   197    1
   190   115   116    1
   191   197   196    1
   192   197   198    1
   193   196   189   am
   194   225   223   ar
   195   225   224   ar
   196   187   188    1
   197   223   221   ar
   198   116   117    1
   199   191   192    1
   200   191   188    1
   201   192   193    1
   202   198   199    2
   203   224   222   ar
   204   188   189    1
   205   189   190    2
   206   119   118    1
   207   221   222   ar
   208   221   220    1
   209   117   118    2
   210   118   120    1
   211   193   194    1
   212   194   195    1
   213   220   217    1
   214   215   214    1
   215   213   214    1
   216   213   212    1
   217   211   212    1
   218   211   208    1
   219   216   217    1
   220   216   209   am
   221   217   218    1
   222   207   208    1
   223   208   209    1
   224   218   219    2
   225   209   210    2
