@<TRIPOS>MOLECULE
tmp/4pk3A00.pdb
 199 191 0 0 0
SMALL
GASTEIGER

@<TRIPOS>ATOM
      1  N        -11.6550   -2.5000   -9.5740 N.3    50  GLN50      -0.1245
      2  CA       -12.7790   -2.5630   -8.6370 C.3    50  GLN50       0.1566
      3  C        -13.8740   -3.5070   -9.1080 C.2    50  GLN50       0.2260
      4  O        -14.9970   -3.4770   -8.5920 O.2    50  GLN50      -0.2867
      5  CB       -13.3930   -1.1830   -8.4530 C.3    50  GLN50       0.0367
      6  CG       -12.4890   -0.1750   -7.8170 C.3    50  GLN50       0.0905
      7  CD       -13.2280    1.0960   -7.5260 C.2    50  GLN50       0.2608
      8  OE1      -14.1950    1.1030   -6.7720 O.2    50  GLN50      -0.2717
      9  NE2      -12.7920    2.1720   -8.1320 N.am   50  GLN50      -0.0878
     10  N        -15.6490   -3.4700  -11.7380 N.3    52  LEU52      -0.1245
     11  CA       -16.7790   -2.7640  -12.3350 C.3    52  LEU52       0.1561
     12  C        -16.8040   -3.0160  -13.8390 C.2    52  LEU52       0.2260
     13  O        -15.7580   -3.1520  -14.4700 O.2    52  LEU52      -0.2867
     14  CB       -16.6990   -1.2570  -12.0570 C.3    52  LEU52       0.0270
     15  CG       -16.7990   -0.8010  -10.5980 C.3    52  LEU52       0.0019
     16  CD1      -16.5380    0.6950  -10.5270 C.3    52  LEU52       0.0001
     17  CD2      -18.1630   -1.1440  -10.0050 C.3    52  LEU52       0.0001
     18  N        -16.4660    4.6590  -14.1070 N.3    56  ILE56      -0.1245
     19  CA       -17.2680    5.7320  -13.5080 C.3    56  ILE56       0.1561
     20  C        -16.5770    7.1010  -13.5660 C.2    56  ILE56       0.2260
     21  O        -17.1640    8.1270  -13.2140 O.2    56  ILE56      -0.2867
     22  CB       -17.6440    5.4050  -12.0690 C.3    56  ILE56       0.0252
     23  CG1      -16.3710    5.2580  -11.2360 C.3    56  ILE56       0.0019
     24  CG2      -18.5160    4.1470  -12.0510 C.3    56  ILE56       0.0019
     25  CD1      -16.6180    5.0470   -9.7960 C.3    56  ILE56       0.0001
     26  N        -17.4380   12.4380  -18.3540 N.3    61  ARG61      -0.1245
     27  CA       -18.1500   12.4950  -17.0860 C.3    61  ARG61       0.1563
     28  C        -17.6410   13.6350  -16.2180 C.2    61  ARG61       0.2260
     29  O        -18.4270   14.2640  -15.5230 O.2    61  ARG61      -0.2867
     30  CB       -18.0440   11.1670  -16.3420 C.3    61  ARG61       0.0307
     31  CG       -18.9660   10.0610  -16.8680 C.3    61  ARG61       0.0489
     32  CD       -18.5580    8.7390  -16.2420 C.3    61  ARG61       0.2205
     33  NE       -19.4110    7.6240  -16.6490 N.pl3  61  ARG61      -0.0865
     34  CZ       -20.2940    7.0130  -15.8620 C.cat  61  ARG61       0.5346
     35  NH1      -20.4600    7.3900  -14.6000 N.pl3  61  ARG61       0.1354
     36  NH2      -21.0100    6.0070  -16.3400 N.pl3  61  ARG61       0.1354
     37  N        -20.2890   16.8810  -14.8200 N.3    65  ASN65      -0.1240
     38  CA       -20.5470   16.8420  -13.3930 C.3    65  ASN65       0.1653
     39  C        -19.8430   17.9880  -12.6750 C.2    65  ASN65       0.2266
     40  O        -19.2020   18.8410  -13.3210 O.2    65  ASN65      -0.2867
     41  CB       -20.1220   15.4700  -12.8510 C.3    65  ASN65       0.1155
     42  CG       -21.1280   14.3800  -13.1920 C.2    65  ASN65       0.2627
     43  OD1      -22.1570   14.2580  -12.5270 O.2    65  ASN65      -0.2716
     44  ND2      -20.8530   13.6020  -14.2360 N.am   65  ASN65      -0.0877
     45  N        -17.5570   17.3400  -10.1470 N.3    67  HIS67      -0.1241
     46  CA       -16.5640   16.5830   -9.4280 C.3    67  HIS67       0.1621
     47  C        -15.1800   17.2170   -9.5780 C.2    67  HIS67       0.2264
     48  O        -14.9480   18.0060  -10.4800 O.2    67  HIS67      -0.2867
     49  CB       -16.5330   15.1570   -9.9800 C.3    67  HIS67       0.0745
     50  CG       -17.8430   14.4460   -9.8760 C.ar   67  HIS67       0.0817
     51  ND1      -18.1280   13.3070  -10.5820 N.ar   67  HIS67      -0.2268
     52  CD2      -18.9420   14.7280   -9.1360 C.ar   67  HIS67       0.1154
     53  CE1      -19.3570   12.9070  -10.2780 C.ar   67  HIS67       0.1986
     54  NE2      -19.8710   13.7540   -9.4050 N.ar   67  HIS67      -0.2212
     55  N        -10.9610   11.0930   -6.9840 N.3    90  LYS90      -0.1245
     56  CA       -12.0420   11.9570   -7.4730 C.3    90  LYS90       0.1561
     57  C        -13.0800   12.1270   -6.3890 C.2    90  LYS90       0.2260
     58  O        -13.5430   11.1550   -5.8060 O.2    90  LYS90      -0.2867
     59  CB       -12.7130   11.3910   -8.7310 C.3    90  LYS90       0.0271
     60  CG       -13.7910   12.2680   -9.3210 C.3    90  LYS90       0.0035
     61  CD       -14.5030   11.5990  -10.5040 C.3    90  LYS90       0.0206
     62  CE       -15.5610   10.6410  -10.0000 C.3    90  LYS90       0.1093
     63  NZ       -16.1040    9.8070  -11.1190 N.3    90  LYS90      -0.1314
     64  N        -22.3890   15.3910   -2.5790 N.3    94  LYS94      -0.1231
     65  CA       -23.6960   14.8300   -2.9420 C.3    94  LYS94       0.1693
     66  C        -24.7340   14.9160   -1.8470 C.2    94  LYS94       0.2592
     67  O        -24.4260   14.7040   -0.6890 O.2    94  LYS94      -0.2718
     68  CB       -23.5740   13.3560   -3.2660 C.3    94  LYS94       0.0285
     69  CG       -22.7590   13.1250   -4.5030 C.3    94  LYS94       0.0035
     70  CD       -22.7630   11.6940   -4.8580 C.3    94  LYS94       0.0206
     71  CE       -22.2050   11.4890   -6.2720 C.3    94  LYS94       0.1093
     72  NZ       -23.2800   11.5370   -7.3300 N.3    94  LYS94      -0.1314
     73  N        -25.9790   15.1950   -2.2330 N.am   95  LYS95      -0.1966
     74  CA       -27.1060   15.1220   -1.3040 C.3    95  LYS95       0.1728
     75  C        -27.4720   13.6590   -1.0230 C.2    95  LYS95       0.2616
     76  O        -27.7280   12.8780   -1.9230 O.2    95  LYS95      -0.2715
     77  CB       -28.3270   15.8730   -1.8590 C.3    95  LYS95       0.0311
     78  CG       -29.5850   15.7000   -0.9810 C.3    95  LYS95       0.0038
     79  CD       -30.7230   16.5600   -1.4480 C.3    95  LYS95       0.0206
     80  CE       -30.4570   18.0160   -1.1750 C.3    95  LYS95       0.1093
     81  NZ       -30.2790   18.3410    0.2690 N.3    95  LYS95      -0.1314
     82  N        -27.4820   13.3100    0.2560 N.am   96  LEU96      -0.1977
     83  CA       -27.8420   11.9800    0.7280 C.3    96  LEU96       0.1596
     84  C        -28.7880   12.1020    1.9080 C.2    96  LEU96       0.2287
     85  O        -28.8630   13.1270    2.5610 O.2    96  LEU96      -0.2864
     86  CB       -26.5890   11.2180    1.1650 C.3    96  LEU96       0.0297
     87  CG       -25.4750   11.0490    0.1490 C.3    96  LEU96       0.0022
     88  CD1      -24.2460   10.5100    0.8610 C.3    96  LEU96       0.0001
     89  CD2      -25.9030   10.1440   -0.9770 C.3    96  LEU96       0.0001
     90  N        -15.9940   10.5660   -1.5100 N.3   113  ILE113     -0.1231
     91  CA       -14.9630    9.8930   -2.3020 C.3   113  ILE113      0.1692
     92  C        -15.6840    9.0560   -3.3440 C.2   113  ILE113      0.2592
     93  O        -16.4430    8.1390   -3.0030 O.2   113  ILE113     -0.2718
     94  CB       -14.0360    9.0160   -1.4290 C.3   113  ILE113      0.0266
     95  CG1      -13.4540    9.8220   -0.2320 C.3   113  ILE113      0.0019
     96  CG2      -12.9480    8.3920   -2.3180 C.3   113  ILE113      0.0020
     97  CD1      -12.7330   11.1240   -0.6320 C.3   113  ILE113      0.0001
     98  N        -15.4660    9.4040   -4.6100 N.am  114  LEU114     -0.1966
     99  CA       -16.2280    8.8260   -5.7240 C.3   114  LEU114      0.1728
    100  C        -15.3990    7.8440   -6.5520 C.2   114  LEU114      0.2616
    101  O        -15.9450    6.9080   -7.1180 O.2   114  LEU114     -0.2715
    102  CB       -16.7620    9.9580   -6.6150 C.3   114  LEU114      0.0311
    103  CG       -17.7460   10.9070   -5.9090 C.3   114  LEU114      0.0022
    104  CD1      -18.1730   11.9850   -6.8970 C.3   114  LEU114      0.0001
    105  CD2      -18.9710   10.1430   -5.3160 C.3   114  LEU114      0.0001
    106  N        -14.0770    8.0420   -6.6480 N.am  115  ASP115     -0.1957
    107  CA       -13.2030    7.0940   -7.3510 C.3   115  ASP115      0.1840
    108  C        -11.7970    7.3120   -6.8010 C.2   115  ASP115      0.2622
    109  O        -11.4420    8.4220   -6.4610 O.2   115  ASP115     -0.2715
    110  CB       -13.2930    7.2960   -8.8670 C.3   115  ASP115      0.1450
    111  CG       -12.7950    6.1020   -9.6660 C.2   115  ASP115      0.3671
    112  OD1      -12.2700    5.1260   -9.0860 O.co2 115  ASP115     -0.2456
    113  OD2      -12.9290    6.1490  -10.9170 O.co2 115  ASP115     -0.2456
    114  N        -11.0040    6.2610   -6.6930 N.am  116  PHE116     -0.1974
    115  CA        -9.6830    6.3580   -6.0690 C.3   116  PHE116      0.1639
    116  C         -8.9120    5.1480   -6.5600 C.2   116  PHE116      0.2290
    117  O         -9.3500    4.0140   -6.3590 O.2   116  PHE116     -0.2864
    118  CB        -9.8770    6.3110   -4.5360 C.3   116  PHE116      0.0560
    119  CG        -8.6460    6.5760   -3.6910 C.ar  116  PHE116     -0.0200
    120  CD1       -7.4700    7.0920   -4.1990 C.ar  116  PHE116     -0.0042
    121  CD2       -8.7020    6.2910   -2.3420 C.ar  116  PHE116     -0.0042
    122  CE1       -6.3750    7.3240   -3.3570 C.ar  116  PHE116     -0.0003
    123  CE2       -7.6350    6.5270   -1.5000 C.ar  116  PHE116     -0.0003
    124  CZ        -6.4580    7.0380   -2.0110 C.ar  116  PHE116     -0.0000
    125  N        -18.3670    7.6410    1.3160 N.3   148  ILE148     -0.1231
    126  CA       -17.6660    6.9710    0.2390 C.3   148  ILE148      0.1692
    127  C        -18.6380    6.1570   -0.5780 C.2   148  ILE148      0.2592
    128  O        -19.4370    5.3880   -0.0350 O.2   148  ILE148     -0.2718
    129  CB       -16.5350    6.1140    0.7800 C.3   148  ILE148      0.0266
    130  CG1      -15.6260    6.9870    1.6650 C.3   148  ILE148      0.0019
    131  CG2      -15.7560    5.5160   -0.3960 C.3   148  ILE148      0.0020
    132  CD1      -14.3540    6.3670    2.1210 C.3   148  ILE148      0.0001
    133  N        -18.5690    6.3220   -1.8910 N.am  149  ASP149     -0.1960
    134  CA       -19.3610    5.4860   -2.7850 C.3   149  ASP149      0.1840
    135  C        -18.7890    4.0600   -2.7760 C.2   149  ASP149      0.2622
    136  O        -17.6100    3.8600   -3.1010 O.2   149  ASP149     -0.2715
    137  CB       -19.3750    6.0740   -4.1910 C.3   149  ASP149      0.1450
    138  CG       -20.4590    5.4760   -5.0850 C.2   149  ASP149      0.3671
    139  OD1      -21.2310    4.6170   -4.6090 O.co2 149  ASP149     -0.2456
    140  OD2      -20.5600    5.8970   -6.2590 O.co2 149  ASP149     -0.2456
    141  N        -19.6040    3.1070   -2.3270 N.am  150  ARG150     -0.1964
    142  CA       -19.3020    1.6690   -2.3680 C.3   150  ARG150      0.1714
    143  C        -17.8130    1.3320   -2.2220 C.2   150  ARG150      0.2458
    144  O        -17.1840    0.8280   -3.1450 O.2   150  ARG150     -0.2730
    145  CB       -19.8610    1.0440   -3.6530 C.3   150  ARG150      0.0347
    146  CG       -20.0570   -0.4800   -3.5520 C.3   150  ARG150      0.0492
    147  CD       -19.9820   -1.1900   -4.9070 C.3   150  ARG150      0.2205
    148  NE       -18.6070   -1.1740   -5.4060 N.pl3 150  ARG150     -0.0865
    149  CZ       -18.1610   -1.9300   -6.4070 C.cat 150  ARG150      0.5346
    150  NH1      -18.9860   -2.7600   -7.0290 N.pl3 150  ARG150      0.1354
    151  NH2      -16.8910   -1.8550   -6.7830 N.pl3 150  ARG150      0.1354
    152  N        -17.2470    1.6130   -1.0470 N.am  151  PRO151     -0.2716
    153  CA       -15.8050    1.4300   -0.8730 C.3   151  PRO151      0.1536
    154  C        -15.4010   -0.0300   -0.9850 C.2   151  PRO151      0.2599
    155  O        -16.1020   -0.9210   -0.5110 O.2   151  PRO151     -0.2715
    156  CB       -15.5390    1.9540    0.5480 C.3   151  PRO151      0.0310
    157  CG       -16.8580    1.8120    1.2450 C.3   151  PRO151      0.0237
    158  CD       -17.8720    2.1570    0.1690 C.3   151  PRO151      0.0939
    159  N        -14.2420   -0.2570   -1.5770 N.am  152  SER152     -0.1950
    160  CA       -13.6360   -1.5890   -1.5620 C.3   152  SER152      0.1924
    161  C        -13.1410   -1.8580   -0.1530 C.2   152  SER152      0.2314
    162  O        -12.9000   -0.9360    0.6290 O.2   152  SER152     -0.2863
    163  CB       -12.4490   -1.6120   -2.5220 C.3   152  SER152      0.2116
    164  OG       -11.4620   -0.6890   -2.0960 O.3   152  SER152     -0.2180
    165  N         -9.8810   -0.1630    0.6000 N.3   155  LEU155     -0.1245
    166  CA        -9.9910    1.2180    1.0600 C.3   155  LEU155      0.1561
    167  C        -10.4170    1.2880    2.5210 C.2   155  LEU155      0.2260
    168  O         -9.9120    2.1070    3.2470 O.2   155  LEU155     -0.2867
    169  CB       -10.9160    2.0530    0.1670 C.3   155  LEU155      0.0270
    170  CG       -11.0630    3.5110    0.5600 C.3   155  LEU155      0.0019
    171  CD1       -9.7250    4.2130    0.5490 C.3   155  LEU155      0.0001
    172  CD2      -12.0210    4.2250   -0.3810 C.3   155  LEU155      0.0001
    173  N        -28.2190    3.3260    0.4780 N.3   173  ASN173     -0.1225
    174  CA       -27.9480    4.1670   -0.6930 C.3   173  ASN173      0.1785
    175  C        -26.5810    3.9160   -1.3180 C.2   173  ASN173      0.2597
    176  O        -26.1300    4.6970   -2.1600 O.2   173  ASN173     -0.2718
    177  CB       -28.0830    5.6420   -0.3230 C.3   173  ASN173      0.1169
    178  CG       -27.1320    6.0530    0.7930 C.2   173  ASN173      0.2627
    179  OD1      -26.2030    5.3180    1.1390 O.2   173  ASN173     -0.2716
    180  ND2      -27.3590    7.2350    1.3680 N.am  173  ASN173     -0.0877
    181  N        -25.9290    2.8300   -0.9120 N.am  174  ASN174     -0.1960
    182  CA       -24.6200    2.4300   -1.4410 C.3   174  ASN174      0.1819
    183  C        -23.4500    3.2920   -1.0080 C.2   174  ASN174      0.2621
    184  O        -22.3460    3.0820   -1.4680 O.2   174  ASN174     -0.2715
    185  CB       -24.6400    2.3300   -2.9780 C.3   174  ASN174      0.1195
    186  CG       -23.8860    1.1200   -3.4970 C.2   174  ASN174      0.2630
    187  OD1      -23.6490    0.1630   -2.7680 O.2   174  ASN174     -0.2716
    188  ND2      -23.5190    1.1560   -4.7550 N.am  174  ASN174     -0.0877
    189  N        -23.6700    4.2330   -0.0990 N.am  175  PHE175     -0.1974
    190  CA       -22.5840    5.0020    0.4890 C.3   175  PHE175      0.1639
    191  C        -22.2890    4.4840    1.8760 C.2   175  PHE175      0.2290
    192  O        -23.1720    3.9930    2.5640 O.2   175  PHE175     -0.2864
    193  CB       -22.9220    6.5080    0.5310 C.3   175  PHE175      0.0560
    194  CG       -22.8820    7.1710   -0.8090 C.ar  175  PHE175     -0.0200
    195  CD1      -23.9480    7.0770   -1.6920 C.ar  175  PHE175     -0.0042
    196  CD2      -21.7390    7.8430   -1.2100 C.ar  175  PHE175     -0.0042
    197  CE1      -23.8690    7.6520   -2.9220 C.ar  175  PHE175     -0.0003
    198  CE2      -21.6640    8.4320   -2.4500 C.ar  175  PHE175     -0.0003
    199  CZ       -22.7330    8.3290   -3.3110 C.ar  175  PHE175     -0.0000
@<TRIPOS>BOND
     1    26    27    1
     2    27    30    1
     3    27    28    1
     4    31    30    1
     5    31    32    1
     6    33    32    1
     7    33    34    2
     8    36    34    1
     9    28    29    2
    10    34    35    1
    11    37    38    1
    12    13    12    2
    13    44    42   am
    14    18    19    1
    15    12    11    1
    16    20    19    1
    17    20    21    2
    18    19    22    1
    19    38    41    1
    20    38    39    1
    21    40    39    2
    22    42    41    1
    23    42    43    2
    24    11    14    1
    25    11    10    1
    26    22    24    1
    27    22    23    1
    28    14    15    1
    29    23    25    1
    30    63    62    1
    31   113   111   ar
    32    15    16    1
    33    15    17    1
    34    51    53   ar
    35    51    50   ar
    36    61    62    1
    37    61    60    1
    38    48    47    2
    39    53    54   ar
    40    45    46    1
    41    49    50    1
    42    49    46    1
    43    50    52   ar
    44   111   112   ar
    45   111   110    1
    46    47    46    1
    47     1     2    1
    48    54    52   ar
    49    60    59    1
    50     3     2    1
    51     3     4    2
    52   110   107    1
    53    59    56    1
    54     2     5    1
    55     5     6    1
    56     9     7   am
    57     6     7    1
    58     7     8    2
    59    56    55    1
    60    56    57    1
    61   107   108    1
    62   107   106    1
    63    72    71    1
    64   101   100    2
    65   150   149    1
    66   104   103    1
    67   108   114   am
    68   108   109    2
    69   151   149    1
    70   114   115    1
    71   106   100   am
    72   102   103    1
    73   102    99    1
    74   116   117    2
    75   116   115    1
    76   100    99    1
    77   149   148    2
    78    57    58    2
    79    71    70    1
    80   140   138   ar
    81   115   118    1
    82   103   105    1
    83    99    98    1
    84   148   147    1
    85   138   139   ar
    86   138   137    1
    87   147   146    1
    88    70    69    1
    89   188   186   am
    90    98    92   am
    91   118   119    1
    92    69    68    1
    93   120   119   ar
    94   120   122   ar
    95   137   134    1
    96   119   121   ar
    97   145   146    1
    98   145   142    1
    99   186   185    1
   100   186   187    2
   101   122   124   ar
   102    92    93    2
   103    92    91    1
   104   199   197   ar
   105   199   198   ar
   106    68    65    1
   107   144   143    2
   108   136   135    2
   109   185   182    1
   110    65    64    1
   111    65    66    1
   112   197   195   ar
   113   134   135    1
   114   134   133    1
   115   135   141   am
   116   163   164    1
   117   163   160    1
   118   198   196   ar
   119   142   141    1
   120   142   143    1
   121   121   123   ar
   122    96    94    1
   123    91    90    1
   124    91    94    1
   125    73    66   am
   126    73    74    1
   127   143   152   am
   128   176   175    2
   129   124   123   ar
   130    76    75    2
   131   133   127   am
   132    77    74    1
   133    77    78    1
   134    66    67    2
   135   195   194   ar
   136   159   160    1
   137   159   154   am
   138   160   161    1
   139   184   183    2
   140    79    80    1
   141    79    78    1
   142   182   183    1
   143   182   181    1
   144    94    95    1
   145   175   181   am
   146   175   174    1
   147    74    75    1
   148   196   194   ar
   149    80    81    1
   150   152   153    1
   151   152   158    1
   152    75    82   am
   153   183   189   am
   154   154   153    1
   155   154   155    2
   156    89    87    1
   157   153   156    1
   158   194   193    1
   159   174   177    1
   160   174   173    1
   161    97    95    1
   162   127   128    2
   163   127   126    1
   164   131   129    1
   165   172   170    1
   166   177   178    1
   167   161   162    2
   168   189   190    1
   169    87    88    1
   170    87    86    1
   171   169   170    1
   172   169   166    1
   173   158   157    1
   174   126   129    1
   175   126   125    1
   176    82    83    1
   177   190   193    1
   178   190   191    1
   179   156   157    1
   180   171   170    1
   181   165   166    1
   182    83    86    1
   183    83    84    1
   184   129   130    1
   185   178   179    2
   186   178   180   am
   187   166   167    1
   188   130   132    1
   189   191   192    2
   190    84    85    2
   191   167   168    2
