@<TRIPOS>MOLECULE
tmp/4pk5A01.pdb
 150 145 0 0 0
SMALL
GASTEIGER

@<TRIPOS>ATOM
      1  N         -3.2310   25.2580   29.5540 N.3   113  LEU113     -0.1231
      2  CA        -3.2710   23.8750   29.0730 C.3   113  LEU113      0.1693
      3  C         -4.7230   23.5150   28.7440 C.2   113  LEU113      0.2592
      4  O         -5.6530   23.8890   29.4520 O.2   113  LEU113     -0.2718
      5  CB        -2.7150   22.9820   30.1480 C.3   113  LEU113      0.0284
      6  CG        -2.0520   21.6630   29.8280 C.3   113  LEU113      0.0019
      7  CD1       -0.8690   21.8290   28.9120 C.3   113  LEU113      0.0001
      8  CD2       -1.6480   20.9990   31.1370 C.3   113  LEU113      0.0001
      9  N         -4.9370   22.8530   27.6340 N.am  114  VAL114     -0.1966
     10  CA        -6.2990   22.5010   27.2830 C.3   114  VAL114      0.1727
     11  C         -6.3960   21.0480   26.9030 C.2   114  VAL114      0.2616
     12  O         -5.3930   20.3990   26.5650 O.2   114  VAL114     -0.2715
     13  CB        -6.8090   23.3360   26.0760 C.3   114  VAL114      0.0290
     14  CG1       -6.9630   24.7950   26.4400 C.3   114  VAL114      0.0023
     15  CG2       -5.8850   23.1870   24.8830 C.3   114  VAL114      0.0023
     16  N         -7.6170   20.5550   26.9070 N.am  115  TYR115     -0.1974
     17  CA        -7.9220   19.2170   26.3820 C.3   115  TYR115      0.1639
     18  C         -7.1990   18.8270   25.0570 C.2   115  TYR115      0.2290
     19  O         -6.7210   17.6920   24.8980 O.2   115  TYR115     -0.2864
     20  CB        -9.4250   19.1050   26.2190 C.3   115  TYR115      0.0560
     21  CG        -9.9330   17.7660   25.8200 C.ar  115  TYR115     -0.0198
     22  CD1      -10.2130   16.8080   26.7740 C.ar  115  TYR115     -0.0009
     23  CD2      -10.1980   17.4750   24.5090 C.ar  115  TYR115     -0.0009
     24  CE1      -10.7190   15.5780   26.4190 C.ar  115  TYR115      0.0417
     25  CE2      -10.6970   16.2490   24.1340 C.ar  115  TYR115      0.0417
     26  CZ       -10.9640   15.3070   25.0970 C.ar  115  TYR115      0.1957
     27  OH       -11.4750   14.0880   24.7480 O.3   115  TYR115     -0.2866
     28  N         -3.3700   18.1650   26.4490 N.3   118  CYS118     -0.1221
     29  CA        -3.1770   17.0600   27.3520 C.3   118  CYS118      0.1808
     30  C         -3.6960   15.7400   26.8560 C.2   118  CYS118      0.2601
     31  O         -3.1510   14.6930   27.2260 O.2   118  CYS118     -0.2717
     32  CB        -3.9500   17.3480   28.6020 C.3   118  CYS118      0.0970
     33  SG        -2.9760   18.2930   29.7420 S.3   118  CYS118     -0.0800
     34  N         -4.7810   15.7780   26.0910 N.am  119  VAL119     -0.1979
     35  CA        -5.3830   14.5700   25.6160 C.3   119  VAL119      0.1595
     36  C         -5.0780   14.4450   24.1410 C.2   119  VAL119      0.2287
     37  O         -4.3720   13.5090   23.7390 O.2   119  VAL119     -0.2864
     38  CB        -6.9040   14.5010   25.9060 C.3   119  VAL119      0.0276
     39  CG1       -7.4690   13.1270   25.5630 C.3   119  VAL119      0.0022
     40  CG2       -7.1970   14.8410   27.3600 C.3   119  VAL119      0.0022
     41  N         -5.7830    8.7930   32.9810 N.3   152  PHE152     -0.1227
     42  CA        -6.7730    9.8420   32.7210 C.3   152  PHE152      0.1736
     43  C         -6.8080   10.2930   31.2540 C.2   152  PHE152      0.2595
     44  O         -7.8790   10.3300   30.6250 O.2   152  PHE152     -0.2718
     45  CB        -6.4540   11.0410   33.5770 C.3   152  PHE152      0.0547
     46  CG        -7.5730   12.0150   33.6730 C.ar  152  PHE152     -0.0202
     47  CD1       -8.9000   11.5690   33.7000 C.ar  152  PHE152     -0.0042
     48  CD2       -7.3130   13.3810   33.7860 C.ar  152  PHE152     -0.0042
     49  CE1       -9.9390   12.4690   33.8160 C.ar  152  PHE152     -0.0003
     50  CE2       -8.3460   14.2870   33.9140 C.ar  152  PHE152     -0.0003
     51  CZ        -9.6570   13.8400   33.9170 C.ar  152  PHE152     -0.0000
     52  N         -5.6300   10.6170   30.7170 N.am  153  PHE153     -0.1976
     53  CA        -5.5200   11.1800   29.3990 C.3   153  PHE153      0.1639
     54  C         -5.7420   10.1190   28.3920 C.2   153  PHE153      0.2290
     55  O         -6.5480   10.2960   27.4760 O.2   153  PHE153     -0.2864
     56  CB        -4.1610   11.8170   29.2210 C.3   153  PHE153      0.0560
     57  CG        -3.8950   12.9260   30.1990 C.ar  153  PHE153     -0.0200
     58  CD1       -4.9500   13.5460   30.8940 C.ar  153  PHE153     -0.0042
     59  CD2       -2.6150   13.3680   30.4290 C.ar  153  PHE153     -0.0042
     60  CE1       -4.7030   14.5700   31.8150 C.ar  153  PHE153     -0.0003
     61  CE2       -2.3670   14.3950   31.3490 C.ar  153  PHE153     -0.0003
     62  CZ        -3.4080   14.9960   32.0420 C.ar  153  PHE153     -0.0000
     63  N         -9.4670    8.9980   28.2080 N.3   156  SER156     -0.1217
     64  CA       -10.2560   10.0120   27.4710 C.3   156  SER156      0.1889
     65  C         -9.9830    9.8760   25.9780 C.2   156  SER156      0.2288
     66  O        -10.9140    9.9140   25.1480 O.2   156  SER156     -0.2866
     67  CB        -9.8960   11.4410   27.8440 C.3   156  SER156      0.2089
     68  OG        -9.7800   11.6270   29.2180 O.3   156  SER156     -0.2183
     69  N         -5.8230   10.6980   42.0890 N.3   215  PHE215     -0.1227
     70  CA        -6.4780   11.5370   41.1220 C.3   215  PHE215      0.1736
     71  C         -7.0080   12.8420   41.7480 C.2   215  PHE215      0.2595
     72  O         -6.8130   13.9370   41.2120 O.2   215  PHE215     -0.2718
     73  CB        -7.5970   10.7820   40.3780 C.3   215  PHE215      0.0547
     74  CG        -8.3990   11.6620   39.4860 C.ar  215  PHE215     -0.0202
     75  CD1       -9.4800   12.3910   39.9940 C.ar  215  PHE215     -0.0042
     76  CD2       -8.0330   11.8400   38.1650 C.ar  215  PHE215     -0.0042
     77  CE1      -10.2210   13.2320   39.1810 C.ar  215  PHE215     -0.0003
     78  CE2       -8.7620   12.7040   37.3480 C.ar  215  PHE215     -0.0003
     79  CZ        -9.8490   13.4060   37.8650 C.ar  215  PHE215     -0.0000
     80  N         -7.6780   12.7250   42.8840 N.am  216  PHE216     -0.1976
     81  CA        -8.3010   13.8820   43.5060 C.3   216  PHE216      0.1639
     82  C         -7.3360   14.8510   44.1670 C.2   216  PHE216      0.2290
     83  O         -7.5790   16.0550   44.1720 O.2   216  PHE216     -0.2864
     84  CB        -9.2820   13.4320   44.5630 C.3   216  PHE216      0.0560
     85  CG       -10.0040   14.5610   45.2450 C.ar  216  PHE216     -0.0200
     86  CD1      -11.0970   15.1900   44.6260 C.ar  216  PHE216     -0.0042
     87  CD2       -9.6240   14.9760   46.5200 C.ar  216  PHE216     -0.0042
     88  CE1      -11.7820   16.2140   45.2660 C.ar  216  PHE216     -0.0003
     89  CE2      -10.3090   15.9990   47.1660 C.ar  216  PHE216     -0.0003
     90  CZ       -11.3900   16.6190   46.5400 C.ar  216  PHE216     -0.0000
     91  N         -5.9830   17.0960   40.1780 N.3   220  ARG220     -0.1245
     92  CA        -6.8170   18.2830   40.3160 C.3   220  ARG220      0.1563
     93  C         -6.0580   19.6200   40.4430 C.2   220  ARG220      0.2260
     94  O         -6.5560   20.6690   40.0370 O.2   220  ARG220     -0.2867
     95  CB        -7.7090   18.0840   41.5330 C.3   220  ARG220      0.0307
     96  CG        -8.0040   19.2940   42.4000 C.3   220  ARG220      0.0489
     97  CD        -8.7580   18.8970   43.6670 C.3   220  ARG220      0.2205
     98  NE        -9.3000   20.0660   44.3710 N.pl3 220  ARG220     -0.0865
     99  CZ       -10.5440   20.5370   44.2390 C.cat 220  ARG220      0.5346
    100  NH1      -11.4250   19.9490   43.4290 N.pl3 220  ARG220      0.1354
    101  NH2      -10.9150   21.6050   44.9310 N.pl3 220  ARG220      0.1354
    102  N         -4.7180   20.7910   36.9540 N.3   223  LEU223     -0.1245
    103  CA        -5.7020   21.0270   35.9330 C.3   223  LEU223      0.1561
    104  C         -6.4720   22.2840   36.2230 C.2   223  LEU223      0.2260
    105  O         -7.3520   22.6690   35.4360 O.2   223  LEU223     -0.2867
    106  CB        -6.6640   19.8690   35.8250 C.3   223  LEU223      0.0270
    107  CG        -6.0500   18.5890   35.2640 C.3   223  LEU223      0.0019
    108  CD1       -7.1880   17.6040   35.1090 C.3   223  LEU223      0.0001
    109  CD2       -5.2960   18.7640   33.9620 C.3   223  LEU223      0.0001
    110  N         -8.6850   23.1440   32.8070 N.3   251  GLY251     -0.1210
    111  CA        -9.0530   22.0740   31.8490 C.3   251  GLY251      0.1956
    112  C        -10.4490   21.5620   32.1380 C.2   251  GLY251      0.2613
    113  O        -10.8060   21.3660   33.2890 O.2   251  GLY251     -0.2717
    114  N        -11.2440   21.4060   31.0930 N.am  252  SER252     -0.1938
    115  CA       -12.5880   20.8770   31.1890 C.3   252  SER252      0.2055
    116  C        -12.8140   19.9980   29.9680 C.2   252  SER252      0.2642
    117  O        -12.4260   20.3930   28.8570 O.2   252  SER252     -0.2714
    118  CB       -13.6010   22.0010   31.1460 C.3   252  SER252      0.2130
    119  OG       -14.8910   21.5060   30.7540 O.3   252  SER252     -0.2179
    120  N        -13.4300   18.8250   30.1400 N.am  253  ALA253     -0.1977
    121  CA       -13.7120   17.9990   28.9510 C.3   253  ALA253      0.1597
    122  C        -14.9250   18.5140   28.1880 C.2   253  ALA253      0.2287
    123  O        -15.2610   17.9880   27.1310 O.2   253  ALA253     -0.2864
    124  CB       -13.8130   16.5230   29.2630 C.3   253  ALA253      0.0319
    125  N        -20.6120    8.4880   33.3780 N.3   335  HIS335     -0.1241
    126  CA       -19.6530    9.5330   33.7860 C.3   335  HIS335      0.1621
    127  C        -19.9320   10.0650   35.2030 C.2   335  HIS335      0.2264
    128  O        -19.0090   10.2280   35.9820 O.2   335  HIS335     -0.2867
    129  CB       -19.6610   10.6420   32.7830 C.3   335  HIS335      0.0745
    130  CG       -18.6010   11.6700   32.9890 C.ar  335  HIS335      0.0817
    131  ND1      -18.8610   12.9050   33.5370 N.ar  335  HIS335     -0.2268
    132  CD2      -17.2890   11.6850   32.6490 C.ar  335  HIS335      0.1154
    133  CE1      -17.7500   13.6170   33.5780 C.ar  335  HIS335      0.1986
    134  NE2      -16.7800   12.9030   33.0420 N.ar  335  HIS335     -0.2212
    135  N        -14.2980   11.9930   42.7320 N.3   343  ILE343     -0.1245
    136  CA       -14.3030   13.3450   43.3250 C.3   343  ILE343      0.1561
    137  C        -15.1910   13.4460   44.5590 C.2   343  ILE343      0.2260
    138  O        -14.6950   13.7220   45.6360 O.2   343  ILE343     -0.2867
    139  CB       -14.6520   14.4590   42.2960 C.3   343  ILE343      0.0252
    140  CG1      -13.6350   14.4400   41.1500 C.3   343  ILE343      0.0019
    141  CG2      -14.7170   15.8310   42.9710 C.3   343  ILE343      0.0019
    142  CD1      -14.0930   15.1590   39.9260 C.3   343  ILE343      0.0001
    143  N        -20.1410   21.0860   40.4330 N.3   354  LEU354     -0.1245
    144  CA       -19.7900   20.1740   39.3670 C.3   354  LEU354      0.1561
    145  C        -20.9750   19.2470   39.0940 C.2   354  LEU354      0.2260
    146  O        -21.2840   18.9550   37.9250 O.2   354  LEU354     -0.2867
    147  CB       -18.5230   19.3730   39.7120 C.3   354  LEU354      0.0270
    148  CG       -17.2570   20.1710   40.0870 C.3   354  LEU354      0.0019
    149  CD1      -16.1600   19.2320   40.5370 C.3   354  LEU354      0.0001
    150  CD2      -16.7220   21.0930   38.9950 C.3   354  LEU354      0.0001
@<TRIPOS>BOND
     1    37    36    2
     2    25    23   ar
     3    25    26   ar
     4    36    35    1
     5    23    21   ar
     6    27    26    1
     7    15    13    1
     8    19    18    2
     9    18    17    1
    10    26    24   ar
    11    66    65    2
    12    39    38    1
    13    35    38    1
    14    35    34    1
    15    21    20    1
    16    21    22   ar
    17    38    40    1
    18    65    64    1
    19    13    14    1
    20    13    10    1
    21    34    30   am
    22    20    17    1
    23    17    16    1
    24    24    22   ar
    25    28    29    1
    26    12    11    2
    27    30    31    2
    28    30    29    1
    29    11    16   am
    30    11    10    1
    31   123   122    2
    32    10     9    1
    33    29    32    1
    34    64    67    1
    35    64    63    1
    36    55    54    2
    37     9     3   am
    38    67    68    1
    39   122   121    1
    40    54    53    1
    41    32    33    1
    42     3     2    1
    43     3     4    2
    44   117   116    2
    45     7     6    1
    46   121   124    1
    47   121   120    1
    48     2     1    1
    49     2     5    1
    50    56    53    1
    51    56    57    1
    52    53    52    1
    53     6     5    1
    54     6     8    1
    55   116   120   am
    56   116   115    1
    57    57    59   ar
    58    57    58   ar
    59    59    61   ar
    60    44    43    2
    61    52    43   am
    62   119   118    1
    63    58    60   ar
    64   114   115    1
    65   114   112   am
    66   118   115    1
    67    43    42    1
    68    61    62   ar
    69    60    62   ar
    70   111   112    1
    71   111   110    1
    72   112   113    2
    73   132   130   ar
    74   132   134   ar
    75    42    41    1
    76    42    45    1
    77   129   130    1
    78   129   126    1
    79   130   131   ar
    80   134   133   ar
    81   125   126    1
    82   131   133   ar
    83    45    46    1
    84    46    47   ar
    85    46    48   ar
    86    47    49   ar
    87   126   127    1
    88    48    50   ar
    89    49    51   ar
    90    50    51   ar
    91   109   107    1
    92   108   107    1
    93   127   128    2
    94   107   106    1
    95   105   104    2
    96   106   103    1
    97   103   104    1
    98   103   102    1
    99    78    79   ar
   100    78    76   ar
   101    79    77   ar
   102   146   145    2
   103    76    74   ar
   104   150   148    1
   105   145   144    1
   106    77    75   ar
   107   144   147    1
   108   144   143    1
   109    74    75   ar
   110    74    73    1
   111   147   148    1
   112   142   140    1
   113    94    93    2
   114   148   149    1
   115    91    92    1
   116    92    93    1
   117    92    95    1
   118    73    70    1
   119    70    71    1
   120    70    69    1
   121   140   139    1
   122    72    71    2
   123    95    96    1
   124    71    80   am
   125   139   141    1
   126   139   136    1
   127    96    97    1
   128   135   136    1
   129    80    81    1
   130   136   137    1
   131   100    99    1
   132    81    82    1
   133    81    84    1
   134    97    98    1
   135    82    83    2
   136    99    98    2
   137    99   101    1
   138   137   138    2
   139    84    85    1
   140    86    85   ar
   141    86    88   ar
   142    85    87   ar
   143    88    90   ar
   144    87    89   ar
   145    90    89   ar
