@<TRIPOS>MOLECULE
tmp/4pk6B01.pdb
 153 147 0 0 0
SMALL
GASTEIGER

@<TRIPOS>ATOM
      1  N         35.6020    5.6480   23.7620 N.3   113  LEU113     -0.1231
      2  CA        35.4670    4.6990   22.6660 C.3   113  LEU113      0.1693
      3  C         34.0100    4.6610   22.1980 C.2   113  LEU113      0.2592
      4  O         33.0800    4.8010   22.9990 O.2   113  LEU113     -0.2718
      5  CB        35.9470    3.3070   23.0890 C.3   113  LEU113      0.0284
      6  CG        36.0150    2.2300   22.0000 C.3   113  LEU113      0.0019
      7  CD1       37.2140    2.4540   21.0930 C.3   113  LEU113      0.0001
      8  CD2       36.0530    0.8340   22.6030 C.3   113  LEU113      0.0001
      9  N         33.8230    4.4860   20.8940 N.am  114  VAL114     -0.1966
     10  CA        32.5000    4.5460   20.2840 C.3   114  VAL114      0.1727
     11  C         32.2510    3.3560   19.3440 C.2   114  VAL114      0.2616
     12  O         33.1790    2.6470   18.9550 O.2   114  VAL114     -0.2715
     13  CB        32.3040    5.8980   19.5500 C.3   114  VAL114      0.0290
     14  CG1       31.0250    5.9090   18.7220 C.3   114  VAL114      0.0023
     15  CG2       32.2940    7.0530   20.5440 C.3   114  VAL114      0.0023
     16  N         30.9790    3.1340   19.0180 N.am  115  TYR115     -0.1974
     17  CA        30.5560    2.1610   18.0140 C.3   115  TYR115      0.1639
     18  C         31.2550    2.4650   16.7020 C.2   115  TYR115      0.2290
     19  O         31.7810    1.5670   16.0420 O.2   115  TYR115     -0.2864
     20  CB        29.0430    2.2640   17.8400 C.3   115  TYR115      0.0560
     21  CG        28.4260    1.3680   16.7920 C.ar  115  TYR115     -0.0198
     22  CD1       28.0800    0.0530   17.0860 C.ar  115  TYR115     -0.0009
     23  CD2       28.1370    1.8520   15.5230 C.ar  115  TYR115     -0.0009
     24  CE1       27.4870   -0.7610   16.1360 C.ar  115  TYR115      0.0417
     25  CE2       27.5450    1.0460   14.5660 C.ar  115  TYR115      0.0417
     26  CZ        27.2220   -0.2570   14.8790 C.ar  115  TYR115      0.1957
     27  OH        26.6360   -1.0540   13.9270 O.3   115  TYR115     -0.2866
     28  N         35.1010    1.3210   17.3570 N.3   118  CYS118     -0.1221
     29  CA        35.5410   -0.0670   17.4190 C.3   118  CYS118      0.1808
     30  C         34.7240   -1.0640   16.5930 C.2   118  CYS118      0.2601
     31  O         34.9780   -2.2660   16.6580 O.2   118  CYS118     -0.2717
     32  CB        35.6810   -0.5250   18.8730 C.3   118  CYS118      0.0970
     33  SG        34.1360   -0.9670   19.6850 S.3   118  CYS118     -0.0800
     34  N         33.7630   -0.5720   15.8110 N.am  119  VAL119     -0.1979
     35  CA        33.0320   -1.4300   14.8630 C.3   119  VAL119      0.1595
     36  C         33.1680   -0.9200   13.4250 C.2   119  VAL119      0.2287
     37  O         33.5110   -1.6860   12.5190 O.2   119  VAL119     -0.2864
     38  CB        31.5360   -1.6040   15.2310 C.3   119  VAL119      0.0276
     39  CG1       30.8410   -2.5400   14.2510 C.3   119  VAL119      0.0022
     40  CG2       31.3880   -2.1380   16.6450 C.3   119  VAL119      0.0022
     41  N         31.5070  -10.2960   17.7740 N.3   152  PHE152     -0.1227
     42  CA        30.6160   -9.2030   18.1520 C.3   152  PHE152      0.1736
     43  C         30.7300   -8.0490   17.1750 C.2   152  PHE152      0.2595
     44  O         29.7630   -7.7110   16.4920 O.2   152  PHE152     -0.2718
     45  CB        30.9450   -8.7290   19.5670 C.3   152  PHE152      0.0547
     46  CG        29.9320   -7.7930   20.1530 C.ar  152  PHE152     -0.0202
     47  CD1       28.5760   -7.9380   19.8750 C.ar  152  PHE152     -0.0042
     48  CD2       30.3330   -6.7850   21.0220 C.ar  152  PHE152     -0.0042
     49  CE1       27.6460   -7.0740   20.4310 C.ar  152  PHE152     -0.0003
     50  CE2       29.4080   -5.9210   21.5870 C.ar  152  PHE152     -0.0003
     51  CZ        28.0650   -6.0700   21.2930 C.ar  152  PHE152     -0.0000
     52  N         31.9240   -7.4710   17.1010 N.am  153  PHE153     -0.1976
     53  CA        32.1970   -6.3360   16.2280 C.3   153  PHE153      0.1639
     54  C         31.9290   -6.6700   14.7660 C.2   153  PHE153      0.2290
     55  O         31.2990   -5.8830   14.0570 O.2   153  PHE153     -0.2864
     56  CB        33.6450   -5.8750   16.3930 C.3   153  PHE153      0.0560
     57  CG        33.9830   -5.3820   17.7750 C.ar  153  PHE153     -0.0200
     58  CD1       33.0530   -5.4300   18.8080 C.ar  153  PHE153     -0.0042
     59  CD2       35.2580   -4.9010   18.0490 C.ar  153  PHE153     -0.0042
     60  CE1       33.3790   -4.9800   20.0740 C.ar  153  PHE153     -0.0003
     61  CE2       35.5910   -4.4520   19.3160 C.ar  153  PHE153     -0.0003
     62  CZ        34.6490   -4.4920   20.3300 C.ar  153  PHE153     -0.0000
     63  N         28.1020   -7.2620   13.8860 N.3   156  SER156     -0.1217
     64  CA        27.5390   -5.9230   13.8970 C.3   156  SER156      0.1889
     65  C         27.8760   -5.2260   12.5900 C.2   156  SER156      0.2288
     66  O         26.9730   -4.8680   11.8310 O.2   156  SER156     -0.2866
     67  CB        28.0480   -5.1290   15.0950 C.3   156  SER156      0.2089
     68  OG        27.5940   -5.7330   16.2890 O.3   156  SER156     -0.2183
     69  N         29.4070  -13.6800   25.7850 N.3   214  ALA214     -0.1231
     70  CA        30.0710  -12.4030   25.5180 C.3   214  ALA214      0.1694
     71  C         29.7000  -11.2890   26.4850 C.2   214  ALA214      0.2592
     72  O         30.5580  -10.4910   26.8660 O.2   214  ALA214     -0.2718
     73  CB        29.7950  -11.9580   24.0900 C.3   214  ALA214      0.0304
     74  N         28.4240  -11.2330   26.8640 N.am  215  PHE215     -0.1976
     75  CA        27.9110  -10.1850   27.7470 C.3   215  PHE215      0.1639
     76  C         28.6330  -10.1990   29.0850 C.2   215  PHE215      0.2290
     77  O         28.9020   -9.1430   29.6640 O.2   215  PHE215     -0.2864
     78  CB        26.4040  -10.3610   27.9670 C.3   215  PHE215      0.0560
     79  CG        25.7830   -9.3090   28.8540 C.ar  215  PHE215     -0.0200
     80  CD1       25.6880   -9.5020   30.2330 C.ar  215  PHE215     -0.0042
     81  CD2       25.2760   -8.1330   28.3110 C.ar  215  PHE215     -0.0042
     82  CE1       25.1100   -8.5390   31.0500 C.ar  215  PHE215     -0.0003
     83  CE2       24.6980   -7.1680   29.1230 C.ar  215  PHE215     -0.0003
     84  CZ        24.6140   -7.3710   30.4920 C.ar  215  PHE215     -0.0000
     85  N         34.4330   -7.8510   28.2410 N.3   219  LEU219     -0.1231
     86  CA        34.0370   -6.9390   27.1740 C.3   219  LEU219      0.1693
     87  C         33.1700   -5.7970   27.7080 C.2   219  LEU219      0.2591
     88  O         33.5500   -4.6280   27.5960 O.2   219  LEU219     -0.2718
     89  CB        33.2990   -7.6980   26.0630 C.3   219  LEU219      0.0284
     90  CG        33.6390   -7.4130   24.5910 C.3   219  LEU219      0.0019
     91  CD1       32.6050   -8.0680   23.6860 C.3   219  LEU219      0.0001
     92  CD2       33.7630   -5.9310   24.2620 C.3   219  LEU219      0.0001
     93  N         32.0290   -6.1460   28.3070 N.am  220  ARG220     -0.1980
     94  CA        31.0860   -5.1660   28.8560 C.3   220  ARG220      0.1597
     95  C         31.7650   -4.1870   29.8110 C.2   220  ARG220      0.2287
     96  O         31.4190   -3.0050   29.8420 O.2   220  ARG220     -0.2864
     97  CB        29.9120   -5.8680   29.5430 C.3   220  ARG220      0.0334
     98  CG        28.9960   -4.9350   30.3210 C.3   220  ARG220      0.0492
     99  CD        27.6950   -5.5990   30.7390 C.3   220  ARG220      0.2205
    100  NE        27.8840   -6.9470   31.2780 N.pl3 220  ARG220     -0.0865
    101  CZ        28.2300   -7.2300   32.5330 C.cat 220  ARG220      0.5346
    102  NH1       28.4470   -6.2600   33.4130 N.pl3 220  ARG220      0.1354
    103  NH2       28.3670   -8.4960   32.9080 N.pl3 220  ARG220      0.1354
    104  N         33.7400   -1.7930   27.7290 N.3   223  LEU223     -0.1245
    105  CA        32.8560   -0.8930   26.9880 C.3   223  LEU223      0.1561
    106  C         32.0250   -0.0160   27.9180 C.2   223  LEU223      0.2260
    107  O         31.1370    0.7000   27.4600 O.2   223  LEU223     -0.2867
    108  CB        31.9380   -1.6680   26.0390 C.3   223  LEU223      0.0270
    109  CG        32.5560   -2.4810   24.9000 C.3   223  LEU223      0.0019
    110  CD1       31.4530   -3.1290   24.0790 C.3   223  LEU223      0.0001
    111  CD2       33.4540   -1.6350   24.0100 C.3   223  LEU223      0.0001
    112  N         29.8340    2.6790   25.3140 N.3   251  GLY251     -0.1210
    113  CA        29.3080    2.1930   24.0440 C.3   251  GLY251      0.1956
    114  C         27.9320    1.5590   24.1190 C.2   251  GLY251      0.2613
    115  O         27.6800    0.6810   24.9460 O.2   251  GLY251     -0.2717
    116  N         27.0390    2.0410   23.2620 N.am  252  SER252     -0.1938
    117  CA        25.7410    1.4300   23.0430 C.3   252  SER252      0.2055
    118  C         25.4950    1.3820   21.5540 C.2   252  SER252      0.2642
    119  O         25.6940    2.3800   20.8630 O.2   252  SER252     -0.2714
    120  CB        24.6400    2.2510   23.6930 C.3   252  SER252      0.2130
    121  OG        23.3940    1.9780   23.0730 O.3   252  SER252     -0.2179
    122  N         25.0440    0.2330   21.0620 N.am  253  ALA253     -0.1977
    123  CA        24.6900    0.0950   19.6540 C.3   253  ALA253      0.1597
    124  C         23.5390    1.0210   19.2350 C.2   253  ALA253      0.2287
    125  O         23.0840    0.9810   18.0940 O.2   253  ALA253     -0.2864
    126  CB        24.3630   -1.3460   19.3360 C.3   253  ALA253      0.0319
    127  N         24.2630    3.8780   18.9790 N.3   255  GLN255     -0.1245
    128  CA        25.1170    4.8090   18.2440 C.3   255  GLN255      0.1566
    129  C         25.2190    4.3690   16.7900 C.2   255  GLN255      0.2260
    130  O         25.9440    4.9790   16.0020 O.2   255  GLN255     -0.2867
    131  CB        26.5250    4.8620   18.8450 C.3   255  GLN255      0.0367
    132  CG        26.6330    5.4840   20.2300 C.3   255  GLN255      0.0905
    133  CD        27.9000    5.0560   20.9560 C.2   255  GLN255      0.2608
    134  OE1       28.2810    3.8870   20.9280 O.2   255  GLN255     -0.2717
    135  NE2       28.5530    6.0000   21.6170 N.am  255  GLN255     -0.0878
    136  N         16.7870   -9.7740   17.0660 N.3   335  HIS335     -0.1241
    137  CA        17.8150   -9.2080   17.9390 C.3   335  HIS335      0.1621
    138  C         17.4720   -9.5110   19.3960 C.2   335  HIS335      0.2264
    139  O         18.3060  -10.0300   20.1420 O.2   335  HIS335     -0.2867
    140  CB        17.9620   -7.6970   17.7160 C.3   335  HIS335      0.0745
    141  CG        18.9370   -7.0410   18.6450 C.ar  335  HIS335      0.0817
    142  ND1       18.5420   -6.2930   19.7340 N.ar  335  HIS335     -0.2268
    143  CD2       20.2920   -7.0260   18.6510 C.ar  335  HIS335      0.1154
    144  CE1       19.6110   -5.8410   20.3660 C.ar  335  HIS335      0.1986
    145  NE2       20.6850   -6.2750   19.7320 N.ar  335  HIS335     -0.2212
    146  N         18.0500   -3.1140   30.4900 N.3   354  LEU354     -0.1245
    147  CA        18.4230   -3.3350   29.1020 C.3   354  LEU354      0.1561
    148  C         17.2840   -3.9710   28.3170 C.2   354  LEU354      0.2260
    149  O         16.9210   -3.4830   27.2450 O.2   354  LEU354     -0.2867
    150  CB        19.6880   -4.1910   29.0200 C.3   354  LEU354      0.0270
    151  CG        21.0330   -3.4580   28.9690 C.3   354  LEU354      0.0019
    152  CD1       21.2060   -2.4140   30.0700 C.3   354  LEU354      0.0001
    153  CD2       22.1610   -4.4730   29.0160 C.3   354  LEU354      0.0001
@<TRIPOS>BOND
     1    66    65    2
     2    37    36    2
     3    65    64    1
     4    36    35    1
     5    63    64    1
     6    64    67    1
     7    27    26    1
     8    55    54    2
     9    39    38    1
    10    25    26   ar
    11    25    23   ar
    12    54    53    1
    13    35    38    1
    14    35    34    1
    15    26    24   ar
    16    67    68    1
    17    38    40    1
    18    23    21   ar
    19    34    30   am
    20   130   129    2
    21    19    18    2
    22    24    22   ar
    23    53    56    1
    24    53    52    1
    25    56    57    1
    26    44    43    2
    27    30    31    2
    28    30    29    1
    29    18    17    1
    30   129   128    1
    31    21    22   ar
    32    21    20    1
    33   136   137    1
    34    52    43   am
    35    43    42    1
    36    28    29    1
    37    29    32    1
    38   140   137    1
    39   140   141    1
    40    41    42    1
    41    57    59   ar
    42    57    58   ar
    43    20    17    1
    44   137   138    1
    45    17    16    1
    46    59    61   ar
    47   125   124    2
    48    42    45    1
    49   128   131    1
    50   128   127    1
    51   141   143   ar
    52   141   142   ar
    53   143   145   ar
    54    14    13    1
    55    58    60   ar
    56   131   132    1
    57    32    33    1
    58    12    11    2
    59    16    11   am
    60   124   123    1
    61    61    62   ar
    62   126   123    1
    63    11    10    1
    64   138   139    2
    65    13    10    1
    66    13    15    1
    67    45    46    1
    68   123   122    1
    69   145   144   ar
    70   142   144   ar
    71    47    46   ar
    72    47    49   ar
    73    60    62   ar
    74    46    48   ar
    75   132   133    1
    76    10     9    1
    77    49    51   ar
    78   119   118    2
    79     9     3   am
    80   134   133    2
    81   133   135   am
    82    48    50   ar
    83   122   118   am
    84     7     6    1
    85    51    50   ar
    86   118   117    1
    87     6     8    1
    88     6     5    1
    89     3     2    1
    90     3     4    2
    91     2     5    1
    92     2     1    1
    93   117   116    1
    94   117   120    1
    95   121   120    1
    96   116   114   am
    97    91    90    1
    98   111   109    1
    99   113   114    1
   100   113   112    1
   101   110   109    1
   102    73    70    1
   103   114   115    2
   104    92    90    1
   105    90    89    1
   106   109   108    1
   107    70    69    1
   108    70    71    1
   109   108   105    1
   110    89    86    1
   111    71    74   am
   112    71    72    2
   113    74    75    1
   114   105   104    1
   115   105   106    1
   116    86    87    1
   117    86    85    1
   118   149   148    2
   119   107   106    2
   120    88    87    2
   121    87    93   am
   122    75    78    1
   123    75    76    1
   124    78    79    1
   125    93    94    1
   126    81    79   ar
   127    81    83   ar
   128   148   147    1
   129    79    80   ar
   130    94    97    1
   131    94    95    1
   132   151   153    1
   133   151   150    1
   134   151   152    1
   135   150   147    1
   136    76    77    2
   137   147   146    1
   138    83    84   ar
   139    97    98    1
   140    95    96    2
   141    80    82   ar
   142    98    99    1
   143    84    82   ar
   144    99   100    1
   145   100   101    2
   146   101   103    1
   147   101   102    1
