@<TRIPOS>MOLECULE
tmp/4pkkC00.pdb
 93 91 0 0 0
SMALL
GASTEIGER

@<TRIPOS>ATOM
      1  N        -24.5860   41.1870   -1.1050 N.3     1  PRO1       -0.2102
      2  CA       -25.9930   41.3350   -1.5960 C.3     1  PRO1        0.1504
      3  C        -26.1350   42.2470   -2.7580 C.2     1  PRO1        0.2575
      4  O        -25.5270   43.3540   -2.8150 O.2     1  PRO1       -0.2718
      5  CB       -26.7260   41.8370   -0.3670 C.3     1  PRO1        0.0282
      6  CG       -25.6220   42.5990    0.4060 C.3     1  PRO1        0.0208
      7  CD       -24.3940   41.7970    0.2350 C.3     1  PRO1        0.0893
      8  N        -27.0490   41.8810   -3.6470 N.am    2  MET2       -0.1980
      9  CA       -27.5410   42.7860   -4.6440 C.3     2  MET2        0.1605
     10  C        -29.0390   42.8540   -4.5680 C.2     2  MET2        0.2287
     11  O        -29.6430   41.9080   -4.5710 O.2     2  MET2       -0.2864
     12  CB       -27.0910   42.4280   -6.0520 C.3     2  MET2        0.0413
     13  CG       -27.2980   41.0150   -6.4400 C.3     2  MET2        0.0598
     14  SD       -26.9190   40.6900   -8.1900 S.3     2  MET2       -0.1393
     15  CE       -28.2120   41.5130   -9.0130 C.3     2  MET2        0.0692
     16  N        -21.5170   42.1280    4.9190 N.3    32  LYS32      -0.1231
     17  CA       -20.6610   42.1280    3.7890 C.3    32  LYS32       0.1678
     18  C        -20.0790   43.5330    3.6010 C.2    32  LYS32       0.2434
     19  O        -20.7550   44.5420    3.8860 O.2    32  LYS32      -0.2733
     20  CB       -21.4240   41.6650    2.5260 C.3    32  LYS32       0.0284
     21  CG       -21.9040   40.2650    2.5900 C.3    32  LYS32       0.0035
     22  CD       -20.7580   39.2490    2.5580 C.3    32  LYS32       0.0206
     23  CE       -21.3380   37.8500    2.6770 C.3    32  LYS32       0.1093
     24  NZ       -20.2590   36.8230    2.6750 N.3    32  LYS32      -0.1314
     25  N        -18.8690   43.6000    3.0740 N.am   33  PRO33      -0.2729
     26  CA       -18.2920   44.9200    2.7750 C.3    33  PRO33       0.1401
     27  C        -19.0920   45.6370    1.6880 C.2    33  PRO33       0.2269
     28  O        -19.4830   44.9650    0.6830 O.2    33  PRO33      -0.2865
     29  CB       -16.9360   44.5900    2.1380 C.3    33  PRO33       0.0296
     30  CG       -16.7620   43.1190    2.2590 C.3    33  PRO33       0.0237
     31  CD       -18.1310   42.5110    2.4000 C.3    33  PRO33       0.0939
     32  N        -18.9130   45.2390   -2.4010 N.3    36  TYR36      -0.1241
     33  CA       -19.5540   44.2130   -3.2040 C.3    36  TYR36       0.1605
     34  C        -21.0460   44.4030   -3.3280 C.2    36  TYR36       0.2264
     35  O        -21.6750   43.6450   -3.9870 O.2    36  TYR36      -0.2867
     36  CB       -19.2740   42.8330   -2.6510 C.3    36  TYR36       0.0534
     37  CG       -17.8880   42.3340   -3.0310 C.ar   36  TYR36      -0.0201
     38  CD1      -17.5840   41.9580   -4.3560 C.ar   36  TYR36      -0.0009
     39  CD2      -16.8720   42.3230   -2.1050 C.ar   36  TYR36      -0.0009
     40  CE1      -16.3150   41.5390   -4.7110 C.ar   36  TYR36       0.0417
     41  CE2      -15.6110   41.8930   -2.4460 C.ar   36  TYR36       0.0417
     42  CZ       -15.3470   41.4960   -3.7600 C.ar   36  TYR36       0.1957
     43  OH       -14.0920   41.0730   -4.1270 O.3    36  TYR36      -0.2866
     44  N        -30.1900   38.9260   -4.1240 N.3    62  HIS62      -0.1226
     45  CA       -29.3000   37.8050   -4.4390 C.3    62  HIS62       0.1752
     46  C        -28.0540   37.9250   -3.5580 C.2    62  HIS62       0.2597
     47  O        -27.5090   39.0130   -3.3970 O.2    62  HIS62      -0.2718
     48  CB       -28.8600   37.7870   -5.9210 C.3    62  HIS62       0.0759
     49  CG       -29.9390   37.6100   -6.9070 C.ar   62  HIS62       0.0818
     50  ND1      -30.8230   38.6020   -7.2680 N.ar   62  HIS62      -0.2268
     51  CD2      -30.1960   36.5770   -7.7260 C.ar   62  HIS62       0.1154
     52  CE1      -31.6160   38.1530   -8.2150 C.ar   62  HIS62       0.1986
     53  NE2      -31.2700   36.9150   -8.4870 N.ar   62  HIS62      -0.2212
     54  N        -27.7130   36.8120   -2.9800 N.am   63  SER63      -0.1938
     55  CA       -26.5040   36.6830   -2.1280 C.3    63  SER63       0.2055
     56  C        -25.8970   35.3410   -2.2800 C.2    63  SER63       0.2642
     57  O        -26.5730   34.3280   -2.5390 O.2    63  SER63      -0.2714
     58  CB       -26.8610   37.0400   -0.6610 C.3    63  SER63       0.2130
     59  OG       -25.7120   37.0780    0.2090 O.3    63  SER63      -0.2179
     60  N        -24.5560   35.2630   -2.0750 N.am   64  ILE64      -0.1977
     61  CA       -23.8990   33.9400   -1.9430 C.3    64  ILE64       0.1596
     62  C        -23.8000   33.5960   -0.4250 C.2    64  ILE64       0.2287
     63  O        -23.0130   34.1970    0.3120 O.2    64  ILE64      -0.2864
     64  CB       -22.4780   33.9720   -2.5640 C.3    64  ILE64       0.0276
     65  CG1      -22.5120   34.3700   -4.0380 C.3    64  ILE64       0.0022
     66  CG2      -21.8290   32.6030   -2.4020 C.3    64  ILE64       0.0022
     67  CD1      -21.1500   34.7570   -4.6210 C.3    64  ILE64       0.0001
     68  N        -27.4020   32.2150   -4.1160 N.3   101  MET101     -0.1245
     69  CA       -26.7290   31.7900   -5.3360 C.3   101  MET101      0.1570
     70  C        -25.5010   30.9340   -5.0430 C.2   101  MET101      0.2261
     71  O        -24.7280   31.2430   -4.0850 O.2   101  MET101     -0.2867
     72  CB       -26.2490   33.0290   -6.1320 C.3   101  MET101      0.0387
     73  CG       -27.3290   33.9500   -6.6010 C.3   101  MET101      0.0595
     74  SD       -28.4420   33.1870   -7.7690 S.3   101  MET101     -0.1393
     75  CE       -27.3190   32.9930   -9.1610 C.3   101  MET101      0.0692
     76  N        -22.2280   32.9360  -10.0180 N.3   106  VAL106     -0.1245
     77  CA       -22.1530   34.3750   -9.9430 C.3   106  VAL106      0.1561
     78  C        -20.8540   34.8130  -10.6040 C.2   106  VAL106      0.2260
     79  O        -19.7560   34.5230  -10.0930 O.2   106  VAL106     -0.2867
     80  CB       -22.2340   34.9260   -8.5080 C.3   106  VAL106      0.0252
     81  CG1      -22.1450   36.4720   -8.5580 C.3   106  VAL106      0.0019
     82  CG2      -23.5080   34.4020   -7.8390 C.3   106  VAL106      0.0019
     83  N        -17.2450   33.3940   -8.4680 N.3   113  PHE113     -0.1241
     84  CA       -16.8020   33.4470   -7.0840 C.3   113  PHE113      0.1605
     85  C        -16.3890   32.0960   -6.5430 C.2   113  PHE113      0.2264
     86  O        -16.0050   31.9820   -5.4160 O.2   113  PHE113     -0.2867
     87  CB       -17.8300   34.1320   -6.2110 C.3   113  PHE113      0.0534
     88  CG       -17.8140   35.6200   -6.3330 C.ar  113  PHE113     -0.0203
     89  CD1      -16.7710   36.3290   -5.8520 C.ar  113  PHE113     -0.0042
     90  CD2      -18.8240   36.3000   -6.9450 C.ar  113  PHE113     -0.0042
     91  CE1      -16.7270   37.6800   -5.9650 C.ar  113  PHE113     -0.0003
     92  CE2      -18.8050   37.6520   -7.0480 C.ar  113  PHE113     -0.0003
     93  CZ       -17.7480   38.3520   -6.5570 C.ar  113  PHE113     -0.0000
@<TRIPOS>BOND
     1    78    79    2
     2    78    77    1
     3    76    77    1
     4    77    80    1
     5    75    74    1
     6    15    14    1
     7    81    80    1
     8    80    82    1
     9    53    52   ar
    10    53    51   ar
    11    83    84    1
    12    52    50   ar
    13    14    13    1
    14    74    73    1
    15    51    49   ar
    16    50    49   ar
    17    84    85    1
    18    84    87    1
    19    92    90   ar
    20    92    93   ar
    21    90    88   ar
    22    49    48    1
    23    73    72    1
    24    93    91   ar
    25    85    86    2
    26    13    12    1
    27    88    87    1
    28    88    89   ar
    29    72    69    1
    30    12     9    1
    31    91    89   ar
    32    48    45    1
    33    69    70    1
    34    69    68    1
    35    70    71    2
    36    40    38   ar
    37    40    42   ar
    38     9    10    1
    39     9     8    1
    40    67    65    1
    41    11    10    2
    42    45    44    1
    43    45    46    1
    44    38    37   ar
    45    43    42    1
    46    65    64    1
    47    35    34    2
    48    42    41   ar
    49     8     3   am
    50    46    47    2
    51    46    54   am
    52    34    33    1
    53    33    36    1
    54    33    32    1
    55    37    36    1
    56    37    39   ar
    57    54    55    1
    58     4     3    2
    59     3     2    1
    60    64    66    1
    61    64    61    1
    62    57    56    2
    63    41    39   ar
    64    56    55    1
    65    56    60   am
    66    55    58    1
    67    60    61    1
    68    61    62    1
    69     2     1    1
    70     2     5    1
    71     1     7    1
    72    58    59    1
    73    62    63    2
    74     5     6    1
    75     7     6    1
    76    28    27    2
    77    27    26    1
    78    29    30    1
    79    29    26    1
    80    30    31    1
    81    31    25    1
    82    20    21    1
    83    20    17    1
    84    22    21    1
    85    22    23    1
    86    24    23    1
    87    26    25    1
    88    25    18   am
    89    18    17    1
    90    18    19    2
    91    17    16    1
