@<TRIPOS>MOLECULE
tmp/4pklB00.pdb
 105 102 0 0 0
SMALL
GASTEIGER

@<TRIPOS>ATOM
      1  N         55.6270   37.8120   25.8660 N.3    20  LEU20      -0.1231
      2  CA        54.5820   38.3920   25.0240 C.3    20  LEU20       0.1693
      3  C         54.4300   39.8870   25.2520 C.2    20  LEU20       0.2593
      4  O         53.8410   40.5670   24.4150 O.2    20  LEU20      -0.2718
      5  CB        53.2290   37.7320   25.2710 C.3    20  LEU20       0.0284
      6  CG        53.1050   36.2730   24.8670 C.3    20  LEU20       0.0019
      7  CD1       51.7550   35.7430   25.3050 C.3    20  LEU20       0.0001
      8  CD2       53.3110   36.0920   23.3510 C.3    20  LEU20       0.0001
      9  N         54.9230   40.3800   26.3880 N.am   21  GLY21      -0.1942
     10  CA        54.7210   41.7690   26.7720 C.3    21  GLY21       0.2014
     11  C         53.2900   42.0900   27.1830 C.2    21  GLY21       0.2638
     12  O         52.9110   43.2610   27.2510 O.2    21  GLY21      -0.2714
     13  N         52.4900   41.0660   27.4740 N.am   22  MET22      -0.1976
     14  CA        51.0590   41.2710   27.7290 C.3    22  MET22       0.1605
     15  C         50.7760   41.8520   29.1150 C.2    22  MET22       0.2287
     16  O         49.6540   42.2930   29.3840 O.2    22  MET22      -0.2864
     17  CB        50.2830   39.9560   27.5620 C.3    22  MET22       0.0413
     18  CG        50.6860   38.8910   28.5550 C.3    22  MET22       0.0598
     19  SD        49.8230   37.3080   28.3140 S.3    22  MET22      -0.1393
     20  CE        48.2150   37.7220   28.9780 C.3    22  MET22       0.0692
     21  N         52.3520   46.8590   30.4990 N.3    25  HIS25      -0.1241
     22  CA        51.7630   48.1740   30.6960 C.3    25  HIS25       0.1621
     23  C         50.2380   48.1230   30.6110 C.2    25  HIS25       0.2264
     24  O         49.6660   47.1010   30.2460 O.2    25  HIS25      -0.2867
     25  CB        52.3400   49.1510   29.6660 C.3    25  HIS25       0.0745
     26  CG        52.2340   48.6630   28.2590 C.ar   25  HIS25       0.0817
     27  ND1       51.0680   48.7440   27.5310 N.ar   25  HIS25      -0.2268
     28  CD2       53.1430   48.0650   27.4530 C.ar   25  HIS25       0.1154
     29  CE1       51.2660   48.2240   26.3310 C.ar   25  HIS25       0.1986
     30  NE2       52.5140   47.7980   26.2600 N.ar   25  HIS25      -0.2212
     31  N         46.4150   48.6780   29.1730 N.3    27  VAL27      -0.1245
     32  CA        45.8910   48.5630   27.8140 C.3    27  VAL27       0.1561
     33  C         44.8800   49.6790   27.5420 C.2    27  VAL27       0.2260
     34  O         44.1240   50.0660   28.4310 O.2    27  VAL27      -0.2867
     35  CB        45.2490   47.1600   27.5710 C.3    27  VAL27       0.0252
     36  CG1       45.5230   46.2310   28.7520 C.3    27  VAL27       0.0019
     37  CG2       43.7540   47.2550   27.2980 C.3    27  VAL27       0.0019
     38  N         42.8500   50.5110   21.6130 N.3    31  GLU31      -0.1231
     39  CA        43.5970   49.3440   21.1700 C.3    31  GLU31       0.1699
     40  C         42.7580   48.0890   21.3270 C.2    31  GLU31       0.2592
     41  O         42.5830   47.3100   20.3890 O.2    31  GLU31      -0.2718
     42  CB        44.8850   49.2000   21.9740 C.3    31  GLU31       0.0402
     43  CG        45.9380   50.2250   21.6450 C.3    31  GLU31       0.1161
     44  CD        47.1040   50.1760   22.6060 C.2    31  GLU31       0.3649
     45  OE1       46.9150   49.7150   23.7530 O.co2  31  GLU31      -0.2457
     46  OE2       48.2120   50.5920   22.2120 O.co2  31  GLU31      -0.2457
     47  N         42.2450   47.9070   22.5380 N.am   32  LEU32      -0.1980
     48  CA        41.4650   46.7320   22.8900 C.3    32  LEU32       0.1596
     49  C         40.2010   47.2100   23.5790 C.2    32  LEU32       0.2287
     50  O         40.0870   47.1470   24.8040 O.2    32  LEU32      -0.2864
     51  CB        42.2750   45.7960   23.7890 C.3    32  LEU32       0.0297
     52  CG        41.8050   44.3510   23.9680 C.3    32  LEU32       0.0022
     53  CD1       41.7160   43.6350   22.6270 C.3    32  LEU32       0.0001
     54  CD2       42.7420   43.6090   24.9090 C.3    32  LEU32       0.0001
     55  N         38.1960   45.3570   26.4350 N.3    35  TYR35      -0.1241
     56  CA        38.9050   44.9110   27.6390 C.3    35  TYR35       0.1605
     57  C         38.3410   45.4870   28.9490 C.2    35  TYR35       0.2264
     58  O         38.0660   44.7450   29.8950 O.2    35  TYR35      -0.2867
     59  CB        40.4050   45.2360   27.5390 C.3    35  TYR35       0.0534
     60  CG        41.1980   44.6630   28.7010 C.ar   35  TYR35      -0.0201
     61  CD1       41.7040   43.3660   28.6560 C.ar   35  TYR35      -0.0009
     62  CD2       41.4070   45.4120   29.8610 C.ar   35  TYR35      -0.0009
     63  CE1       42.4170   42.8370   29.7280 C.ar   35  TYR35       0.0417
     64  CE2       42.1140   44.8890   30.9440 C.ar   35  TYR35       0.0417
     65  CZ        42.6140   43.5990   30.8700 C.ar   35  TYR35       0.1957
     66  OH        43.3200   43.0690   31.9400 O.3    35  TYR35      -0.2866
     67  N         44.0550   38.4400   33.2190 N.3    74  ALA74      -0.1245
     68  CA        44.4360   37.9620   31.8960 C.3    74  ALA74       0.1562
     69  C         43.7600   36.6350   31.5570 C.2    74  ALA74       0.2260
     70  O         43.3760   36.4200   30.4060 O.2    74  ALA74      -0.2867
     71  CB        45.9480   37.8250   31.7980 C.3    74  ALA74       0.0290
     72  N         39.9740   37.4030   30.9360 N.3    77  TYR77      -0.1227
     73  CA        39.6990   38.0980   29.6890 C.3    77  TYR77       0.1736
     74  C         39.9790   37.2300   28.4580 C.2    77  TYR77       0.2595
     75  O         39.1890   37.1990   27.5060 O.2    77  TYR77      -0.2718
     76  CB        40.5090   39.3900   29.5940 C.3    77  TYR77       0.0548
     77  CG        40.3490   40.0060   28.2310 C.ar   77  TYR77      -0.0200
     78  CD1       39.2080   40.7350   27.9030 C.ar   77  TYR77      -0.0009
     79  CD2       41.3060   39.8050   27.2420 C.ar   77  TYR77      -0.0009
     80  CE1       39.0420   41.2630   26.6320 C.ar   77  TYR77       0.0417
     81  CE2       41.1410   40.3200   25.9780 C.ar   77  TYR77       0.0417
     82  CZ        40.0200   41.0470   25.6820 C.ar   77  TYR77       0.1957
     83  OH        39.8960   41.5550   24.4090 O.3    77  TYR77      -0.2866
     84  N         41.1190   36.5620   28.4550 N.am   78  ASN78      -0.1974
     85  CA        41.5700   35.8940   27.2460 C.3    78  ASN78       0.1688
     86  C         40.8650   34.5780   26.9740 C.2    78  ASN78       0.2292
     87  O         40.4160   33.8930   27.8900 O.2    78  ASN78      -0.2864
     88  CB        43.0730   35.6810   27.3040 C.3    78  ASN78       0.1181
     89  CG        43.8250   36.9490   26.9980 C.2    78  ASN78       0.2629
     90  OD1       43.8000   37.4110   25.8630 O.2    78  ASN78      -0.2716
     91  ND2       44.4560   37.5480   28.0030 N.am   78  ASN78      -0.0877
     92  N         47.9950   34.1580   24.7550 N.3    84  TRP84      -0.1241
     93  CA        47.9550   35.0190   25.9290 C.3    84  TRP84       0.1605
     94  C         47.5330   34.2400   27.1580 C.2    84  TRP84       0.2264
     95  O         48.1240   34.3570   28.2320 O.2    84  TRP84      -0.2867
     96  CB        46.9700   36.1820   25.7510 C.3    84  TRP84       0.0550
     97  CG        47.1600   37.0850   24.5760 C.ar   84  TRP84       0.0003
     98  CD1       48.0980   38.0700   24.4280 C.ar   84  TRP84       0.0946
     99  CD2       46.3390   37.1410   23.4100 C.ar   84  TRP84       0.0152
    100  NE1       47.9230   38.7160   23.2270 N.ar   84  TRP84      -0.2442
    101  CE2       46.8400   38.1730   22.5850 C.ar   84  TRP84       0.0810
    102  CE3       45.2130   36.4290   22.9880 C.ar   84  TRP84       0.0012
    103  CZ2       46.2620   38.4910   21.3570 C.ar   84  TRP84       0.0191
    104  CZ3       44.6450   36.7500   21.7770 C.ar   84  TRP84       0.0001
    105  CH2       45.1740   37.7660   20.9690 C.ar   84  TRP84       0.0015
@<TRIPOS>BOND
     1    41    40    2
     2   105   103   ar
     3   105   104   ar
     4    39    40    1
     5    39    38    1
     6    39    42    1
     7    40    47   am
     8   103   101   ar
     9    43    42    1
    10    43    44    1
    11   104   102   ar
    12    46    44   ar
    13    47    48    1
    14   101   100   ar
    15   101    99   ar
    16    44    45   ar
    17    53    52    1
    18    48    49    1
    19    48    51    1
    20   102    99   ar
    21   100    98   ar
    22     8     6    1
    23    99    97   ar
    24    49    50    2
    25    51    52    1
    26    52    54    1
    27    83    82    1
    28     4     3    2
    29    98    97   ar
    30    97    96    1
    31    92    93    1
    32     6     5    1
    33     6     7    1
    34     2     3    1
    35     2     5    1
    36     2     1    1
    37     3     9   am
    38    82    81   ar
    39    82    80   ar
    40    96    93    1
    41    90    89    2
    42    93    94    1
    43    81    79   ar
    44    30    29   ar
    45    30    28   ar
    46    29    27   ar
    47     9    10    1
    48    55    56    1
    49    80    78   ar
    50    10    11    1
    51    86    85    1
    52    86    87    2
    53    89    88    1
    54    89    91   am
    55    94    95    2
    56    11    12    2
    57    11    13   am
    58    79    77   ar
    59    85    88    1
    60    85    84    1
    61    37    35    1
    62    28    26   ar
    63    13    14    1
    64    75    74    2
    65    27    26   ar
    66    59    56    1
    67    59    60    1
    68    33    32    1
    69    33    34    2
    70    17    14    1
    71    17    18    1
    72    35    32    1
    73    35    36    1
    74    56    57    1
    75    14    15    1
    76    32    31    1
    77    78    77   ar
    78    77    76    1
    79    26    25    1
    80    19    18    1
    81    19    20    1
    82    84    74   am
    83    74    73    1
    84    61    60   ar
    85    61    63   ar
    86    60    62   ar
    87    57    58    2
    88    15    16    2
    89    76    73    1
    90    25    22    1
    91    73    72    1
    92    63    65   ar
    93    62    64   ar
    94    24    23    2
    95    70    69    2
    96    21    22    1
    97    23    22    1
    98    65    64   ar
    99    65    66    1
   100    69    68    1
   101    71    68    1
   102    68    67    1
