@<TRIPOS>MOLECULE
tmp/4pksA00.pdb
 186 182 0 0 0
SMALL
GASTEIGER

@<TRIPOS>ATOM
      1  N          4.6180   11.0500   23.1910 N.3    62  ASP62      -0.1225
      2  CA         4.7440   12.4460   23.5920 C.3    62  ASP62       0.1805
      3  C          5.3960   13.3190   22.5250 C.2    62  ASP62       0.2597
      4  O          5.1300   14.5180   22.4550 O.2    62  ASP62      -0.2718
      5  CB         5.5510   12.5520   24.8910 C.3    62  ASP62       0.1424
      6  CG         4.7500   12.1450   26.1140 C.2    62  ASP62       0.3668
      7  OD1        3.5750   11.7520   25.9560 O.co2  62  ASP62      -0.2456
      8  OD2        5.2990   12.2190   27.2340 O.co2  62  ASP62      -0.2456
      9  N          6.2480   12.7220   21.6960 N.am   63  PHE63      -0.1976
     10  CA         7.0930   13.5040   20.7960 C.3    63  PHE63       0.1639
     11  C          6.7760   13.3590   19.3110 C.2    63  PHE63       0.2290
     12  O          7.6260   13.6380   18.4680 O.2    63  PHE63      -0.2864
     13  CB         8.5630   13.1420   21.0170 C.3    63  PHE63       0.0560
     14  CG         9.2160   13.9160   22.1240 C.ar   63  PHE63      -0.0200
     15  CD1        8.4900   14.3160   23.2340 C.ar   63  PHE63      -0.0042
     16  CD2       10.5510   14.2710   22.0370 C.ar   63  PHE63      -0.0042
     17  CE1        9.0900   15.0330   24.2470 C.ar   63  PHE63      -0.0003
     18  CE2       11.1550   14.9920   23.0450 C.ar   63  PHE63      -0.0003
     19  CZ        10.4240   15.3740   24.1520 C.ar   63  PHE63      -0.0000
     20  N         16.1380   16.9230   19.6850 N.3   363  VAL363     -0.1231
     21  CA        14.8110   17.2450   20.1900 C.3   363  VAL363      0.1692
     22  C         14.3470   18.6220   19.7340 C.2   363  VAL363      0.2592
     23  O         15.0990   19.5940   19.8000 O.2   363  VAL363     -0.2718
     24  CB        14.7760   17.1920   21.7380 C.3   363  VAL363      0.0266
     25  CG1       13.4560   17.7330   22.2750 C.3   363  VAL363      0.0020
     26  CG2       15.0190   15.7740   22.2300 C.3   363  VAL363      0.0020
     27  N         13.1080   18.6990   19.2570 N.am  364  HIS364     -0.1962
     28  CA        12.4600   19.9860   19.0670 C.3   364  HIS364      0.1787
     29  C         11.3030   20.1340   20.0370 C.2   364  HIS364      0.2621
     30  O         10.4820   19.2300   20.1800 O.2   364  HIS364     -0.2715
     31  CB        11.9480   20.1690   17.6410 C.3   364  HIS364      0.0785
     32  CG        11.1640   21.4310   17.4590 C.ar  364  HIS364      0.0821
     33  ND1       11.7010   22.6790   17.6960 N.ar  364  HIS364     -0.2267
     34  CD2        9.8740   21.6400   17.1000 C.ar  364  HIS364      0.1154
     35  CE1       10.7820   23.6020   17.4730 C.ar  364  HIS364      0.1986
     36  NE2        9.6640   22.9980   17.1100 N.ar  364  HIS364     -0.2212
     37  N         11.2390   21.2880   20.6910 N.am  365  SER365     -0.1936
     38  CA        10.2000   21.5660   21.6710 C.3   365  SER365      0.2055
     39  C         10.1540   23.0580   21.9740 C.2   365  SER365      0.2643
     40  O         10.8880   23.8400   21.3740 O.2   365  SER365     -0.2714
     41  CB        10.4430   20.7630   22.9520 C.3   365  SER365      0.2130
     42  OG        11.7800   20.9070   23.4060 O.3   365  SER365     -0.2179
     43  N          9.2830   23.4480   22.8990 N.am  366  LYS366     -0.1963
     44  CA         9.1950   24.8370   23.3320 C.3   366  LYS366      0.1728
     45  C         10.5120   25.2840   23.9570 C.2   366  LYS366      0.2617
     46  O         11.0290   26.3580   23.6450 O.2   366  LYS366     -0.2715
     47  CB         8.0430   25.0160   24.3250 C.3   366  LYS366      0.0311
     48  CG         8.1820   26.2120   25.2580 C.3   366  LYS366      0.0038
     49  CD         8.1270   27.5350   24.5100 C.3   366  LYS366      0.0206
     50  CE         6.7830   27.7450   23.8520 C.3   366  LYS366      0.1093
     51  NZ         6.7350   29.0370   23.1140 N.3   366  LYS366     -0.1314
     52  N         11.0530   24.4480   24.8340 N.am  367  GLY367     -0.1940
     53  CA        12.2730   24.7770   25.5410 C.3   367  GLY367      0.2014
     54  C         13.1810   23.5780   25.7080 C.2   367  GLY367      0.2639
     55  O         12.7330   22.4320   25.6410 O.2   367  GLY367     -0.2714
     56  N         14.4630   23.8440   25.9330 N.am  368  LEU368     -0.1963
     57  CA        15.4410   22.7820   26.1030 C.3   368  LEU368      0.1728
     58  C         16.6420   23.2600   26.9110 C.2   368  LEU368      0.2616
     59  O         16.9800   24.4440   26.8970 O.2   368  LEU368     -0.2715
     60  CB        15.8990   22.2600   24.7380 C.3   368  LEU368      0.0311
     61  CG        16.6710   20.9420   24.7440 C.3   368  LEU368      0.0022
     62  CD1       15.7930   19.8300   25.2910 C.3   368  LEU368      0.0001
     63  CD2       17.1790   20.6010   23.3480 C.3   368  LEU368      0.0001
     64  N         17.2760   22.3330   27.6220 N.am  369  TYR369     -0.1974
     65  CA        18.5590   22.6020   28.2570 C.3   369  TYR369      0.1639
     66  C         19.6070   21.5790   27.8180 C.2   369  TYR369      0.2290
     67  O         19.3630   20.3750   27.8530 O.2   369  TYR369     -0.2864
     68  CB        18.4330   22.6000   29.7810 C.3   369  TYR369      0.0560
     69  CG        19.7610   22.8280   30.4610 C.ar  369  TYR369     -0.0198
     70  CD1       20.3380   24.0890   30.4850 C.ar  369  TYR369     -0.0009
     71  CD2       20.4540   21.7780   31.0500 C.ar  369  TYR369     -0.0009
     72  CE1       21.5600   24.3030   31.0910 C.ar  369  TYR369      0.0417
     73  CE2       21.6750   21.9790   31.6530 C.ar  369  TYR369      0.0417
     74  CZ        22.2230   23.2440   31.6740 C.ar  369  TYR369      0.1957
     75  OH        23.4400   23.4500   32.2780 O.3   369  TYR369     -0.2866
     76  N          4.1440   24.9680   24.3730 N.3   384  GLY384     -0.1210
     77  CA         4.4900   23.8510   25.2320 C.3   384  GLY384      0.1956
     78  C          3.2680   23.1160   25.7470 C.2   384  GLY384      0.2612
     79  O          2.2980   23.7360   26.1850 O.2   384  GLY384     -0.2717
     80  N          3.3130   21.7880   25.6900 N.am  385  VAL385     -0.1965
     81  CA         2.1980   20.9680   26.1520 C.3   385  VAL385      0.1727
     82  C          1.9840   21.1410   27.6510 C.2   385  VAL385      0.2616
     83  O          2.9090   20.9520   28.4430 O.2   385  VAL385     -0.2715
     84  CB         2.4210   19.4800   25.8390 C.3   385  VAL385      0.0290
     85  CG1        1.2020   18.6680   26.2470 C.3   385  VAL385      0.0023
     86  CG2        2.7240   19.2920   24.3600 C.3   385  VAL385      0.0023
     87  N          0.7590   21.5050   28.0240 N.am  386  GLU386     -0.1963
     88  CA         0.4050   21.7810   29.4150 C.3   386  GLU386      0.1733
     89  C          1.3340   22.8330   30.0090 C.2   386  GLU386      0.2616
     90  O          1.9260   22.6340   31.0690 O.2   386  GLU386     -0.2715
     91  CB         0.4370   20.4970   30.2470 C.3   386  GLU386      0.0429
     92  CG        -0.8730   19.7240   30.2290 C.3   386  GLU386      0.1163
     93  CD        -0.6660   18.2220   30.2340 C.2   386  GLU386      0.3649
     94  OE1       -0.4550   17.6490   29.1450 O.co2 386  GLU386     -0.2457
     95  OE2       -0.7100   17.6160   31.3260 O.co2 386  GLU386     -0.2457
     96  N          1.4520   23.9530   29.3030 N.am  387  LEU387     -0.1977
     97  CA         2.3150   25.0540   29.7110 C.3   387  LEU387      0.1596
     98  C          1.6330   26.3840   29.4150 C.2   387  LEU387      0.2287
     99  O          1.2310   26.6380   28.2800 O.2   387  LEU387     -0.2864
    100  CB         3.6610   24.9720   28.9890 C.3   387  LEU387      0.0297
    101  CG         4.7580   25.9370   29.4340 C.3   387  LEU387      0.0022
    102  CD1        5.2210   25.6050   30.8430 C.3   387  LEU387      0.0001
    103  CD2        5.9210   25.8900   28.4600 C.3   387  LEU387      0.0001
    104  N          7.1760   30.4260   32.0520 N.3   392  GLU392     -0.1231
    105  CA         7.1140   29.1900   32.8220 C.3   392  GLU392      0.1699
    106  C          7.9990   28.1180   32.1980 C.2   392  GLU392      0.2592
    107  O          8.6030   27.3120   32.9050 O.2   392  GLU392     -0.2718
    108  CB         5.6730   28.6910   32.9280 C.3   392  GLU392      0.0402
    109  CG         4.7740   29.5910   33.7580 C.3   392  GLU392      0.1161
    110  CD         3.4740   28.9160   34.1420 C.2   392  GLU392      0.3649
    111  OE1        3.1170   27.9020   33.5020 O.co2 392  GLU392     -0.2457
    112  OE2        2.8120   29.3940   35.0860 O.co2 392  GLU392     -0.2457
    113  N          8.0760   28.1180   30.8720 N.am  393  GLY393     -0.1957
    114  CA         8.9400   27.1930   30.1670 C.3   393  GLY393      0.1869
    115  C         10.3970   27.4590   30.4840 C.2   393  GLY393      0.2309
    116  O         11.1670   26.5330   30.7340 O.2   393  GLY393     -0.2863
    117  N         11.3960   26.2650   33.9000 N.3   396  HIS396     -0.1226
    118  CA        11.5950   24.8180   33.8300 C.3   396  HIS396      0.1752
    119  C         12.9980   24.4720   33.3300 C.2   396  HIS396      0.2595
    120  O         13.6910   23.6450   33.9250 O.2   396  HIS396     -0.2718
    121  CB        10.5270   24.1970   32.9230 C.3   396  HIS396      0.0759
    122  CG        10.7360   22.7440   32.6180 C.ar  396  HIS396      0.0818
    123  ND1        9.9750   21.7500   33.1960 N.ar  396  HIS396     -0.2268
    124  CD2       11.5840   22.1220   31.7660 C.ar  396  HIS396      0.1154
    125  CE1       10.3600   20.5750   32.7250 C.ar  396  HIS396      0.1986
    126  NE2       11.3340   20.7730   31.8560 N.ar  396  HIS396     -0.2212
    127  N         13.4140   25.1060   32.2360 N.am  397  GLU397     -0.1979
    128  CA        14.7480   24.8740   31.6870 C.3   397  GLU397      0.1602
    129  C         15.8290   25.2990   32.6810 C.2   397  GLU397      0.2287
    130  O         16.8940   24.6890   32.7490 O.2   397  GLU397     -0.2864
    131  CB        14.9380   25.6200   30.3610 C.3   397  GLU397      0.0415
    132  CG        13.8000   25.4680   29.3550 C.3   397  GLU397      0.1163
    133  CD        13.4910   24.0220   29.0060 C.2   397  GLU397      0.3649
    134  OE1       12.3330   23.7390   28.6350 O.co2 397  GLU397     -0.2457
    135  OE2       14.3980   23.1690   29.0920 O.co2 397  GLU397     -0.2457
    136  N         16.6930   22.6090   35.0510 N.3   400  HIS400     -0.1241
    137  CA        17.7150   21.7020   34.5370 C.3   400  HIS400      0.1621
    138  C         19.1210   22.2350   34.8050 C.2   400  HIS400      0.2264
    139  O         20.0280   21.4690   35.1200 O.2   400  HIS400     -0.2867
    140  CB        17.5350   21.4720   33.0350 C.3   400  HIS400      0.0745
    141  CG        16.3470   20.6320   32.6820 C.ar  400  HIS400      0.0817
    142  ND1       16.0860   19.4190   33.2800 N.ar  400  HIS400     -0.2268
    143  CD2       15.3620   20.8220   31.7710 C.ar  400  HIS400      0.1154
    144  CE1       14.9860   18.9020   32.7630 C.ar  400  HIS400      0.1986
    145  NE2       14.5260   19.7330   31.8450 N.ar  400  HIS400     -0.2212
    146  N          3.7750   14.8300   32.8530 N.3   438  TYR438     -0.1241
    147  CA         5.0480   14.7960   32.1440 C.3   438  TYR438      0.1605
    148  C          6.2310   14.6800   33.1060 C.2   438  TYR438      0.2264
    149  O          7.3080   14.2120   32.7280 O.2   438  TYR438     -0.2867
    150  CB         5.2150   16.0330   31.2630 C.3   438  TYR438      0.0534
    151  CG         6.5480   16.0570   30.5610 C.ar  438  TYR438     -0.0201
    152  CD1        6.8490   15.1260   29.5770 C.ar  438  TYR438     -0.0009
    153  CD2        7.5210   16.9840   30.9090 C.ar  438  TYR438     -0.0009
    154  CE1        8.0740   15.1310   28.9410 C.ar  438  TYR438      0.0417
    155  CE2        8.7480   16.9980   30.2810 C.ar  438  TYR438      0.0417
    156  CZ         9.0200   16.0690   29.2980 C.ar  438  TYR438      0.1957
    157  OH        10.2430   16.0820   28.6690 O.3   438  TYR438     -0.2866
    158  N         13.3650   15.5010   34.4020 N.3   445  GLU445     -0.1245
    159  CA        12.1200   16.1800   34.0700 C.3   445  GLU445      0.1567
    160  C         11.2510   16.3750   35.3090 C.2   445  GLU445      0.2260
    161  O         10.5730   17.3930   35.4440 O.2   445  GLU445     -0.2867
    162  CB        11.3440   15.3980   33.0030 C.3   445  GLU445      0.0388
    163  CG        11.8390   15.5780   31.5610 C.3   445  GLU445      0.1160
    164  CD        12.3570   16.9770   31.2530 C.2   445  GLU445      0.3649
    165  OE1       11.7020   17.9750   31.6290 O.co2 445  GLU445     -0.2457
    166  OE2       13.4220   17.0740   30.6130 O.co2 445  GLU445     -0.2457
    167  N         10.2050   20.0260   36.5990 N.3   449  GLU449     -0.1245
    168  CA         8.7820   20.3010   36.7690 C.3   449  GLU449      0.1567
    169  C          8.4870   20.7610   38.1890 C.2   449  GLU449      0.2260
    170  O          7.7560   21.7290   38.3980 O.2   449  GLU449     -0.2867
    171  CB         7.9480   19.0650   36.4310 C.3   449  GLU449      0.0388
    172  CG         7.7260   18.8620   34.9410 C.3   449  GLU449      0.1160
    173  CD         6.8790   19.9610   34.3300 C.2   449  GLU449      0.3649
    174  OE1        5.6420   19.7950   34.2820 O.co2 449  GLU449     -0.2457
    175  OE2        7.4460   20.9910   33.9040 O.co2 449  GLU449     -0.2457
    176  N          9.7100   24.2180   38.6410 N.3   452  ARG452     -0.1245
    177  CA         8.8260   25.1710   37.9770 C.3   452  ARG452      0.1563
    178  C          7.6380   25.5210   38.8600 C.2   452  ARG452      0.2260
    179  O          7.3380   26.6930   39.0830 O.2   452  ARG452     -0.2867
    180  CB         8.3310   24.6140   36.6370 C.3   452  ARG452      0.0307
    181  CG         7.3040   25.5030   35.9510 C.3   452  ARG452      0.0489
    182  CD         6.9020   24.9860   34.5760 C.3   452  ARG452      0.2205
    183  NE         6.2130   23.6980   34.6320 N.pl3 452  ARG452     -0.0865
    184  CZ         4.9080   23.5560   34.8450 C.cat 452  ARG452      0.5346
    185  NH1        4.1440   24.6230   35.0330 N.pl3 452  ARG452      0.1354
    186  NH2        4.3660   22.3440   34.8740 N.pl3 452  ARG452      0.1354
@<TRIPOS>BOND
     1    34    36   ar
     2    34    32   ar
     3    36    35   ar
     4    32    31    1
     5    32    33   ar
     6    35    33   ar
     7    31    28    1
     8    12    11    2
     9    28    27    1
    10    28    29    1
    11    27    22   am
    12    11    10    1
    13    20    21    1
    14    22    23    2
    15    22    21    1
    16    29    30    2
    17    29    37   am
    18    21    24    1
    19    37    38    1
    20    10    13    1
    21    10     9    1
    22    13    14    1
    23    40    39    2
    24    38    39    1
    25    38    41    1
    26     9     3   am
    27    24    26    1
    28    24    25    1
    29    39    43   am
    30    16    14   ar
    31    16    18   ar
    32    14    15   ar
    33     4     3    2
    34     3     2    1
    35    43    44    1
    36    41    42    1
    37    18    19   ar
    38    51    50    1
    39     1     2    1
    40    15    17   ar
    41    44    45    1
    42    44    47    1
    43    63    61    1
    44     2     5    1
    45    46    45    2
    46    50    49    1
    47    45    52   am
    48    19    17   ar
    49    47    48    1
    50    86    84    1
    51    76    77    1
    52    49    48    1
    53    60    61    1
    54    60    57    1
    55    61    62    1
    56    52    53    1
    57     5     6    1
    58    77    78    1
    59    53    54    1
    60    55    54    2
    61    80    78   am
    62    80    81    1
    63    54    56   am
    64    78    79    2
    65    84    81    1
    66    84    85    1
    67    56    57    1
    68     7     6   ar
    69    57    58    1
    70     6     8   ar
    71    81    82    1
    72    59    58    2
    73    58    64   am
    74    64    65    1
    75    82    87   am
    76    82    83    2
    77    66    67    2
    78    66    65    1
    79    87    88    1
    80    65    68    1
    81    99    98    2
    82   103   101    1
    83   134   133   ar
    84   157   156    1
    85   154   156   ar
    86   154   152   ar
    87   100   101    1
    88   100    97    1
    89   133   135   ar
    90   133   132    1
    91    94    93   ar
    92   156   155   ar
    93    96    97    1
    94    96    89   am
    95   132   131    1
    96    88    89    1
    97    88    91    1
    98    98    97    1
    99   101   102    1
   100   152   151   ar
   101    68    69    1
   102    89    90    2
   103   114   115    1
   104   114   113    1
   105    92    93    1
   106    92    91    1
   107    93    95   ar
   108   155   153   ar
   109   131   128    1
   110    69    70   ar
   111    69    71   ar
   112   115   116    2
   113    70    72   ar
   114   151   153   ar
   115   151   150    1
   116   166   164   ar
   117   113   106   am
   118    71    73   ar
   119    72    74   ar
   120   164   163    1
   121   164   165   ar
   122   150   147    1
   123   163   162    1
   124    73    74   ar
   125    74    75    1
   126   128   127    1
   127   128   129    1
   128   124   126   ar
   129   124   122   ar
   130   143   145   ar
   131   143   141   ar
   132   145   144   ar
   133   126   125   ar
   134   104   105    1
   135   147   146    1
   136   147   148    1
   137   106   105    1
   138   106   107    2
   139   127   119   am
   140   122   121    1
   141   122   123   ar
   142   129   130    2
   143   141   140    1
   144   141   142   ar
   145   125   123   ar
   146   149   148    2
   147   144   142   ar
   148   105   108    1
   149   121   118    1
   150   108   109    1
   151   162   159    1
   152   140   137    1
   153   119   118    1
   154   119   120    2
   155   111   110   ar
   156   109   110    1
   157   118   117    1
   158   175   173   ar
   159   159   158    1
   160   159   160    1
   161   110   112   ar
   162   174   173   ar
   163   173   172    1
   164   137   138    1
   165   137   136    1
   166   182   183    1
   167   182   181    1
   168   183   184    2
   169   138   139    2
   170   184   186    1
   171   184   185    1
   172   172   171    1
   173   160   161    2
   174   181   180    1
   175   171   168    1
   176   167   168    1
   177   180   177    1
   178   168   169    1
   179   177   176    1
   180   177   178    1
   181   169   170    2
   182   178   179    2
