@<TRIPOS>MOLECULE
tmp/4pktA00.pdb
 193 184 0 0 0
SMALL
GASTEIGER

@<TRIPOS>ATOM
      1  N          1.8380    8.1760   21.8320 N.3    61  ASP61      -0.1225
      2  CA         1.6350    9.5050   22.3990 C.3    61  ASP61       0.1805
      3  C          2.5250    9.7740   23.6230 C.2    61  ASP61       0.2598
      4  O          2.6660   10.9220   24.0590 O.2    61  ASP61      -0.2718
      5  CB         0.1630    9.7110   22.7700 C.3    61  ASP61       0.1424
      6  CG        -0.6960   10.0570   21.5710 C.2    61  ASP61       0.3668
      7  OD1       -0.1300   10.4230   20.5160 O.co2  61  ASP61      -0.2456
      8  OD2       -1.9370    9.9700   21.6920 O.co2  61  ASP61      -0.2456
      9  N          3.1370    8.7250   24.1650 N.am   62  SER62      -0.1938
     10  CA         3.9750    8.8770   25.3480 C.3    62  SER62       0.2055
     11  C          5.4360    9.0690   24.9410 C.2    62  SER62       0.2644
     12  O          6.3550    8.6960   25.6690 O.2    62  SER62      -0.2714
     13  CB         3.8140    7.6690   26.2800 C.3    62  SER62       0.2130
     14  OG         4.1060    8.0100   27.6260 O.3    62  SER62      -0.2179
     15  N          5.6410    9.6650   23.7710 N.am   63  SER63      -0.1935
     16  CA         6.9810    9.9960   23.3080 C.3    63  SER63       0.2055
     17  C          7.2420   11.4830   23.5190 C.2    63  SER63       0.2643
     18  O          6.3770   12.3120   23.2370 O.2    63  SER63      -0.2714
     19  CB         7.1530    9.6180   21.8350 C.3    63  SER63       0.2130
     20  OG         8.4590    9.9290   21.3780 O.3    63  SER63      -0.2179
     21  N          8.4270   11.8180   24.0200 N.am   64  ASP64      -0.1971
     22  CA         8.7570   13.2150   24.3120 C.3    64  ASP64       0.1709
     23  C          9.7000   13.8410   23.2760 C.2    64  ASP64       0.2293
     24  O         10.2130   14.9500   23.4800 O.2    64  ASP64      -0.2864
     25  CB         9.3600   13.3480   25.7200 C.3    64  ASP64       0.1436
     26  CG        10.6370   12.5370   25.9070 C.2    64  ASP64       0.3671
     27  OD1       10.9480   11.6720   25.0590 O.co2  64  ASP64      -0.2456
     28  OD2       11.3320   12.7710   26.9200 O.co2  64  ASP64      -0.2456
     29  N          8.8420   13.2820   19.6970 N.3    66  LEU66      -0.1245
     30  CA         8.0860   13.2240   18.4480 C.3    66  LEU66       0.1561
     31  C          7.0110   14.3090   18.4020 C.2    66  LEU66       0.2260
     32  O          6.3000   14.5290   19.3900 O.2    66  LEU66      -0.2867
     33  CB         7.4410   11.8490   18.2750 C.3    66  LEU66       0.0270
     34  CG         8.3710   10.6500   18.0940 C.3    66  LEU66       0.0019
     35  CD1        7.5520    9.3760   17.9030 C.3    66  LEU66       0.0001
     36  CD2        9.3140   10.8810   16.9180 C.3    66  LEU66       0.0001
     37  N          3.6970   11.7970   15.3750 N.3    71  LYS71      -0.1245
     38  CA         2.9390   10.8530   16.1880 C.3    71  LYS71       0.1561
     39  C          1.7380   10.3050   15.4100 C.2    71  LYS71       0.2260
     40  O          1.4080    9.1260   15.5270 O.2    71  LYS71      -0.2867
     41  CB         2.4850   11.5080   17.5030 C.3    71  LYS71       0.0271
     42  CG         3.6050   11.7200   18.5160 C.3    71  LYS71       0.0035
     43  CD         3.1310   12.4660   19.7600 C.3    71  LYS71       0.0206
     44  CE         4.2280   12.5060   20.8150 C.3    71  LYS71       0.1093
     45  NZ         3.8480   13.2660   22.0390 N.3    71  LYS71      -0.1314
     46  N         16.9740   16.6080   19.4610 N.3   374  VAL374     -0.1245
     47  CA        15.5950   16.7530   19.9130 C.3   374  VAL374      0.1561
     48  C         14.9670   18.0730   19.4780 C.2   374  VAL374      0.2260
     49  O         15.6200   19.1140   19.5340 O.2   374  VAL374     -0.2867
     50  CB        15.5000   16.6680   21.4590 C.3   374  VAL374      0.0252
     51  CG1       14.0330   16.7260   21.9070 C.3   374  VAL374      0.0019
     52  CG2       16.1570   15.3970   21.9690 C.3   374  VAL374      0.0019
     53  N         11.6110   20.4310   20.6310 N.3   376  SER376     -0.1202
     54  CA        10.6330   20.5450   21.6910 C.3   376  SER376      0.2020
     55  C         10.4890   22.0000   22.0680 C.2   376  SER376      0.2619
     56  O         11.1130   22.8690   21.4600 O.2   376  SER376     -0.2717
     57  CB        11.0350   19.7180   22.9170 C.3   376  SER376      0.2103
     58  OG        12.2750   20.1700   23.4440 O.3   376  SER376     -0.2182
     59  N          9.6650   22.2530   23.0800 N.am  377  LYS377     -0.1965
     60  CA         9.4020   23.5980   23.5510 C.3   377  LYS377      0.1728
     61  C         10.6540   24.1910   24.1600 C.2   377  LYS377      0.2617
     62  O         10.9560   25.3670   23.9760 O.2   377  LYS377     -0.2715
     63  CB         8.2690   23.5970   24.5850 C.3   377  LYS377      0.0311
     64  CG         7.9130   24.9850   25.0690 C.3   377  LYS377      0.0038
     65  CD         7.3080   25.7670   23.8970 C.3   377  LYS377      0.0206
     66  CE         7.0830   27.2030   24.2710 C.3   377  LYS377      0.1093
     67  NZ         6.4720   27.9570   23.1650 N.3   377  LYS377     -0.1314
     68  N         11.3860   23.3710   24.8990 N.am  378  GLY378     -0.1940
     69  CA        12.5400   23.8570   25.6260 C.3   378  GLY378      0.2014
     70  C         13.5350   22.7510   25.9060 C.2   378  GLY378      0.2639
     71  O         13.2060   21.5650   25.8860 O.2   378  GLY378     -0.2714
     72  N         14.7660   23.1470   26.1870 N.am  379  LEU379     -0.1963
     73  CA        15.8420   22.1930   26.3800 C.3   379  LEU379      0.1728
     74  C         16.9630   22.8160   27.2300 C.2   379  LEU379      0.2616
     75  O         17.2110   24.0310   27.1810 O.2   379  LEU379     -0.2715
     76  CB        16.3780   21.7350   25.0020 C.3   379  LEU379      0.0311
     77  CG        16.8750   20.3020   24.7880 C.3   379  LEU379      0.0022
     78  CD1       15.7730   19.3010   25.0940 C.3   379  LEU379      0.0001
     79  CD2       17.3790   20.1160   23.3420 C.3   379  LEU379      0.0001
     80  N         17.6370   21.9820   28.0080 N.am  380  TYR380     -0.1974
     81  CA        18.8950   22.3920   28.6010 C.3   380  TYR380      0.1639
     82  C         19.9810   21.4670   28.0680 C.2   380  TYR380      0.2290
     83  O         19.8380   20.2490   28.1200 O.2   380  TYR380     -0.2864
     84  CB        18.8490   22.3590   30.1390 C.3   380  TYR380      0.0560
     85  CG        20.2040   22.6620   30.7540 C.ar  380  TYR380     -0.0198
     86  CD1       20.7350   23.9390   30.6910 C.ar  380  TYR380     -0.0009
     87  CD2       20.9620   21.6700   31.3590 C.ar  380  TYR380     -0.0009
     88  CE1       21.9700   24.2280   31.2040 C.ar  380  TYR380      0.0417
     89  CE2       22.2120   21.9600   31.8890 C.ar  380  TYR380      0.0417
     90  CZ        22.7060   23.2450   31.8030 C.ar  380  TYR380      0.1957
     91  OH        23.9460   23.5690   32.3060 O.3   380  TYR380     -0.2866
     92  N          4.1890   23.6630   24.6430 N.3   395  GLY395     -0.1210
     93  CA         4.7210   22.5630   25.4260 C.3   395  GLY395      0.1956
     94  C          3.6120   21.6770   25.9430 C.2   395  GLY395      0.2612
     95  O          2.5410   22.1620   26.2870 O.2   395  GLY395     -0.2717
     96  N          3.8620   20.3750   25.9910 N.am  396  VAL396     -0.1965
     97  CA         2.8670   19.4440   26.5010 C.3   396  VAL396      0.1727
     98  C          2.6190   19.6560   27.9970 C.2   396  VAL396      0.2616
     99  O          3.5240   19.4870   28.8300 O.2   396  VAL396     -0.2715
    100  CB         3.2730   17.9800   26.2520 C.3   396  VAL396      0.0290
    101  CG1        2.3480   17.0420   27.0170 C.3   396  VAL396      0.0023
    102  CG2        3.2430   17.6670   24.7560 C.3   396  VAL396      0.0023
    103  N          1.3770   20.0310   28.3080 N.am  397  GLU397     -0.1963
    104  CA         0.9430   20.3740   29.6590 C.3   397  GLU397      0.1733
    105  C          1.7420   21.5200   30.2610 C.2   397  GLU397      0.2616
    106  O          2.0840   21.4890   31.4430 O.2   397  GLU397     -0.2715
    107  CB         1.0080   19.1500   30.5740 C.3   397  GLU397      0.0429
    108  CG        -0.0020   18.0670   30.2030 C.3   397  GLU397      0.1163
    109  CD        -1.4180   18.4100   30.6480 C.2   397  GLU397      0.3649
    110  OE1       -1.7570   18.1510   31.8270 O.co2 397  GLU397     -0.2457
    111  OE2       -2.1890   18.9470   29.8200 O.co2 397  GLU397     -0.2457
    112  N          2.0200   22.5380   29.4470 N.am  398  LEU398     -0.1977
    113  CA         2.6510   23.7730   29.9240 C.3   398  LEU398      0.1596
    114  C          1.7450   24.9790   29.6840 C.2   398  LEU398      0.2287
    115  O          1.3120   25.1980   28.5560 O.2   398  LEU398     -0.2864
    116  CB         3.9880   24.0020   29.2280 C.3   398  LEU398      0.0297
    117  CG         5.3120   23.6890   29.9100 C.3   398  LEU398      0.0022
    118  CD1        6.4800   24.1130   28.9840 C.3   398  LEU398      0.0001
    119  CD2        5.4090   24.3690   31.2640 C.3   398  LEU398      0.0001
    120  N          8.0170   27.1030   31.2370 N.3   404  GLY404     -0.1225
    121  CA         8.9530   26.2430   30.5420 C.3   404  GLY404      0.1811
    122  C         10.4010   26.6050   30.8260 C.2   404  GLY404      0.2280
    123  O         11.2390   25.7320   31.0530 O.2   404  GLY404     -0.2866
    124  N         11.4930   25.4280   34.2740 N.3   407  HIS407     -0.1226
    125  CA        11.8080   24.0000   34.2190 C.3   407  HIS407      0.1752
    126  C         13.2270   23.7950   33.6870 C.2   407  HIS407      0.2595
    127  O         13.9830   23.0040   34.2690 O.2   407  HIS407     -0.2718
    128  CB        10.7730   23.2350   33.3680 C.3   407  HIS407      0.0759
    129  CG        11.2230   21.8780   32.8960 C.ar  407  HIS407      0.0818
    130  ND1       10.6550   20.7060   33.3440 N.ar  407  HIS407     -0.2268
    131  CD2       12.1640   21.5110   31.9850 C.ar  407  HIS407      0.1154
    132  CE1       11.2360   19.6750   32.7460 C.ar  407  HIS407      0.1986
    133  NE2       12.1610   20.1360   31.9220 N.ar  407  HIS407     -0.2212
    134  N         13.6050   24.4960   32.6110 N.am  408  GLU408     -0.1979
    135  CA        14.9380   24.2850   32.0360 C.3   408  GLU408      0.1602
    136  C         16.0040   24.8070   32.9900 C.2   408  GLU408      0.2287
    137  O         17.0620   24.2140   33.1230 O.2   408  GLU408     -0.2864
    138  CB        15.1030   24.9620   30.6730 C.3   408  GLU408      0.0415
    139  CG        13.9760   24.7210   29.6660 C.3   408  GLU408      0.1163
    140  CD        13.7920   23.2590   29.2970 C.2   408  GLU408      0.3649
    141  OE1       12.7350   22.9400   28.7170 O.co2 408  GLU408     -0.2457
    142  OE2       14.6900   22.4310   29.5680 O.co2 408  GLU408     -0.2457
    143  N         16.9580   22.2280   35.2730 N.3   411  HIS411     -0.1241
    144  CA        18.0020   21.3270   34.7830 C.3   411  HIS411      0.1621
    145  C         19.3990   21.9130   35.0170 C.2   411  HIS411      0.2264
    146  O         20.3540   21.1990   35.3170 O.2   411  HIS411     -0.2867
    147  CB        17.8270   21.0490   33.2880 C.3   411  HIS411      0.0745
    148  CG        16.6800   20.1470   32.9450 C.ar  411  HIS411      0.0817
    149  ND1       16.5630   18.8620   33.4370 N.ar  411  HIS411     -0.2268
    150  CD2       15.6330   20.3220   32.1040 C.ar  411  HIS411      0.1154
    151  CE1       15.4800   18.2980   32.9320 C.ar  411  HIS411      0.1986
    152  NE2       14.9000   19.1590   32.1170 N.ar  411  HIS411     -0.2212
    153  N          4.7100   13.5050   33.4150 N.3   449  TYR449     -0.1241
    154  CA         6.0060   13.5750   32.7580 C.3   449  TYR449      0.1605
    155  C          7.1590   13.4630   33.7760 C.2   449  TYR449      0.2264
    156  O          8.2470   13.0080   33.4420 O.2   449  TYR449     -0.2867
    157  CB         6.1140   14.8660   31.9400 C.3   449  TYR449      0.0534
    158  CG         7.4330   15.0170   31.2290 C.ar  449  TYR449     -0.0201
    159  CD1        7.8540   14.0750   30.3080 C.ar  449  TYR449     -0.0009
    160  CD2        8.2670   16.0910   31.4990 C.ar  449  TYR449     -0.0009
    161  CE1        9.0740   14.2000   29.6610 C.ar  449  TYR449      0.0417
    162  CE2        9.4850   16.2290   30.8590 C.ar  449  TYR449      0.0417
    163  CZ         9.8900   15.2780   29.9380 C.ar  449  TYR449      0.1957
    164  OH        11.1090   15.4190   29.2890 O.3   449  TYR449     -0.2866
    165  N         14.1970   14.7980   34.8910 N.3   456  GLU456     -0.1245
    166  CA        12.9470   15.4840   34.6140 C.3   456  GLU456      0.1567
    167  C         12.1310   15.6490   35.8940 C.2   456  GLU456      0.2260
    168  O         11.5160   16.6970   36.1030 O.2   456  GLU456     -0.2867
    169  CB        12.1190   14.7400   33.5550 C.3   456  GLU456      0.0388
    170  CG        12.8130   14.4900   32.2130 C.3   456  GLU456      0.1160
    171  CD        13.3250   15.7520   31.5180 C.2   456  GLU456      0.3649
    172  OE1       12.8660   16.8660   31.8150 O.co2 456  GLU456     -0.2457
    173  OE2       14.2070   15.6220   30.6620 O.co2 456  GLU456     -0.2457
    174  N         10.7520   19.1330   36.9920 N.3   460  GLU460     -0.1245
    175  CA         9.3320   19.3820   37.2340 C.3   460  GLU460      0.1567
    176  C          9.0940   19.8420   38.6830 C.2   460  GLU460      0.2260
    177  O          8.3750   20.8200   38.9080 O.2   460  GLU460     -0.2867
    178  CB         8.5020   18.1410   36.9060 C.3   460  GLU460      0.0388
    179  CG         8.3260   17.8850   35.3960 C.3   460  GLU460      0.1160
    180  CD         7.3980   18.9110   34.7260 C.2   460  GLU460      0.3649
    181  OE1        6.2140   18.5820   34.4730 O.co2 460  GLU460     -0.2457
    182  OE2        7.8500   20.0470   34.4600 O.co2 460  GLU460     -0.2457
    183  N         10.1540   23.3410   39.0190 N.3   463  ARG463     -0.1245
    184  CA         9.2410   24.2450   38.3410 C.3   463  ARG463      0.1563
    185  C          7.9850   24.4370   39.1920 C.2   463  ARG463      0.2260
    186  O          7.6070   25.5680   39.4860 O.2   463  ARG463     -0.2867
    187  CB         8.8690   23.7190   36.9410 C.3   463  ARG463      0.0307
    188  CG         7.6000   24.3740   36.3880 C.3   463  ARG463      0.0489
    189  CD         7.1720   23.8360   35.0430 C.3   463  ARG463      0.2205
    190  NE         6.6370   22.4760   35.0870 N.pl3 463  ARG463     -0.0865
    191  CZ         5.3430   22.1780   35.2150 C.cat 463  ARG463      0.5346
    192  NH1        4.4310   23.1450   35.3430 N.pl3 463  ARG463      0.1354
    193  NH2        4.9610   20.9090   35.2250 N.pl3 463  ARG463      0.1354
@<TRIPOS>BOND
     1    37    38    1
     2    39    40    2
     3    39    38    1
     4    38    41    1
     5    36    34    1
     6    41    42    1
     7    35    34    1
     8    34    33    1
     9    33    30    1
    10    31    30    1
    11    31    32    2
    12    30    29    1
    13    42    43    1
    14    46    47    1
    15    48    49    2
    16    48    47    1
    17    43    44    1
    18    47    50    1
    19     7     6   ar
    20    53    54    1
    21    44    45    1
    22    20    19    1
    23    50    51    1
    24    50    52    1
    25    56    55    2
    26     6     8   ar
    27     6     5    1
    28    54    55    1
    29    54    57    1
    30     1     2    1
    31    19    16    1
    32    55    59   am
    33     2     5    1
    34     2     3    1
    35    57    58    1
    36    59    60    1
    37    67    66    1
    38    18    17    2
    39    23    24    2
    40    23    22    1
    41    16    17    1
    42    16    15    1
    43    79    77    1
    44    17    21   am
    45    60    61    1
    46    60    63    1
    47     3     4    2
    48     3     9   am
    49    15    11   am
    50    65    66    1
    51    65    64    1
    52    62    61    2
    53    21    22    1
    54    61    68   am
    55     9    10    1
    56    22    25    1
    57    63    64    1
    58    92    93    1
    59   102   100    1
    60    77    76    1
    61    77    78    1
    62    68    69    1
    63    11    10    1
    64    11    12    2
    65    76    73    1
    66    27    26   ar
    67    10    13    1
    68    93    94    1
    69    69    70    1
    70    25    26    1
    71    71    70    2
    72    70    72   am
    73    26    28   ar
    74    94    96   am
    75    94    95    2
    76    96    97    1
    77    72    73    1
    78   100    97    1
    79   100   101    1
    80    13    14    1
    81    73    74    1
    82    97    98    1
    83    75    74    2
    84    74    80   am
    85    98   103   am
    86    98    99    2
    87    80    81    1
    88    82    83    2
    89    82    81    1
    90   103   104    1
    91   115   114    2
    92    81    84    1
    93   141   140   ar
    94   118   117    1
    95   116   117    1
    96   116   113    1
    97   164   163    1
    98   140   142   ar
    99   140   139    1
   100   112   113    1
   101   112   105   am
   102   104   105    1
   103   104   107    1
   104   161   163   ar
   105   161   159   ar
   106   139   138    1
   107   114   113    1
   108   111   109   ar
   109   117   119    1
   110   163   162   ar
   111    84    85    1
   112   108   107    1
   113   108   109    1
   114   105   106    2
   115   159   158   ar
   116   121   122    1
   117   121   120    1
   118   109   110   ar
   119   173   171   ar
   120   138   135    1
   121    86    85   ar
   122    86    88   ar
   123    85    87   ar
   124   122   123    2
   125   162   160   ar
   126    88    90   ar
   127   158   160   ar
   128   158   157    1
   129    87    89   ar
   130   171   172   ar
   131   171   170    1
   132    90    89   ar
   133    90    91    1
   134   133   131   ar
   135   133   132   ar
   136   157   154    1
   137   131   129   ar
   138   135   134    1
   139   135   136    1
   140   150   152   ar
   141   150   148   ar
   142   152   151   ar
   143   170   169    1
   144   134   126   am
   145   132   130   ar
   146   154   153    1
   147   154   155    1
   148   129   130   ar
   149   129   128    1
   150   151   149   ar
   151   148   147    1
   152   148   149   ar
   153   136   137    2
   154   147   144    1
   155   128   125    1
   156   156   155    2
   157   169   166    1
   158   126   125    1
   159   126   127    2
   160   125   124    1
   161   182   180   ar
   162   181   180   ar
   163   166   165    1
   164   166   167    1
   165   180   179    1
   166   144   145    1
   167   144   143    1
   168   145   146    2
   169   189   190    1
   170   189   188    1
   171   190   191    2
   172   191   193    1
   173   191   192    1
   174   179   178    1
   175   167   168    2
   176   188   187    1
   177   178   175    1
   178   187   184    1
   179   174   175    1
   180   175   176    1
   181   184   183    1
   182   184   185    1
   183   176   177    2
   184   185   186    2
