@<TRIPOS>MOLECULE
tmp/4pkuA00.pdb
 177 173 0 0 0
SMALL
GASTEIGER

@<TRIPOS>ATOM
      1  N          2.7640   10.3930   23.6150 N.3    63  ASP63      -0.1225
      2  CA         2.9280   11.8420   23.5310 C.3    63  ASP63       0.1805
      3  C          4.0950   12.1760   22.6090 C.2    63  ASP63       0.2597
      4  O          4.4140   13.3410   22.3790 O.2    63  ASP63      -0.2718
      5  CB         3.1670   12.4470   24.9160 C.3    63  ASP63       0.1424
      6  CG         2.1250   12.0210   25.9310 C.2    63  ASP63       0.3668
      7  OD1        0.9560   11.8230   25.5400 O.co2  63  ASP63      -0.2456
      8  OD2        2.4750   11.8850   27.1250 O.co2  63  ASP63      -0.2456
      9  N          4.7320   11.1350   22.0870 N.am   64  PHE64      -0.1976
     10  CA         5.8880   11.2900   21.2160 C.3    64  PHE64       0.1639
     11  C          5.4280   11.5600   19.7820 C.2    64  PHE64       0.2290
     12  O          6.1170   12.2270   19.0110 O.2    64  PHE64      -0.2864
     13  CB         6.7800   10.0370   21.3000 C.3    64  PHE64       0.0560
     14  CG         8.1810   10.2290   20.7630 C.ar   64  PHE64      -0.0200
     15  CD1        9.2700   10.1530   21.6130 C.ar   64  PHE64      -0.0042
     16  CD2        8.4160   10.4180   19.4090 C.ar   64  PHE64      -0.0042
     17  CE1       10.5600   10.3140   21.1310 C.ar   64  PHE64      -0.0003
     18  CE2        9.7000   10.5750   18.9250 C.ar   64  PHE64      -0.0003
     19  CZ        10.7720   10.5220   19.7840 C.ar   64  PHE64      -0.0000
     20  N         15.9140   15.8200   19.0340 N.3   366  VAL366     -0.1231
     21  CA        14.6370   16.0410   19.6990 C.3   366  VAL366      0.1692
     22  C         13.9440   17.3110   19.2220 C.2   366  VAL366      0.2592
     23  O         14.5660   18.3700   19.1360 O.2   366  VAL366     -0.2718
     24  CB        14.8210   16.1270   21.2350 C.3   366  VAL366      0.0266
     25  CG1       13.5630   16.6670   21.9100 C.3   366  VAL366      0.0020
     26  CG2       15.2080   14.7710   21.8040 C.3   366  VAL366      0.0020
     27  N         12.6590   17.2020   18.9020 N.am  367  HIS367     -0.1962
     28  CA        11.8220   18.3880   18.8020 C.3   367  HIS367      0.1787
     29  C         10.7950   18.3930   19.9230 C.2   367  HIS367      0.2621
     30  O         10.1480   17.3800   20.1920 O.2   367  HIS367     -0.2715
     31  CB        11.1060   18.4800   17.4580 C.3   367  HIS367      0.0785
     32  CG        10.1930   19.6590   17.3590 C.ar  367  HIS367      0.0821
     33  ND1       10.6200   20.9520   17.5990 N.ar  367  HIS367     -0.2267
     34  CD2        8.8710   19.7510   17.0810 C.ar  367  HIS367      0.1154
     35  CE1        9.6070   21.7820   17.4560 C.ar  367  HIS367      0.1986
     36  NE2        8.5300   21.0790   17.1410 N.ar  367  HIS367     -0.2212
     37  N         10.6470   19.5440   20.5670 N.am  368  SER368     -0.1936
     38  CA         9.6840   19.7030   21.6450 C.3   368  SER368      0.2055
     39  C          9.5150   21.1730   21.9940 C.2   368  SER368      0.2643
     40  O         10.0340   22.0510   21.3030 O.2   368  SER368     -0.2714
     41  CB        10.1200   18.9140   22.8820 C.3   368  SER368      0.2130
     42  OG        11.4250   19.2850   23.2880 O.3   368  SER368     -0.2179
     43  N          8.7860   21.4290   23.0740 N.am  369  LYS369     -0.1963
     44  CA         8.5600   22.7850   23.5520 C.3   369  LYS369      0.1728
     45  C          9.8680   23.4370   23.9750 C.2   369  LYS369      0.2617
     46  O         10.1880   24.5520   23.5600 O.2   369  LYS369     -0.2715
     47  CB         7.5800   22.7780   24.7240 C.3   369  LYS369      0.0311
     48  CG         7.2040   24.1590   25.2130 C.3   369  LYS369      0.0038
     49  CD         6.2610   24.8240   24.2310 C.3   369  LYS369      0.0206
     50  CE         6.4190   26.3280   24.2510 C.3   369  LYS369      0.1093
     51  NZ         5.5920   26.9780   23.1980 N.3   369  LYS369     -0.1314
     52  N         10.6220   22.7250   24.8050 N.am  370  GLY370     -0.1940
     53  CA        11.8640   23.2410   25.3410 C.3   370  GLY370      0.2014
     54  C         12.9350   22.1770   25.4530 C.2   370  GLY370      0.2639
     55  O         12.6450   20.9810   25.4460 O.2   370  GLY370     -0.2714
     56  N         14.1810   22.6200   25.5650 N.am  371  LEU371     -0.1963
     57  CA        15.3140   21.7110   25.6390 C.3   371  LEU371      0.1728
     58  C         16.4900   22.3840   26.3350 C.2   371  LEU371      0.2616
     59  O         16.6930   23.5900   26.1980 O.2   371  LEU371     -0.2715
     60  CB        15.7200   21.2530   24.2350 C.3   371  LEU371      0.0311
     61  CG        16.4880   19.9380   24.0790 C.3   371  LEU371      0.0022
     62  CD1       15.7100   18.7780   24.6850 C.3   371  LEU371      0.0001
     63  CD2       16.8010   19.6750   22.6090 C.3   371  LEU371      0.0001
     64  N         17.2520   21.6080   27.0980 N.am  372  TYR372     -0.1974
     65  CA        18.5290   22.0860   27.6070 C.3   372  TYR372      0.1639
     66  C         19.6470   21.2020   27.0850 C.2   372  TYR372      0.2290
     67  O         19.6020   19.9790   27.2170 O.2   372  TYR372     -0.2864
     68  CB        18.5620   22.1200   29.1350 C.3   372  TYR372      0.0560
     69  CG        19.9130   22.5410   29.6770 C.ar  372  TYR372     -0.0198
     70  CD1       20.3190   23.8690   29.6260 C.ar  372  TYR372     -0.0009
     71  CD2       20.7910   21.6100   30.2210 C.ar  372  TYR372     -0.0009
     72  CE1       21.5540   24.2600   30.1090 C.ar  372  TYR372      0.0417
     73  CE2       22.0300   21.9920   30.7070 C.ar  372  TYR372      0.0417
     74  CZ        22.4050   23.3190   30.6480 C.ar  372  TYR372      0.1957
     75  OH        23.6350   23.7070   31.1300 O.3   372  TYR372     -0.2866
     76  N          3.5670   22.2840   24.7420 N.3   387  GLY387     -0.1210
     77  CA         4.2350   21.3080   25.5830 C.3   387  GLY387      0.1956
     78  C          3.2180   20.4130   26.2600 C.2   387  GLY387      0.2612
     79  O          2.0940   20.8400   26.5220 O.2   387  GLY387     -0.2717
     80  N          3.5980   19.1710   26.5400 N.am  388  VAL388     -0.1965
     81  CA         2.6660   18.2460   27.1700 C.3   388  VAL388      0.1727
     82  C          2.4550   18.6390   28.6360 C.2   388  VAL388      0.2616
     83  O          3.4050   18.7920   29.4070 O.2   388  VAL388     -0.2715
     84  CB         3.1370   16.7650   27.0330 C.3   388  VAL388      0.0290
     85  CG1        4.4140   16.4930   27.8250 C.3   388  VAL388      0.0023
     86  CG2        2.0240   15.8110   27.4500 C.3   388  VAL388      0.0023
     87  N          1.1890   18.8520   28.9850 N.am  389  GLU389     -0.1963
     88  CA         0.7830   19.2720   30.3250 C.3   389  GLU389      0.1733
     89  C          1.5190   20.5220   30.8150 C.2   389  GLU389      0.2616
     90  O          1.8710   20.6300   31.9910 O.2   389  GLU389     -0.2715
     91  CB         0.9710   18.1210   31.3140 C.3   389  GLU389      0.0429
     92  CG         0.0310   16.9530   31.0490 C.3   389  GLU389      0.1163
     93  CD         0.2530   15.7930   31.9950 C.2   389  GLU389      0.3649
     94  OE1        1.2570   15.8120   32.7350 O.co2 389  GLU389     -0.2457
     95  OE2       -0.5800   14.8620   31.9980 O.co2 389  GLU389     -0.2457
     96  N          1.7470   21.4580   29.8990 N.am  390  LEU390     -0.1977
     97  CA         2.2390   22.7880   30.2420 C.3   390  LEU390      0.1596
     98  C          1.1380   23.8130   30.0010 C.2   390  LEU390      0.2287
     99  O          0.3990   23.7140   29.0230 O.2   390  LEU390     -0.2864
    100  CB         3.4760   23.1530   29.4190 C.3   390  LEU390      0.0297
    101  CG         4.8580   22.6950   29.8830 C.3   390  LEU390      0.0022
    102  CD1        5.8990   23.1170   28.8600 C.3   390  LEU390      0.0001
    103  CD2        5.1860   23.2660   31.2540 C.3   390  LEU390      0.0001
    104  N          7.2940   26.3640   30.8740 N.3   396  GLY396     -0.1225
    105  CA         8.1840   25.5860   30.0360 C.3   396  GLY396      0.1811
    106  C          9.6320   26.0300   30.1280 C.2   396  GLY396      0.2280
    107  O         10.5380   25.2000   30.1240 O.2   396  GLY396     -0.2866
    108  N         11.3210   24.9630   33.6010 N.3   399  HIS399     -0.1226
    109  CA        11.6740   23.5490   33.6250 C.3   399  HIS399      0.1752
    110  C         13.0550   23.3260   33.0090 C.2   399  HIS399      0.2595
    111  O         13.8740   22.5860   33.5560 O.2   399  HIS399     -0.2718
    112  CB        10.6060   22.7330   32.8910 C.3   399  HIS399      0.0759
    113  CG        11.0520   21.3650   32.4790 C.ar  399  HIS399      0.0818
    114  ND1       10.6890   20.2260   33.1660 N.ar  399  HIS399     -0.2268
    115  CD2       11.7920   20.9460   31.4250 C.ar  399  HIS399      0.1154
    116  CE1       11.2070   19.1690   32.5690 C.ar  399  HIS399      0.1986
    117  NE2       11.8800   19.5790   31.5090 N.ar  399  HIS399     -0.2212
    118  N         13.3090   23.9750   31.8750 N.am  400  GLU400     -0.1979
    119  CA        14.6090   23.8930   31.2130 C.3   400  GLU400      0.1602
    120  C         15.7090   24.5000   32.0750 C.2   400  GLU400      0.2287
    121  O         16.8370   24.0080   32.0960 O.2   400  GLU400     -0.2864
    122  CB        14.5800   24.6020   29.8550 C.3   400  GLU400      0.0415
    123  CG        13.6760   23.9790   28.7990 C.3   400  GLU400      0.1163
    124  CD        13.7370   22.4640   28.7610 C.2   400  GLU400      0.3649
    125  OE1       14.8450   21.8940   28.8700 O.co2 400  GLU400     -0.2457
    126  OE2       12.6660   21.8440   28.6020 O.co2 400  GLU400     -0.2457
    127  N         17.1180   22.1960   34.5250 N.3   403  HIS403     -0.1241
    128  CA        18.1850   21.3630   33.9810 C.3   403  HIS403      0.1621
    129  C         19.5340   22.0470   34.1190 C.2   403  HIS403      0.2264
    130  O         20.5290   21.4160   34.4730 O.2   403  HIS403     -0.2867
    131  CB        17.9270   21.0410   32.5120 C.3   403  HIS403      0.0745
    132  CG        16.8390   20.0400   32.2960 C.ar  403  HIS403      0.0817
    133  ND1       16.7740   18.8530   32.9920 N.ar  403  HIS403     -0.2268
    134  CD2       15.7750   20.0480   31.4600 C.ar  403  HIS403      0.1154
    135  CE1       15.7140   18.1710   32.5940 C.ar  403  HIS403      0.1986
    136  NE2       15.0930   18.8750   31.6670 N.ar  403  HIS403     -0.2212
    137  N          5.0350   13.0980   33.8150 N.3   441  TYR441     -0.1241
    138  CA         6.2570   13.1850   33.0290 C.3   441  TYR441      0.1605
    139  C          7.4930   13.1470   33.9210 C.2   441  TYR441      0.2264
    140  O          8.5610   12.7050   33.5000 O.2   441  TYR441     -0.2867
    141  CB         6.2650   14.4570   32.1790 C.3   441  TYR441      0.0534
    142  CG         7.5230   14.6120   31.3610 C.ar  441  TYR441     -0.0201
    143  CD1        7.9470   13.5980   30.5140 C.ar  441  TYR441     -0.0009
    144  CD2        8.2900   15.7660   31.4390 C.ar  441  TYR441     -0.0009
    145  CE1        9.0990   13.7270   29.7660 C.ar  441  TYR441      0.0417
    146  CE2        9.4420   15.9070   30.6930 C.ar  441  TYR441      0.0417
    147  CZ         9.8440   14.8830   29.8610 C.ar  441  TYR441      0.1957
    148  OH        10.9920   15.0170   29.1150 O.3   441  TYR441     -0.2866
    149  N         14.4410   14.5640   34.6150 N.3   448  GLU448     -0.1245
    150  CA        13.0970   15.0850   34.3950 C.3   448  GLU448      0.1567
    151  C         12.3740   15.3590   35.7060 C.2   448  GLU448      0.2260
    152  O         11.6770   16.3650   35.8440 O.2   448  GLU448     -0.2867
    153  CB        12.2860   14.1070   33.5410 C.3   448  GLU448      0.0388
    154  CG        12.8740   13.8650   32.1610 C.3   448  GLU448      0.1160
    155  CD        13.1400   15.1550   31.4180 C.2   448  GLU448      0.3649
    156  OE1       12.3500   16.1030   31.5970 O.co2 448  GLU448     -0.2457
    157  OE2       14.1340   15.2240   30.6640 O.co2 448  GLU448     -0.2457
    158  N         11.0640   18.9910   36.7590 N.3   452  GLU452     -0.1245
    159  CA         9.6330   19.1360   37.0050 C.3   452  GLU452      0.1567
    160  C          9.3570   19.6460   38.4130 C.2   452  GLU452      0.2260
    161  O          8.5060   20.5140   38.6120 O.2   452  GLU452     -0.2867
    162  CB         8.9100   17.8080   36.7790 C.3   452  GLU452      0.0388
    163  CG         8.6280   17.4920   35.3190 C.3   452  GLU452      0.1160
    164  CD         7.6630   18.4780   34.6870 C.2   452  GLU452      0.3649
    165  OE1        6.4550   18.1670   34.6230 O.co2 452  GLU452     -0.2457
    166  OE2        8.1090   19.5600   34.2490 O.co2 452  GLU452     -0.2457
    167  N         10.3660   23.2790   38.5500 N.3   455  ARG455     -0.1245
    168  CA         9.3490   24.1010   37.9070 C.3   455  ARG455      0.1563
    169  C          8.1530   24.3130   38.8270 C.2   455  ARG455      0.2260
    170  O          7.6960   25.4410   39.0160 O.2   455  ARG455     -0.2867
    171  CB         8.8910   23.4650   36.5930 C.3   455  ARG455      0.0307
    172  CG         7.6280   24.0880   36.0260 C.3   455  ARG455      0.0489
    173  CD         7.2220   23.4510   34.7060 C.3   455  ARG455      0.2205
    174  NE         6.6930   22.1010   34.8710 N.pl3 455  ARG455     -0.0865
    175  CZ         5.4380   21.8250   35.2130 C.cat 455  ARG455      0.5346
    176  NH1        4.5760   22.8080   35.4350 N.pl3 455  ARG455      0.1354
    177  NH2        5.0460   20.5650   35.3350 N.pl3 455  ARG455      0.1354
@<TRIPOS>BOND
     1    34    36   ar
     2    34    32   ar
     3    36    35   ar
     4    32    31    1
     5    32    33   ar
     6    35    33   ar
     7    31    28    1
     8    28    27    1
     9    28    29    1
    10    27    22   am
    11    18    16   ar
    12    18    19   ar
    13    12    11    2
    14    20    21    1
    15    23    22    2
    16    22    21    1
    17    16    14   ar
    18    21    24    1
    19    11    10    1
    20    19    17   ar
    21    29    30    2
    22    29    37   am
    23    37    38    1
    24    14    13    1
    25    14    15   ar
    26    17    15   ar
    27    10    13    1
    28    10     9    1
    29    24    26    1
    30    24    25    1
    31    40    39    2
    32    38    39    1
    33    38    41    1
    34    39    43   am
    35     9     3   am
    36     4     3    2
    37    63    61    1
    38     3     2    1
    39    41    42    1
    40    43    44    1
    41    51    50    1
    42     2     1    1
    43     2     5    1
    44    44    45    1
    45    44    47    1
    46    46    45    2
    47    45    52   am
    48    61    60    1
    49    61    62    1
    50    49    50    1
    51    49    48    1
    52    60    57    1
    53    47    48    1
    54    76    77    1
    55    52    53    1
    56     5     6    1
    57    53    54    1
    58    55    54    2
    59    54    56   am
    60     7     6   ar
    61    56    57    1
    62    77    78    1
    63    57    58    1
    64     6     8   ar
    65    59    58    2
    66    78    79    2
    67    78    80   am
    68    58    64   am
    69    80    81    1
    70    84    81    1
    71    84    86    1
    72    84    85    1
    73    66    67    2
    74    66    65    1
    75    64    65    1
    76    81    82    1
    77    65    68    1
    78   126   124   ar
    79    82    87   am
    80    82    83    2
    81   124   123    1
    82   124   125   ar
    83   123   122    1
    84   102   101    1
    85    87    88    1
    86    99    98    2
    87   148   147    1
    88    68    69    1
    89   100   101    1
    90   100    97    1
    91    70    69   ar
    92    70    72   ar
    93    69    71   ar
    94   145   147   ar
    95   145   143   ar
    96   122   119    1
    97   147   146   ar
    98   101   103    1
    99    96    97    1
   100    96    89   am
   101    98    97    1
   102   105   106    1
   103   105   104    1
   104    72    74   ar
   105   107   106    2
   106    71    73   ar
   107    88    89    1
   108    88    91    1
   109   143   142   ar
   110    74    73   ar
   111    74    75    1
   112   157   155   ar
   113   146   144   ar
   114    89    90    2
   115    92    91    1
   116    92    93    1
   117   119   118    1
   118   119   120    1
   119   142   144   ar
   120   142   141    1
   121   155   156   ar
   122   155   154    1
   123   115   117   ar
   124   115   113   ar
   125   134   136   ar
   126   134   132   ar
   127   117   116   ar
   128   136   135   ar
   129   118   110   am
   130    93    95   ar
   131    93    94   ar
   132   120   121    2
   133   154   153    1
   134   141   138    1
   135   132   131    1
   136   132   133   ar
   137   113   112    1
   138   113   114   ar
   139   131   128    1
   140   116   114   ar
   141   135   133   ar
   142   112   109    1
   143   110   111    2
   144   110   109    1
   145   138   137    1
   146   138   139    1
   147   140   139    2
   148   153   150    1
   149   108   109    1
   150   128   129    1
   151   128   127    1
   152   129   130    2
   153   166   164   ar
   154   150   149    1
   155   150   151    1
   156   165   164   ar
   157   164   163    1
   158   173   174    1
   159   173   172    1
   160   174   175    2
   161   175   177    1
   162   175   176    1
   163   163   162    1
   164   151   152    2
   165   172   171    1
   166   171   168    1
   167   158   159    1
   168   162   159    1
   169   159   160    1
   170   168   167    1
   171   168   169    1
   172   160   161    2
   173   169   170    2
