@<TRIPOS>MOLECULE
tmp/4pkvA00.pdb
 185 177 0 0 0
SMALL
GASTEIGER

@<TRIPOS>ATOM
      1  N          2.2850    9.9530   20.9150 N.3    62  ASP62      -0.1225
      2  CA         2.3130   11.2660   21.5570 C.3    62  ASP62       0.1805
      3  C          3.0150   11.2150   22.9130 C.2    62  ASP62       0.2598
      4  O          3.1410   12.2310   23.6020 O.2    62  ASP62      -0.2718
      5  CB         0.9020   11.8340   21.7080 C.3    62  ASP62       0.1424
      6  CG         0.2290   12.1000   20.3620 C.2    62  ASP62       0.3668
      7  OD1        0.7490   12.9310   19.5740 O.co2  62  ASP62      -0.2456
      8  OD2       -0.8280   11.4830   20.0940 O.co2  62  ASP62      -0.2456
      9  N          3.4950   10.0340   23.2840 N.am   63  SER63      -0.1938
     10  CA         4.2920    9.8940   24.4970 C.3    63  SER63       0.2055
     11  C          5.7460   10.3420   24.2910 C.2    63  SER63       0.2644
     12  O          6.5060   10.4200   25.2580 O.2    63  SER63      -0.2714
     13  CB         4.2660    8.4440   24.9940 C.3    63  SER63       0.2130
     14  OG         3.0350    8.1320   25.6220 O.3    63  SER63      -0.2179
     15  N          6.1230   10.6130   23.0370 N.am   64  SER64      -0.1935
     16  CA         7.4760   11.0610   22.6720 C.3    64  SER64       0.2055
     17  C          7.7580   12.4540   23.1710 C.2    64  SER64       0.2643
     18  O          6.8740   13.3080   23.1920 O.2    64  SER64      -0.2714
     19  CB         7.6820   11.0710   21.1560 C.3    64  SER64       0.2130
     20  OG         6.9750   10.0310   20.5260 O.3    64  SER64      -0.2179
     21  N          9.0080   12.6960   23.5350 N.am   65  ASP65      -0.1971
     22  CA         9.4020   14.0190   23.9740 C.3    65  ASP65       0.1709
     23  C         10.5240   14.6060   23.1120 C.2    65  ASP65       0.2293
     24  O         11.3210   15.4110   23.5990 O.2    65  ASP65      -0.2864
     25  CB         9.8250   13.9870   25.4510 C.3    65  ASP65       0.1436
     26  CG        10.8430   12.8940   25.7550 C.2    65  ASP65       0.3671
     27  OD1       11.3550   12.2550   24.8040 O.co2  65  ASP65      -0.2456
     28  OD2       11.1480   12.6920   26.9540 O.co2  65  ASP65      -0.2456
     29  N          5.5230   13.5130   14.2520 N.3    72  LYS72      -0.1245
     30  CA         4.4840   12.8390   15.0290 C.3    72  LYS72       0.1561
     31  C          3.2790   12.5020   14.1670 C.2    72  LYS72       0.2260
     32  O          2.7570   11.3880   14.2290 O.2    72  LYS72      -0.2867
     33  CB         4.0210   13.6960   16.2100 C.3    72  LYS72       0.0271
     34  CG         4.9190   13.7050   17.4330 C.3    72  LYS72       0.0035
     35  CD         4.0630   13.9360   18.6650 C.3    72  LYS72       0.0206
     36  CE         4.8020   14.6840   19.7610 C.3    72  LYS72       0.1093
     37  NZ         5.1830   16.0540   19.3220 N.3    72  LYS72      -0.1314
     38  N         16.9000   16.8800   19.4490 N.3   390  VAL390     -0.1245
     39  CA        15.5520   17.0070   20.0210 C.3   390  VAL390      0.1561
     40  C         14.7780   18.2120   19.4790 C.2   390  VAL390      0.2260
     41  O         15.3130   19.3110   19.4390 O.2   390  VAL390     -0.2867
     42  CB        15.6470   17.1070   21.5910 C.3   390  VAL390      0.0252
     43  CG1       14.2700   17.2610   22.2360 C.3   390  VAL390      0.0019
     44  CG2       16.3790   15.8990   22.1590 C.3   390  VAL390      0.0019
     45  N         11.6700   20.4160   20.6910 N.3   392  SER392     -0.1202
     46  CA        10.7660   20.6300   21.8160 C.3   392  SER392      0.2020
     47  C         10.5830   22.1220   22.0470 C.2   392  SER392      0.2619
     48  O         11.2010   22.9270   21.3670 O.2   392  SER392     -0.2717
     49  CB        11.2780   19.9510   23.1150 C.3   392  SER392      0.2103
     50  OG        12.4890   20.5360   23.6100 O.3   392  SER392     -0.2182
     51  N          9.7430   22.4730   23.0230 N.am  393  LYS393     -0.1965
     52  CA         9.5180   23.8590   23.4050 C.3   393  LYS393      0.1728
     53  C         10.7770   24.4360   24.0510 C.2   393  LYS393      0.2617
     54  O         11.0930   25.6160   23.8990 O.2   393  LYS393     -0.2715
     55  CB         8.3280   23.9560   24.3720 C.3   393  LYS393      0.0311
     56  CG         8.0410   25.3440   24.9250 C.3   393  LYS393      0.0038
     57  CD         7.2670   26.1550   23.8990 C.3   393  LYS393      0.0206
     58  CE         6.8930   27.5280   24.4070 C.3   393  LYS393      0.1093
     59  NZ         6.2170   28.3090   23.3320 N.3   393  LYS393     -0.1314
     60  N         11.4890   23.5970   24.7890 N.am  394  GLY394     -0.1940
     61  CA        12.5970   24.0700   25.5890 C.3   394  GLY394      0.2014
     62  C         13.6190   22.9810   25.8460 C.2   394  GLY394      0.2639
     63  O         13.2990   21.7960   25.9040 O.2   394  GLY394     -0.2714
     64  N         14.8670   23.3940   25.9990 N.am  395  LEU395     -0.1963
     65  CA        15.9570   22.4580   26.1830 C.3   395  LEU395      0.1728
     66  C         17.0420   23.1060   27.0440 C.2   395  LEU395      0.2616
     67  O         17.2870   24.3040   26.9400 O.2   395  LEU395     -0.2715
     68  CB        16.5250   22.0350   24.8160 C.3   395  LEU395      0.0311
     69  CG        17.2910   20.7120   24.7410 C.3   395  LEU395      0.0022
     70  CD1       16.3150   19.5780   24.9680 C.3   395  LEU395      0.0001
     71  CD2       18.0300   20.5320   23.4150 C.3   395  LEU395      0.0001
     72  N         17.6810   22.3300   27.9080 N.am  396  TYR396     -0.1974
     73  CA        18.9450   22.7720   28.4750 C.3   396  TYR396      0.1639
     74  C         20.0570   21.8620   27.9460 C.2   396  TYR396      0.2290
     75  O         19.9640   20.6350   28.0340 O.2   396  TYR396     -0.2864
     76  CB        18.9140   22.7670   30.0080 C.3   396  TYR396      0.0560
     77  CG        20.2630   23.0650   30.6380 C.ar  396  TYR396     -0.0198
     78  CD1       20.8230   24.3340   30.5550 C.ar  396  TYR396     -0.0009
     79  CD2       20.9820   22.0780   31.2990 C.ar  396  TYR396     -0.0009
     80  CE1       22.0510   24.6110   31.1040 C.ar  396  TYR396      0.0417
     81  CE2       22.2160   22.3550   31.8660 C.ar  396  TYR396      0.0417
     82  CZ        22.7410   23.6210   31.7610 C.ar  396  TYR396      0.1957
     83  OH        23.9600   23.9100   32.3070 O.3   396  TYR396     -0.2866
     84  N          3.9340   23.9080   24.5900 N.3   411  GLY411     -0.1210
     85  CA         4.3510   22.8020   25.4320 C.3   411  GLY411      0.1956
     86  C          3.1690   22.1040   26.0710 C.2   411  GLY411      0.2612
     87  O          2.2430   22.7450   26.5680 O.2   411  GLY411     -0.2717
     88  N          3.1940   20.7800   26.0320 N.am  412  VAL412     -0.1965
     89  CA         2.2110   19.9680   26.7360 C.3   412  VAL412      0.1727
     90  C          2.2610   20.2870   28.2230 C.2   412  VAL412      0.2616
     91  O          3.3550   20.4600   28.7530 O.2   412  VAL412     -0.2715
     92  CB         2.4870   18.4670   26.5150 C.3   412  VAL412      0.0290
     93  CG1        1.6350   17.6110   27.4620 C.3   412  VAL412      0.0023
     94  CG2        2.2830   18.1000   25.0340 C.3   412  VAL412      0.0023
     95  N          1.1110   20.4110   28.8900 N.am  413  GLU413     -0.1963
     96  CA         1.1210   20.5290   30.3540 C.3   413  GLU413      0.1733
     97  C          1.6630   21.9130   30.8090 C.2   413  GLU413      0.2616
     98  O          1.8990   22.1620   31.9910 O.2   413  GLU413     -0.2715
     99  CB         1.9390   19.3400   30.9310 C.3   413  GLU413      0.0429
    100  CG         2.3560   19.3310   32.4140 C.3   413  GLU413      0.1163
    101  CD         1.2670   18.8190   33.3500 C.2   413  GLU413      0.3649
    102  OE1        0.5310   17.8780   32.9640 O.co2 413  GLU413     -0.2457
    103  OE2        1.1520   19.3620   34.4740 O.co2 413  GLU413     -0.2457
    104  N          1.8430   22.8300   29.8620 N.am  414  LEU414     -0.1977
    105  CA         2.3670   24.1560   30.1960 C.3   414  LEU414      0.1596
    106  C          1.3190   25.2620   30.0700 C.2   414  LEU414      0.2287
    107  O          0.5330   25.2750   29.1250 O.2   414  LEU414     -0.2864
    108  CB         3.5700   24.4920   29.3160 C.3   414  LEU414      0.0297
    109  CG         4.8920   23.8230   29.6890 C.3   414  LEU414      0.0022
    110  CD1        6.0260   24.3660   28.8050 C.3   414  LEU414      0.0001
    111  CD2        5.2010   24.0010   31.1860 C.3   414  LEU414      0.0001
    112  N          7.8460   27.0760   31.0720 N.3   420  GLY420     -0.1225
    113  CA         8.8160   26.3040   30.3240 C.3   420  GLY420      0.1811
    114  C         10.2410   26.7310   30.6100 C.2   420  GLY420      0.2280
    115  O         11.1160   25.8770   30.8240 O.2   420  GLY420     -0.2866
    116  N         11.5390   25.5840   34.1280 N.3   423  HIS423     -0.1226
    117  CA        11.8700   24.1640   34.1550 C.3   423  HIS423      0.1752
    118  C         13.2790   23.9590   33.5690 C.2   423  HIS423      0.2595
    119  O         14.0870   23.1890   34.1100 O.2   423  HIS423     -0.2718
    120  CB        10.7880   23.3790   33.4060 C.3   423  HIS423      0.0759
    121  CG        11.2130   22.0290   32.9060 C.ar  423  HIS423      0.0818
    122  ND1       10.6470   20.8600   33.3580 N.ar  423  HIS423     -0.2268
    123  CD2       12.0940   21.6750   31.9400 C.ar  423  HIS423      0.1154
    124  CE1       11.1880   19.8340   32.7170 C.ar  423  HIS423      0.1986
    125  NE2       12.0700   20.3050   31.8580 N.ar  423  HIS423     -0.2212
    126  N         13.5880   24.6720   32.4910 N.am  424  GLU424     -0.1979
    127  CA        14.9320   24.6130   31.9360 C.3   424  GLU424      0.1602
    128  C         15.9440   25.1650   32.9250 C.2   424  GLU424      0.2287
    129  O         17.0670   24.6890   32.9950 O.2   424  GLU424     -0.2864
    130  CB        15.0380   25.3950   30.6160 C.3   424  GLU424      0.0415
    131  CG        13.9360   25.0960   29.6100 C.3   424  GLU424      0.1163
    132  CD        13.8850   23.6350   29.2240 C.2   424  GLU424      0.3649
    133  OE1       12.7880   23.1580   28.8610 O.co2 424  GLU424     -0.2457
    134  OE2       14.9400   22.9610   29.2830 O.co2 424  GLU424     -0.2457
    135  N         16.9980   22.4720   35.1180 N.3   427  HIS427     -0.1241
    136  CA        18.1290   21.6370   34.6890 C.3   427  HIS427      0.1621
    137  C         19.4860   22.2780   34.9720 C.2   427  HIS427      0.2264
    138  O         20.4360   21.5950   35.3320 O.2   427  HIS427     -0.2867
    139  CB        18.0580   21.3340   33.2100 C.3   427  HIS427      0.0745
    140  CG        16.9640   20.3960   32.8370 C.ar  427  HIS427      0.0817
    141  ND1       16.7990   19.1710   33.4420 N.ar  427  HIS427     -0.2268
    142  CD2       15.9980   20.4870   31.8920 C.ar  427  HIS427      0.1154
    143  CE1       15.7730   18.5470   32.8900 C.ar  427  HIS427      0.1986
    144  NE2       15.2720   19.3290   31.9490 N.ar  427  HIS427     -0.2212
    145  N          4.7930   13.8500   33.2280 N.3   465  TYR465     -0.1241
    146  CA         6.1060   13.9080   32.5940 C.3   465  TYR465      0.1605
    147  C          7.2780   13.7670   33.6050 C.2   465  TYR465      0.2264
    148  O          8.4060   13.3980   33.2250 O.2   465  TYR465     -0.2867
    149  CB         6.2470   15.2060   31.7930 C.3   465  TYR465      0.0534
    150  CG         7.5700   15.3200   31.0650 C.ar  465  TYR465     -0.0201
    151  CD1        7.9360   14.4010   30.0820 C.ar  465  TYR465     -0.0009
    152  CD2        8.4570   16.3390   31.3700 C.ar  465  TYR465     -0.0009
    153  CE1        9.1590   14.4960   29.4260 C.ar  465  TYR465      0.0417
    154  CE2        9.6760   16.4500   30.7220 C.ar  465  TYR465      0.0417
    155  CZ        10.0280   15.5310   29.7500 C.ar  465  TYR465      0.1957
    156  OH        11.2560   15.6680   29.1240 O.3   465  TYR465     -0.2866
    157  N         14.2370   14.8440   34.7570 N.3   472  GLU472     -0.1245
    158  CA        12.9590   15.4690   34.4740 C.3   472  GLU472      0.1567
    159  C         12.1370   15.6420   35.7500 C.2   472  GLU472      0.2260
    160  O         11.4810   16.6760   35.9390 O.2   472  GLU472     -0.2867
    161  CB        12.1760   14.6570   33.4260 C.3   472  GLU472      0.0388
    162  CG        12.8990   14.4910   32.0820 C.3   472  GLU472      0.1160
    163  CD        13.4830   15.7950   31.5360 C.2   472  GLU472      0.3649
    164  OE1       12.9010   16.8560   31.8000 O.co2 472  GLU472     -0.2457
    165  OE2       14.5240   15.7630   30.8540 O.co2 472  GLU472     -0.2457
    166  N         10.7010   19.2730   36.8910 N.3   476  GLU476     -0.1245
    167  CA         9.2840   19.5430   37.1290 C.3   476  GLU476      0.1567
    168  C          9.0350   20.0360   38.5740 C.2   476  GLU476      0.2260
    169  O          8.4200   21.0970   38.7790 O.2   476  GLU476     -0.2867
    170  CB         8.4550   18.2940   36.8130 C.3   476  GLU476      0.0388
    171  CG         8.3150   18.0070   35.3000 C.3   476  GLU476      0.1160
    172  CD         7.4430   19.0440   34.5570 C.2   476  GLU476      0.3649
    173  OE1        6.3100   18.6830   34.1400 O.co2 476  GLU476     -0.2457
    174  OE2        7.8900   20.2100   34.3810 O.co2 476  GLU476     -0.2457
    175  N          9.9570   23.3720   38.9260 N.3   479  ARG479     -0.1245
    176  CA         9.0520   24.2880   38.2510 C.3   479  ARG479      0.1563
    177  C          7.8330   24.5530   39.1160 C.2   479  ARG479      0.2260
    178  O          7.4450   25.7010   39.3140 O.2   479  ARG479     -0.2867
    179  CB         8.6020   23.7500   36.8880 C.3   479  ARG479      0.0307
    180  CG         7.5610   24.6440   36.2320 C.3   479  ARG479      0.0489
    181  CD         7.1750   24.1630   34.8500 C.3   479  ARG479      0.2205
    182  NE         6.5310   22.8560   34.8600 N.pl3 479  ARG479     -0.0865
    183  CZ         5.2450   22.6690   35.1310 C.cat 479  ARG479      0.5346
    184  NH1        4.4590   23.7000   35.4420 N.pl3 479  ARG479      0.1354
    185  NH2        4.7470   21.4440   35.1020 N.pl3 479  ARG479      0.1354
@<TRIPOS>BOND
     1    31    32    2
     2    31    30    1
     3    29    30    1
     4    30    33    1
     5    33    34    1
     6    34    35    1
     7    35    36    1
     8    37    36    1
     9    41    40    2
    10    38    39    1
    11    40    39    1
    12     7     6   ar
    13    39    42    1
    14     8     6   ar
    15     6     5    1
    16    20    19    1
    17    45    46    1
    18     1     2    1
    19    19    16    1
    20    48    47    2
    21     2     5    1
    22     2     3    1
    23    42    44    1
    24    42    43    1
    25    46    47    1
    26    46    49    1
    27    47    51   am
    28    16    15    1
    29    16    17    1
    30     3     9   am
    31     3     4    2
    32    51    52    1
    33    15    11   am
    34    23    24    2
    35    23    22    1
    36    49    50    1
    37    17    18    2
    38    17    21   am
    39     9    10    1
    40    59    58    1
    41    52    53    1
    42    52    55    1
    43    71    69    1
    44    21    22    1
    45    57    58    1
    46    57    56    1
    47    54    53    2
    48    22    25    1
    49    53    60   am
    50    11    10    1
    51    11    12    2
    52    55    56    1
    53    10    13    1
    54    84    85    1
    55    69    68    1
    56    69    70    1
    57    60    61    1
    58    27    26   ar
    59    68    65    1
    60    13    14    1
    61    94    92    1
    62    85    86    1
    63    25    26    1
    64    61    62    1
    65    26    28   ar
    66    62    63    2
    67    62    64   am
    68    64    65    1
    69    88    86   am
    70    88    89    1
    71    86    87    2
    72    65    66    1
    73    92    89    1
    74    92    93    1
    75    89    90    1
    76    67    66    2
    77    66    72   am
    78    72    73    1
    79    74    75    2
    80    74    73    1
    81    90    91    2
    82    90    95   am
    83    73    76    1
    84   110   109    1
    85   133   132   ar
    86    95    96    1
    87   156   155    1
    88   107   106    2
    89   132   134   ar
    90   132   131    1
    91   108   109    1
    92   108   105    1
    93   153   155   ar
    94   153   151   ar
    95   131   130    1
    96   109   111    1
    97   155   154   ar
    98   104   105    1
    99   104    97   am
   100    76    77    1
   101   106   105    1
   102   151   150   ar
   103   113   114    1
   104   113   112    1
   105    96    97    1
   106    96    99    1
   107    78    77   ar
   108    78    80   ar
   109   114   115    2
   110   130   127    1
   111    77    79   ar
   112   154   152   ar
   113    97    98    2
   114   165   163   ar
   115    99   100    1
   116   150   152   ar
   117   150   149    1
   118    80    82   ar
   119    79    81   ar
   120   163   164   ar
   121   163   162    1
   122    82    81   ar
   123    82    83    1
   124   149   146    1
   125   125   123   ar
   126   125   124   ar
   127   142   144   ar
   128   142   140   ar
   129   127   126    1
   130   127   128    1
   131   123   121   ar
   132   144   143   ar
   133   162   161    1
   134   100   101    1
   135   126   118   am
   136   146   145    1
   137   146   147    1
   138   124   122   ar
   139   140   139    1
   140   140   141   ar
   141   143   141   ar
   142   121   122   ar
   143   121   120    1
   144   128   129    2
   145   102   101   ar
   146   139   136    1
   147   148   147    2
   148   101   103   ar
   149   120   117    1
   150   161   158    1
   151   118   119    2
   152   118   117    1
   153   116   117    1
   154   173   172   ar
   155   174   172   ar
   156   158   157    1
   157   158   159    1
   158   172   171    1
   159   136   137    1
   160   136   135    1
   161   181   182    1
   162   181   180    1
   163   182   183    2
   164   137   138    2
   165   185   183    1
   166   183   184    1
   167   171   170    1
   168   159   160    2
   169   180   179    1
   170   170   167    1
   171   179   176    1
   172   166   167    1
   173   167   168    1
   174   176   175    1
   175   176   177    1
   176   168   169    2
   177   177   178    2
