@<TRIPOS>MOLECULE
tmp/4pkwA00.pdb
 167 161 0 0 0
SMALL
GASTEIGER

@<TRIPOS>ATOM
      1  N          6.0160   10.9160   22.1650 N.3    63  ASP63      -0.1225
      2  CA         6.0510   12.3080   22.5870 C.3    63  ASP63       0.1805
      3  C          6.9880   13.1380   21.7140 C.2    63  ASP63       0.2597
      4  O          6.9420   14.3680   21.7370 O.2    63  ASP63      -0.2718
      5  CB         6.4890   12.4150   24.0520 C.3    63  ASP63       0.1424
      6  CG         5.3800   12.0890   25.0320 C.2    63  ASP63       0.3668
      7  OD1        4.2900   11.6570   24.5930 O.co2  63  ASP63      -0.2456
      8  OD2        5.6080   12.2820   26.2540 O.co2  63  ASP63      -0.2456
      9  N          7.8290   12.4590   20.9420 N.am   64  PHE64      -0.1976
     10  CA         8.8930   13.1250   20.1980 C.3    64  PHE64       0.1639
     11  C          8.6580   13.1740   18.6880 C.2    64  PHE64       0.2290
     12  O          9.5660   13.5010   17.9230 O.2    64  PHE64      -0.2864
     13  CB        10.2350   12.4450   20.4850 C.3    64  PHE64       0.0560
     14  CG        10.2510   10.9700   20.1960 C.ar   64  PHE64      -0.0200
     15  CD1       10.6950   10.4950   18.9720 C.ar   64  PHE64      -0.0042
     16  CD2        9.8430   10.0570   21.1580 C.ar   64  PHE64      -0.0042
     17  CE1       10.7220    9.1360   18.7070 C.ar   64  PHE64      -0.0003
     18  CE2        9.8670    8.6950   20.9020 C.ar   64  PHE64      -0.0003
     19  CZ        10.3080    8.2330   19.6740 C.ar   64  PHE64      -0.0000
     20  N         17.8170   16.0900   19.3280 N.3   368  VAL368     -0.1231
     21  CA        16.4690   16.3490   19.8290 C.3   368  VAL368      0.1692
     22  C         16.0170   17.7610   19.4340 C.2   368  VAL368      0.2592
     23  O         16.7710   18.7220   19.5780 O.2   368  VAL368     -0.2718
     24  CB        16.4310   16.2020   21.3700 C.3   368  VAL368      0.0266
     25  CG1       15.0950   16.6610   21.9470 C.3   368  VAL368      0.0020
     26  CG2       16.7560   14.7620   21.7680 C.3   368  VAL368      0.0020
     27  N         14.7870   17.8760   18.9300 N.am  369  HIS369     -0.1962
     28  CA        14.1180   19.1710   18.8970 C.3   369  HIS369      0.1787
     29  C         12.9520   19.1540   19.8720 C.2   369  HIS369      0.2621
     30  O         12.1750   18.2060   19.9020 O.2   369  HIS369     -0.2715
     31  CB        13.6210   19.5410   17.5010 C.3   369  HIS369      0.0785
     32  CG        12.8680   20.8320   17.4790 C.ar  369  HIS369      0.0821
     33  ND1       13.4020   22.0070   17.9850 N.ar  369  HIS369     -0.2267
     34  CD2       11.6210   21.1400   17.0560 C.ar  369  HIS369      0.1154
     35  CE1       12.5200   22.9760   17.8540 C.ar  369  HIS369      0.1986
     36  NE2       11.4300   22.4840   17.2820 N.ar  369  HIS369     -0.2212
     37  N         12.8570   20.2020   20.6820 N.am  370  SER370     -0.1936
     38  CA        11.9290   20.2420   21.7830 C.3   370  SER370      0.2055
     39  C         11.7420   21.7000   22.1750 C.2   370  SER370      0.2643
     40  O         12.3740   22.5860   21.5840 O.2   370  SER370     -0.2714
     41  CB        12.4600   19.4150   22.9620 C.3   370  SER370      0.2130
     42  OG        13.8180   19.7520   23.2300 O.3   370  SER370     -0.2179
     43  N         10.8760   21.9530   23.1570 N.am  371  LYS371     -0.1963
     44  CA        10.7080   23.3070   23.6740 C.3   371  LYS371      0.1728
     45  C         12.0050   23.7990   24.3170 C.2   371  LYS371      0.2617
     46  O         12.3680   24.9800   24.2210 O.2   371  LYS371     -0.2715
     47  CB         9.5530   23.3590   24.6810 C.3   371  LYS371      0.0311
     48  CG         9.3980   24.7090   25.3930 C.3   371  LYS371      0.0038
     49  CD         9.1180   25.8070   24.3750 C.3   371  LYS371      0.0206
     50  CE         9.1150   27.1740   25.0090 C.3   371  LYS371      0.1093
     51  NZ         8.7140   28.2220   23.9930 N.3   371  LYS371     -0.1314
     52  N         12.7100   22.8870   24.9720 N.am  372  GLY372     -0.1940
     53  CA        13.9630   23.2490   25.6110 C.3   372  GLY372      0.2014
     54  C         14.8510   22.0410   25.7880 C.2   372  GLY372      0.2638
     55  O         14.4090   20.8960   25.6100 O.2   372  GLY372     -0.2714
     56  N         16.1140   22.2930   26.1260 N.am  373  LEU373     -0.1977
     57  CA        17.0680   21.2130   26.3150 C.3   373  LEU373      0.1596
     58  C         18.1540   21.6790   27.2550 C.2   373  LEU373      0.2287
     59  O         18.4810   22.8710   27.2780 O.2   373  LEU373     -0.2864
     60  CB        17.6850   20.8050   24.9680 C.3   373  LEU373      0.0297
     61  CG        18.3370   19.4430   24.8610 C.3   373  LEU373      0.0022
     62  CD1       17.2390   18.3790   24.9410 C.3   373  LEU373      0.0001
     63  CD2       19.0540   19.3710   23.4990 C.3   373  LEU373      0.0001
     64  N          7.8640   27.0910   19.7720 N.3   387  SER387     -0.1202
     65  CA         7.0310   25.9500   20.1380 C.3   387  SER387      0.2020
     66  C          6.3710   26.1560   21.5100 C.2   387  SER387      0.2619
     67  O          6.7000   27.0780   22.2470 O.2   387  SER387     -0.2717
     68  CB         7.8480   24.6620   20.0880 C.3   387  SER387      0.2103
     69  OG         8.9590   24.7600   20.9230 O.3   387  SER387     -0.2182
     70  N          5.4050   25.3060   21.8330 N.am  388  LYS388     -0.1965
     71  CA         4.7550   25.3880   23.1340 C.3   388  LYS388      0.1728
     72  C          5.0280   24.1210   23.9140 C.2   388  LYS388      0.2617
     73  O          4.8220   23.0310   23.3890 O.2   388  LYS388     -0.2715
     74  CB         3.2480   25.5900   22.9860 C.3   388  LYS388      0.0311
     75  CG         2.5020   25.5880   24.3200 C.3   388  LYS388      0.0038
     76  CD         0.9890   25.5700   24.1150 C.3   388  LYS388      0.0206
     77  CE         0.2570   25.4640   25.4510 C.3   388  LYS388      0.1093
     78  NZ         0.5930   24.2140   26.2020 N.3   388  LYS388     -0.1314
     79  N          5.4920   24.2570   25.1520 N.am  389  GLY389     -0.1940
     80  CA         5.6450   23.0910   26.0040 C.3   389  GLY389      0.2014
     81  C          4.2690   22.5230   26.3200 C.2   389  GLY389      0.2638
     82  O          3.3810   23.2570   26.7370 O.2   389  GLY389     -0.2714
     83  N          4.0880   21.2220   26.1190 N.am  390  VAL390     -0.1977
     84  CA         2.7460   20.6270   26.1550 C.3   390  VAL390      0.1596
     85  C          2.0260   20.8330   27.4940 C.2   390  VAL390      0.2287
     86  O          0.8260   21.1290   27.5200 O.2   390  VAL390     -0.2864
     87  CB         2.8060   19.1160   25.8150 C.3   390  VAL390      0.0276
     88  CG1        1.4700   18.4240   26.1090 C.3   390  VAL390      0.0022
     89  CG2        3.1810   18.9290   24.3510 C.3   390  VAL390      0.0022
     90  N          2.9970   23.1740   29.7780 N.3   392  LEU392     -0.1245
     91  CA         3.4380   24.4670   30.2960 C.3   392  LEU392      0.1561
     92  C          2.4320   25.5800   30.0360 C.2   392  LEU392      0.2260
     93  O          1.7110   25.5520   29.0440 O.2   392  LEU392     -0.2867
     94  CB         4.7600   24.8880   29.6620 C.3   392  LEU392      0.0270
     95  CG         5.9680   23.9760   29.7100 C.3   392  LEU392      0.0019
     96  CD1        7.0700   24.6440   28.9070 C.3   392  LEU392      0.0001
     97  CD2        6.4010   23.7510   31.1430 C.3   392  LEU392      0.0001
     98  N          9.3110   26.6250   31.0180 N.3   398  GLY398     -0.1225
     99  CA        10.2150   25.7750   30.2720 C.3   398  GLY398      0.1811
    100  C         11.6630   26.0170   30.6560 C.2   398  GLY398      0.2280
    101  O         12.4470   25.0810   30.7870 O.2   398  GLY398     -0.2866
    102  N         12.3550   24.4100   33.9840 N.3   401  HIS401     -0.1226
    103  CA        12.5570   22.9650   33.8150 C.3   401  HIS401      0.1752
    104  C         14.0080   22.6850   33.4060 C.2   401  HIS401      0.2595
    105  O         14.6610   21.8150   33.9860 O.2   401  HIS401     -0.2718
    106  CB        11.5810   22.3900   32.7670 C.3   401  HIS401      0.0759
    107  CG        11.8990   20.9860   32.3370 C.ar  401  HIS401      0.0818
    108  ND1       11.1840   19.8890   32.7760 N.ar  401  HIS401     -0.2268
    109  CD2       12.8410   20.5050   31.4920 C.ar  401  HIS401      0.1154
    110  CE1       11.6840   18.7960   32.2280 C.ar  401  HIS401      0.1986
    111  NE2       12.6890   19.1410   31.4390 N.ar  401  HIS401     -0.2212
    112  N         14.5320   23.4130   32.4160 N.am  402  GLU402     -0.1979
    113  CA        15.9120   23.1570   31.9940 C.3   402  GLU402      0.1602
    114  C         16.9070   23.4960   33.0890 C.2   402  GLU402      0.2287
    115  O         17.9270   22.8360   33.2380 O.2   402  GLU402     -0.2864
    116  CB        16.2920   23.9510   30.7270 C.3   402  GLU402      0.0415
    117  CG        15.3200   23.8010   29.5580 C.3   402  GLU402      0.1163
    118  CD        15.0060   22.3680   29.1970 C.2   402  GLU402      0.3649
    119  OE1       13.9180   22.1500   28.6260 O.co2 402  GLU402     -0.2457
    120  OE2       15.8310   21.4650   29.4630 O.co2 402  GLU402     -0.2457
    121  N         17.5340   20.6670   35.2770 N.3   405  HIS405     -0.1241
    122  CA        18.5620   19.7450   34.7960 C.3   405  HIS405      0.1621
    123  C         19.9670   20.2060   35.1970 C.2   405  HIS405      0.2264
    124  O         20.8290   19.3740   35.5090 O.2   405  HIS405     -0.2867
    125  CB        18.5100   19.6030   33.2760 C.3   405  HIS405      0.0745
    126  CG        17.3420   18.8080   32.7850 C.ar  405  HIS405      0.0817
    127  ND1       16.9930   17.5890   33.3270 N.ar  405  HIS405     -0.2268
    128  CD2       16.4510   19.0480   31.7900 C.ar  405  HIS405      0.1154
    129  CE1       15.9460   17.1070   32.6810 C.ar  405  HIS405      0.1986
    130  NE2       15.5980   17.9760   31.7460 N.ar  405  HIS405     -0.2212
    131  N          4.7360   14.0190   31.4290 N.3   443  TYR443     -0.1241
    132  CA         6.0840   14.0170   30.8820 C.3   443  TYR443      0.1605
    133  C          7.1230   13.6090   31.9300 C.2   443  TYR443      0.2264
    134  O          8.1660   13.0400   31.5930 O.2   443  TYR443     -0.2867
    135  CB         6.4470   15.3980   30.3130 C.3   443  TYR443      0.0534
    136  CG         7.8110   15.3960   29.6990 C.ar  443  TYR443     -0.0201
    137  CD1        8.0760   14.6430   28.5590 C.ar  443  TYR443     -0.0009
    138  CD2        8.8530   16.1180   30.2680 C.ar  443  TYR443     -0.0009
    139  CE1        9.3430   14.6130   28.0000 C.ar  443  TYR443      0.0417
    140  CE2       10.1290   16.0910   29.7080 C.ar  443  TYR443      0.0417
    141  CZ        10.3610   15.3390   28.5800 C.ar  443  TYR443      0.1957
    142  OH        11.6230   15.3180   28.0290 O.3   443  TYR443     -0.2866
    143  N          8.8260   10.1200   32.1200 N.3   446  THR446     -0.1218
    144  CA         9.7550    9.6730   31.0830 C.3   446  THR446      0.1862
    145  C         11.0020    8.9700   31.6190 C.2   446  THR446      0.2287
    146  O         11.3620    7.8660   31.1730 O.2   446  THR446     -0.2866
    147  CB        10.1880   10.8670   30.2130 C.3   446  THR446      0.1770
    148  OG1        9.0170   11.4400   29.6220 O.3   446  THR446     -0.2211
    149  CG2       11.1280   10.4120   29.1070 C.3   446  THR446      0.0375
    150  N         14.0020   13.6680   33.8630 N.3   450  GLU450     -0.1245
    151  CA        12.8400   14.5080   33.5690 C.3   450  GLU450      0.1567
    152  C         11.9200   14.6180   34.7710 C.2   450  GLU450      0.2260
    153  O         11.2750   15.6410   34.9590 O.2   450  GLU450     -0.2867
    154  CB        12.0700   13.9820   32.3500 C.3   450  GLU450      0.0388
    155  CG        12.8900   13.8620   31.0750 C.3   450  GLU450      0.1160
    156  CD        13.6220   15.1460   30.7040 C.2   450  GLU450      0.3649
    157  OE1       13.1900   16.2350   31.1500 O.co2 450  GLU450     -0.2457
    158  OE2       14.6110   15.0640   29.9350 O.co2 450  GLU450     -0.2457
    159  N         10.8930   18.2020   36.2430 N.3   454  GLU454     -0.1245
    160  CA         9.4780   18.5680   36.3390 C.3   454  GLU454      0.1567
    161  C          9.0810   18.8610   37.7750 C.2   454  GLU454      0.2260
    162  O          8.3910   19.8360   38.0430 O.2   454  GLU454     -0.2867
    163  CB         8.6000   17.4500   35.7680 C.3   454  GLU454      0.0388
    164  CG         8.6040   17.4040   34.2610 C.3   454  GLU454      0.1160
    165  CD         7.8480   18.5810   33.6720 C.2   454  GLU454      0.3649
    166  OE1        6.6370   18.4300   33.4020 O.co2 454  GLU454     -0.2457
    167  OE2        8.4640   19.6480   33.4890 O.co2 454  GLU454     -0.2457
@<TRIPOS>BOND
     1    34    36   ar
     2    34    32   ar
     3    36    35   ar
     4    32    31    1
     5    32    33   ar
     6    31    28    1
     7    35    33   ar
     8    12    11    2
     9    11    10    1
    10    17    15   ar
    11    17    19   ar
    12    28    27    1
    13    28    29    1
    14    27    22   am
    15    15    14   ar
    16    20    21    1
    17    22    23    2
    18    22    21    1
    19    19    18   ar
    20    64    65    1
    21    21    24    1
    22    29    30    2
    23    29    37   am
    24    68    65    1
    25    68    69    1
    26    65    66    1
    27    14    13    1
    28    14    16   ar
    29    10    13    1
    30    10     9    1
    31    37    38    1
    32    18    16   ar
    33     9     3   am
    34    24    26    1
    35    24    25    1
    36    66    70   am
    37    66    67    2
    38    40    39    2
    39     3     4    2
    40     3     2    1
    41    38    39    1
    42    38    41    1
    43    70    71    1
    44     1     2    1
    45    39    43   am
    46     2     5    1
    47    41    42    1
    48    74    71    1
    49    74    75    1
    50    71    72    1
    51    43    44    1
    52    73    72    2
    53    63    61    1
    54    44    45    1
    55    44    47    1
    56    72    79   am
    57    51    50    1
    58     5     6    1
    59    76    75    1
    60    76    77    1
    61    46    45    2
    62    45    52   am
    63    89    87    1
    64    49    50    1
    65    49    48    1
    66     7     6   ar
    67    47    48    1
    68    61    62    1
    69    61    60    1
    70    60    57    1
    71    52    53    1
    72     6     8   ar
    73    79    80    1
    74    77    78    1
    75    55    54    2
    76    53    54    1
    77    54    56   am
    78    87    88    1
    79    87    84    1
    80    80    81    1
    81    83    84    1
    82    83    81   am
    83    56    57    1
    84    84    85    1
    85    57    58    1
    86    81    82    2
    87    58    59    2
    88    85    86    2
    89   139   137   ar
    90   139   141   ar
    91   142   141    1
    92   137   136   ar
    93   141   140   ar
    94   119   118   ar
    95    96    95    1
    96    93    92    2
    97   149   147    1
    98   118   120   ar
    99   118   117    1
   100   117   116    1
   101   148   147    1
   102    94    95    1
   103    94    91    1
   104   136   138   ar
   105   136   135    1
   106   140   138   ar
   107    95    97    1
   108    90    91    1
   109   158   156   ar
   110    92    91    1
   111   147   144    1
   112    99   100    1
   113    99    98    1
   114   135   132    1
   115   100   101    2
   116   156   155    1
   117   156   157   ar
   118   116   113    1
   119   132   131    1
   120   132   133    1
   121   155   154    1
   122   144   145    1
   123   144   143    1
   124   146   145    2
   125   111   109   ar
   126   111   110   ar
   127   109   107   ar
   128   134   133    2
   129   130   128   ar
   130   130   129   ar
   131   128   126   ar
   132   113   112    1
   133   113   114    1
   134   110   108   ar
   135   107   106    1
   136   107   108   ar
   137   154   151    1
   138   112   104   am
   139   129   127   ar
   140   106   103    1
   141   126   125    1
   142   126   127   ar
   143   114   115    2
   144   125   122    1
   145   166   165   ar
   146   104   103    1
   147   104   105    2
   148   167   165   ar
   149   151   150    1
   150   151   152    1
   151   165   164    1
   152   103   102    1
   153   164   163    1
   154   152   153    2
   155   122   123    1
   156   122   121    1
   157   123   124    2
   158   163   160    1
   159   159   160    1
   160   160   161    1
   161   161   162    2
