@<TRIPOS>MOLECULE
tmp/4pl0B03.pdb
 108 100 0 0 0
SMALL
GASTEIGER

@<TRIPOS>ATOM
      1  N        -30.2630    1.3130   79.9220 N.3    36  ILE36      -0.1245
      2  CA       -29.0770    0.5980   80.3790 C.3    36  ILE36       0.1561
      3  C        -27.9930    1.5290   81.0020 C.2    36  ILE36       0.2260
      4  O        -27.1220    1.0170   81.7070 O.2    36  ILE36      -0.2867
      5  CB       -28.4850   -0.3160   79.2650 C.3    36  ILE36       0.0252
      6  CG1      -27.8200   -1.5870   79.8640 C.3    36  ILE36       0.0019
      7  CG2      -27.5720    0.4290   78.2850 C.3    36  ILE36       0.0019
      8  CD1      -28.8370   -2.6750   80.4690 C.3    36  ILE36       0.0001
      9  N        -28.6940    1.3960   85.0130 N.3    39  SER39      -0.1203
     10  CA       -28.3050    0.1360   85.6650 C.3    39  SER39       0.2005
     11  C        -26.9840    0.1490   86.4840 C.2    39  SER39       0.2460
     12  O        -27.0280   -0.4740   87.5390 O.2    39  SER39      -0.2732
     13  CB       -28.2510   -1.0030   84.6560 C.3    39  SER39       0.2103
     14  OG       -27.3000   -0.7580   83.6370 O.3    39  SER39      -0.2182
     15  N        -25.8310    0.7970   86.1390 N.am   40  PRO40      -0.2728
     16  CA       -24.6750    0.7370   87.0670 C.3    40  PRO40       0.1401
     17  C        -24.9120    1.5290   88.3570 C.2    40  PRO40       0.2269
     18  O        -24.2110    1.3150   89.3410 O.2    40  PRO40      -0.2865
     19  CB       -23.5000    1.3190   86.2700 C.3    40  PRO40       0.0296
     20  CG       -24.0350    1.6710   84.9630 C.3    40  PRO40       0.0237
     21  CD       -25.5220    1.6300   84.9650 C.3    40  PRO40       0.0939
     22  N        -26.9950   -0.9590   90.6190 N.3    43  LEU43      -0.1245
     23  CA       -26.0490   -1.9190   91.1620 C.3    43  LEU43       0.1561
     24  C        -25.2900   -1.3360   92.3330 C.2    43  LEU43       0.2260
     25  O        -25.1830   -2.0060   93.3550 O.2    43  LEU43      -0.2867
     26  CB       -25.0880   -2.3660   90.0620 C.3    43  LEU43       0.0270
     27  CG       -24.8340   -3.8580   89.9320 C.3    43  LEU43       0.0019
     28  CD1      -26.1280   -4.6550   90.0510 C.3    43  LEU43       0.0001
     29  CD2      -24.1760   -4.1580   88.6080 C.3    43  LEU43       0.0001
     30  N        -27.6350   -1.0150   95.2850 N.3    46  ILE46      -0.1231
     31  CA       -27.7970   -2.3460   95.8930 C.3    46  ILE46       0.1692
     32  C        -26.5720   -2.5930   96.7790 C.2    46  ILE46       0.2592
     33  O        -26.7530   -2.8840   97.9490 O.2    46  ILE46      -0.2718
     34  CB       -28.0350   -3.5010   94.8430 C.3    46  ILE46       0.0266
     35  CG1      -29.4980   -3.4910   94.3450 C.3    46  ILE46       0.0019
     36  CG2      -27.6860   -4.8940   95.4140 C.3    46  ILE46       0.0020
     37  CD1      -29.8130   -4.2340   93.0090 C.3    46  ILE46       0.0001
     38  N        -25.3490   -2.3900   96.2490 N.am   47  THR47      -0.1953
     39  CA       -24.0960   -2.6260   96.9680 C.3    47  THR47       0.1897
     40  C        -24.0110   -1.8710   98.3110 C.2    47  THR47       0.2313
     41  O        -23.7240   -2.5330   99.3080 O.2    47  THR47      -0.2863
     42  CB       -22.8800   -2.3200   96.0850 C.3    47  THR47       0.1794
     43  OG1      -22.9190   -3.2000   94.9640 O.3    47  THR47      -0.2208
     44  CG2      -21.5580   -2.5270   96.8080 C.3    47  THR47       0.0378
     45  N        -26.4300   -2.9930  101.2250 N.3    50  LEU50      -0.1245
     46  CA       -25.9810   -4.2240  101.8630 C.3    50  LEU50       0.1561
     47  C        -24.6900   -4.0280  102.6470 C.2    50  LEU50       0.2260
     48  O        -24.5740   -4.5710  103.7490 O.2    50  LEU50      -0.2867
     49  CB       -25.7770   -5.3530  100.8380 C.3    50  LEU50       0.0270
     50  CG       -26.9020   -5.6050   99.8460 C.3    50  LEU50       0.0019
     51  CD1      -26.3790   -6.3300   98.6370 C.3    50  LEU50       0.0001
     52  CD2      -28.0750   -6.3500  100.4730 C.3    50  LEU50       0.0001
     53  N        -33.1430   -3.3150   88.1080 N.3    69  TYR69      -0.1241
     54  CA       -31.9950   -3.8220   87.3600 C.3    69  TYR69       0.1605
     55  C        -32.4400   -4.8810   86.3630 C.2    69  TYR69       0.2264
     56  O        -31.9020   -4.9350   85.2510 O.2    69  TYR69      -0.2867
     57  CB       -30.9220   -4.3890   88.2920 C.3    69  TYR69       0.0534
     58  CG       -29.6490   -4.7680   87.5750 C.ar   69  TYR69      -0.0201
     59  CD1      -28.6460   -3.8290   87.3490 C.ar   69  TYR69      -0.0009
     60  CD2      -29.4280   -6.0740   87.1460 C.ar   69  TYR69      -0.0009
     61  CE1      -27.4640   -4.1740   86.6920 C.ar   69  TYR69       0.0417
     62  CE2      -28.2470   -6.4330   86.4940 C.ar   69  TYR69       0.0417
     63  CZ       -27.2650   -5.4800   86.2740 C.ar   69  TYR69       0.1957
     64  OH       -26.1010   -5.8310   85.6390 O.3    69  TYR69      -0.2866
     65  N        -32.0340   -4.9210   82.1610 N.3    73  VAL73      -0.1245
     66  CA       -31.5090   -6.0760   81.4370 C.3    73  VAL73       0.1561
     67  C        -32.5750   -6.6420   80.4400 C.2    73  VAL73       0.2260
     68  O        -32.2370   -6.8390   79.2710 O.2    73  VAL73      -0.2867
     69  CB       -30.9500   -7.1260   82.4570 C.3    73  VAL73       0.0252
     70  CG1      -31.2250   -8.5700   82.0440 C.3    73  VAL73       0.0019
     71  CG2      -29.4580   -6.9000   82.7020 C.3    73  VAL73       0.0019
     72  N        -17.9320   -0.7320   92.8040 N.3   284  ILE284     -0.1245
     73  CA       -18.7340   -1.5910   91.9650 C.3   284  ILE284      0.1561
     74  C        -19.2470   -0.7720   90.7960 C.2   284  ILE284      0.2260
     75  O        -19.1760   -1.2630   89.6750 O.2   284  ILE284     -0.2867
     76  CB       -19.8200   -2.3300   92.7880 C.3   284  ILE284      0.0252
     77  CG1      -19.3990   -3.7960   93.0220 C.3   284  ILE284      0.0019
     78  CG2      -21.2460   -2.2490   92.1940 C.3   284  ILE284      0.0019
     79  CD1      -18.2940   -4.0200   94.0110 C.3   284  ILE284      0.0001
     80  N        -16.3520   -0.3320   88.4500 N.3   287  THR287     -0.1203
     81  CA       -16.1970   -1.6530   87.8230 C.3   287  THR287      0.1994
     82  C        -17.3530   -1.8650   86.8100 C.2   287  THR287      0.2618
     83  O        -17.0690   -2.1880   85.6580 O.2   287  THR287     -0.2717
     84  CB       -16.1230   -2.7750   88.8820 C.3   287  THR287      0.1784
     85  OG1      -15.0370   -2.5300   89.7840 O.3   287  THR287     -0.2211
     86  CG2      -15.9540   -4.1440   88.2710 C.3   287  THR287      0.0376
     87  N        -18.6250   -1.5990   87.2080 N.am  288  SER288     -0.1951
     88  CA       -19.7960   -1.7560   86.3260 C.3   288  SER288      0.1924
     89  C        -19.7130   -0.8790   85.0800 C.2   288  SER288      0.2314
     90  O        -20.1510   -1.3210   84.0170 O.2   288  SER288     -0.2863
     91  CB       -21.1020   -1.4610   87.0550 C.3   288  SER288      0.2116
     92  OG       -21.3450   -2.4260   88.0650 O.3   288  SER288     -0.2180
     93  N        -17.0580   -2.3250   82.4730 N.3   291  ILE291     -0.1231
     94  CA       -17.6710   -3.4300   81.7310 C.3   291  ILE291      0.1692
     95  C        -18.7300   -2.8970   80.7550 C.2   291  ILE291      0.2591
     96  O        -18.6160   -3.1820   79.5630 O.2   291  ILE291     -0.2718
     97  CB       -18.2340   -4.5340   82.6780 C.3   291  ILE291      0.0266
     98  CG1      -17.0920   -5.3070   83.3830 C.3   291  ILE291      0.0019
     99  CG2      -19.1480   -5.4990   81.9410 C.3   291  ILE291      0.0020
    100  CD1      -17.3740   -5.6480   84.7990 C.3   291  ILE291      0.0001
    101  N        -19.7220   -2.1130   81.2240 N.am  292  LEU292     -0.1980
    102  CA       -20.7870   -1.5610   80.3620 C.3   292  LEU292      0.1596
    103  C        -20.2350   -0.7510   79.1310 C.2   292  LEU292      0.2287
    104  O        -20.8230   -0.8440   78.0480 O.2   292  LEU292     -0.2864
    105  CB       -21.7540   -0.6890   81.2020 C.3   292  LEU292      0.0297
    106  CG       -22.6230    0.3630   80.4900 C.3   292  LEU292      0.0022
    107  CD1      -23.9700    0.4720   81.1330 C.3   292  LEU292      0.0001
    108  CD2      -21.9300    1.7360   80.4430 C.3   292  LEU292      0.0001
@<TRIPOS>BOND
     1   104   103    2
     2     7     5    1
     3   103   102    1
     4     5     6    1
     5     5     2    1
     6    68    67    2
     7    96    95    2
     8     6     8    1
     9     1     2    1
    10   102   105    1
    11   102   101    1
    12     2     3    1
    13    67    66    1
    14   108   106    1
    15   106   107    1
    16   106   105    1
    17    95   101   am
    18    95    94    1
    19     3     4    2
    20    66    65    1
    21    66    69    1
    22    94    93    1
    23    94    97    1
    24    99    97    1
    25    70    69    1
    26    69    71    1
    27    97    98    1
    28    98   100    1
    29    14    13    1
    30    90    89    2
    31    13    10    1
    32    20    21    1
    33    20    19    1
    34    21    15    1
    35     9    10    1
    36    89    88    1
    37    56    55    2
    38    64    63    1
    39    83    82    2
    40    10    11    1
    41    15    11   am
    42    15    16    1
    43    19    16    1
    44    63    62   ar
    45    63    61   ar
    46    88    91    1
    47    88    87    1
    48    55    54    1
    49    11    12    2
    50    62    60   ar
    51    61    59   ar
    52    82    87   am
    53    82    81    1
    54    91    92    1
    55    16    17    1
    56    60    58   ar
    57    59    58   ar
    58    54    53    1
    59    54    57    1
    60    58    57    1
    61    81    80    1
    62    81    84    1
    63    86    84    1
    64    17    18    2
    65    29    27    1
    66    84    85    1
    67    75    74    2
    68    27    28    1
    69    27    26    1
    70    26    23    1
    71    22    23    1
    72    74    73    1
    73    23    24    1
    74    73    76    1
    75    73    72    1
    76    78    76    1
    77    24    25    2
    78    76    77    1
    79    37    35    1
    80    77    79    1
    81    35    34    1
    82    34    36    1
    83    34    31    1
    84    43    42    1
    85    30    31    1
    86    31    32    1
    87    42    44    1
    88    42    39    1
    89    38    32   am
    90    38    39    1
    91    32    33    2
    92    39    40    1
    93    40    41    2
    94    51    50    1
    95    50    52    1
    96    50    49    1
    97    49    46    1
    98    45    46    1
    99    46    47    1
   100    47    48    2
