@<TRIPOS>MOLECULE
tmp/4pl0B00.pdb
 95 92 0 0 0
SMALL
GASTEIGER

@<TRIPOS>ATOM
      1  N        -42.6120  -26.0110   13.1440 N.3   460  VAL460     -0.1231
      2  CA       -41.2810  -26.6210   13.3090 C.3   460  VAL460      0.1692
      3  C        -41.4740  -28.1490   13.4090 C.2   460  VAL460      0.2592
      4  O        -42.2100  -28.6150   14.2860 O.2   460  VAL460     -0.2718
      5  CB       -40.4600  -26.0470   14.5070 C.3   460  VAL460      0.0266
      6  CG1      -39.2860  -26.9550   14.8790 C.3   460  VAL460      0.0020
      7  CG2      -39.9550  -24.6400   14.2090 C.3   460  VAL460      0.0020
      8  N        -40.8080  -28.9130   12.5010 N.am  461  ASN461     -0.1974
      9  CA       -40.8350  -30.3880   12.4010 C.3   461  ASN461      0.1688
     10  C        -42.2820  -30.9090   12.2780 C.2   461  ASN461      0.2292
     11  O        -42.7270  -31.7250   13.0960 O.2   461  ASN461     -0.2864
     12  CB       -40.1050  -31.0550   13.5880 C.3   461  ASN461      0.1181
     13  CG       -38.6500  -30.6770   13.7320 C.2   461  ASN461      0.2629
     14  OD1      -37.8770  -30.6520   12.7650 O.2   461  ASN461     -0.2716
     15  ND2      -38.2350  -30.4260   14.9630 N.am  461  ASN461     -0.0877
     16  N        -34.3920  -21.7090   26.4050 N.3   472  ILE472     -0.1245
     17  CA       -33.1900  -21.8740   27.2350 C.3   472  ILE472      0.1561
     18  C        -32.2120  -20.6480   27.0900 C.2   472  ILE472      0.2260
     19  O        -32.4120  -19.7780   26.2370 O.2   472  ILE472     -0.2867
     20  CB       -32.5530  -23.2330   26.7680 C.3   472  ILE472      0.0252
     21  CG1      -33.1590  -24.4170   27.5520 C.3   472  ILE472      0.0019
     22  CG2      -31.0070  -23.2920   26.7020 C.3   472  ILE472      0.0019
     23  CD1      -32.9120  -25.8630   26.9120 C.3   472  ILE472      0.0001
     24  N        -30.3530  -21.5870   22.8310 N.3   476  ASN476     -0.1225
     25  CA       -29.6970  -22.7870   22.2780 C.3   476  ASN476      0.1785
     26  C        -30.6160  -24.0450   22.3170 C.2   476  ASN476      0.2597
     27  O        -30.1730  -25.1850   22.1540 O.2   476  ASN476     -0.2718
     28  CB       -28.3830  -23.0600   23.0050 C.3   476  ASN476      0.1169
     29  CG       -27.5000  -21.8460   23.1680 C.2   476  ASN476      0.2627
     30  OD1      -27.1080  -21.1880   22.1870 O.2   476  ASN476     -0.2716
     31  ND2      -27.1370  -21.5600   24.4240 N.am  476  ASN476     -0.0877
     32  N        -31.9010  -23.7920   22.5360 N.am  477  ASN477     -0.1960
     33  CA       -33.0650  -24.6600   22.5290 C.3   477  ASN477      0.1819
     34  C        -33.5380  -24.7440   21.0670 C.2   477  ASN477      0.2621
     35  O        -34.2950  -25.6360   20.6580 O.2   477  ASN477     -0.2715
     36  CB       -34.0970  -23.9340   23.4000 C.3   477  ASN477      0.1195
     37  CG       -35.2350  -24.7340   23.9350 C.2   477  ASN477      0.2630
     38  OD1      -35.8550  -25.5450   23.2440 O.2   477  ASN477     -0.2716
     39  ND2      -35.6160  -24.4140   25.1530 N.am  477  ASN477     -0.0877
     40  N        -33.1030  -23.7430   20.2940 N.am  478  TYR478     -0.1960
     41  CA       -33.4170  -23.5260   18.8950 C.3   478  TYR478      0.1771
     42  C        -32.1500  -23.5510   18.0340 C.2   478  TYR478      0.2620
     43  O        -31.0500  -23.1980   18.4890 O.2   478  TYR478     -0.2715
     44  CB       -34.1500  -22.1710   18.7390 C.3   478  TYR478      0.0574
     45  CG       -35.6650  -22.2400   18.8010 C.ar  478  TYR478     -0.0198
     46  CD1      -36.3140  -23.3840   19.2530 C.ar  478  TYR478     -0.0009
     47  CD2      -36.4500  -21.1590   18.4020 C.ar  478  TYR478     -0.0009
     48  CE1      -37.7040  -23.4690   19.2680 C.ar  478  TYR478      0.0417
     49  CE2      -37.8450  -21.2270   18.4210 C.ar  478  TYR478      0.0417
     50  CZ       -38.4680  -22.3870   18.8550 C.ar  478  TYR478      0.1957
     51  OH       -39.8400  -22.4800   18.9080 O.3   478  TYR478     -0.2866
     52  N        -32.3260  -23.9850   16.7820 N.am  479  SER479     -0.1936
     53  CA       -31.3010  -24.0580   15.7500 C.3   479  SER479      0.2055
     54  C        -30.8400  -22.6480   15.3470 C.2   479  SER479      0.2644
     55  O        -31.6450  -21.7120   15.4230 O.2   479  SER479     -0.2714
     56  CB       -31.8840  -24.7600   14.5350 C.3   479  SER479      0.2130
     57  OG       -32.5880  -23.8120   13.7490 O.3   479  SER479     -0.2179
     58  N        -29.5920  -22.5320   14.8580 N.am  480  GLY480     -0.1939
     59  CA       -28.9860  -21.2770   14.4060 C.3   480  GLY480      0.2014
     60  C        -29.9180  -20.3980   13.5900 C.2   480  GLY480      0.2639
     61  O        -30.0920  -19.2120   13.8890 O.2   480  GLY480     -0.2714
     62  N        -30.5610  -21.0180   12.6040 N.am  481  GLY481     -0.1939
     63  CA       -31.5300  -20.3830   11.7250 C.3   481  GLY481      0.2014
     64  C        -32.8300  -20.0260   12.4210 C.2   481  GLY481      0.2638
     65  O        -33.3610  -18.9350   12.1890 O.2   481  GLY481     -0.2714
     66  N        -33.3420  -20.9320   13.3110 N.am  482  GLN482     -0.1977
     67  CA       -34.5650  -20.6890   14.1040 C.3   482  GLN482      0.1601
     68  C        -34.3460  -19.4950   15.0470 C.2   482  GLN482      0.2287
     69  O        -35.3050  -18.7600   15.3420 O.2   482  GLN482     -0.2864
     70  CB       -34.9820  -21.9300   14.9080 C.3   482  GLN482      0.0394
     71  CG       -35.6680  -23.0110   14.0840 C.3   482  GLN482      0.0908
     72  CD       -35.7120  -24.3580   14.7760 C.2   482  GLN482      0.2608
     73  OE1      -35.0120  -24.6190   15.7580 O.2   482  GLN482     -0.2717
     74  NE2      -36.5120  -25.2650   14.2490 N.am  482  GLN482     -0.0878
     75  N        -27.5640  -17.9260    8.5900 N.3   507  ALA507     -0.1231
     76  CA       -27.8400  -19.2790    9.0700 C.3   507  ALA507      0.1694
     77  C        -29.0530  -19.9510    8.3720 C.2   507  ALA507      0.2592
     78  O        -29.2640  -21.1460    8.6090 O.2   507  ALA507     -0.2718
     79  CB       -28.0670  -19.2550   10.5760 C.3   507  ALA507      0.0304
     80  N        -29.8590  -19.2020    7.5740 N.am  508  LEU508     -0.1966
     81  CA       -31.0360  -19.7500    6.8830 C.3   508  LEU508      0.1728
     82  C        -30.7090  -20.4200    5.5240 C.2   508  LEU508      0.2616
     83  O        -29.7410  -20.0360    4.8520 O.2   508  LEU508     -0.2715
     84  CB       -32.0800  -18.6570    6.6210 C.3   508  LEU508      0.0311
     85  CG       -32.6650  -17.9150    7.7900 C.3   508  LEU508      0.0022
     86  CD1      -33.1250  -16.5530    7.3540 C.3   508  LEU508      0.0001
     87  CD2      -33.7960  -18.6720    8.4060 C.3   508  LEU508      0.0001
     88  N        -31.5710  -21.3790    5.1010 N.am  509  ASP509     -0.1971
     89  CA       -31.4760  -22.0490    3.7990 C.3   509  ASP509      0.1709
     90  C        -32.0250  -21.1050    2.7180 C.2   509  ASP509      0.2293
     91  O        -32.7990  -20.1870    3.0350 O.2   509  ASP509     -0.2864
     92  CB       -32.1970  -23.4090    3.7790 C.3   509  ASP509      0.1436
     93  CG       -33.6450  -23.3450    4.2170 C.2   509  ASP509      0.3671
     94  OD1      -33.8910  -23.3860    5.4420 O.co2 509  ASP509     -0.2456
     95  OD2      -34.5300  -23.1990    3.3360 O.co2 509  ASP509     -0.2456
@<TRIPOS>BOND
     1    90    91    2
     2    90    89    1
     3    95    93   ar
     4    92    89    1
     5    92    93    1
     6    89    88    1
     7    93    94   ar
     8    83    82    2
     9    88    82   am
    10    82    81    1
    11    84    81    1
    12    84    85    1
    13    81    80    1
    14    86    85    1
    15    80    77   am
    16    85    87    1
    17    77    78    2
    18    77    76    1
    19    75    76    1
    20    76    79    1
    21    63    64    1
    22    63    62    1
    23    65    64    2
    24    10     9    1
    25    10    11    2
    26     9     8    1
    27     9    12    1
    28    64    66   am
    29     8     3   am
    30    62    60   am
    31    14    13    2
    32     1     2    1
    33     2     3    1
    34     2     5    1
    35    66    67    1
    36     3     4    2
    37    12    13    1
    38    60    61    2
    39    60    59    1
    40    13    15   am
    41    57    56    1
    42    71    72    1
    43    71    70    1
    44    67    70    1
    45    67    68    1
    46     7     5    1
    47    74    72   am
    48    59    58    1
    49     5     6    1
    50    56    53    1
    51    72    73    2
    52    58    54   am
    53    68    69    2
    54    54    55    2
    55    54    53    1
    56    53    52    1
    57    52    42   am
    58    42    43    2
    59    42    41    1
    60    47    49   ar
    61    47    45   ar
    62    49    50   ar
    63    44    45    1
    64    44    41    1
    65    45    46   ar
    66    50    51    1
    67    50    48   ar
    68    41    40    1
    69    46    48   ar
    70    40    34   am
    71    35    34    2
    72    34    33    1
    73    27    26    2
    74    30    29    2
    75    25    26    1
    76    25    24    1
    77    25    28    1
    78    26    32   am
    79    33    32    1
    80    33    36    1
    81    28    29    1
    82    29    31   am
    83    38    37    2
    84    36    37    1
    85    37    39   am
    86    19    18    2
    87    16    17    1
    88    22    20    1
    89    20    17    1
    90    20    21    1
    91    23    21    1
    92    18    17    1
