@<TRIPOS>MOLECULE
tmp/4pl0B02.pdb
 125 120 0 0 0
SMALL
GASTEIGER

@<TRIPOS>ATOM
      1  N        -12.8510    3.2400   17.5790 N.3   351  TYR351     -0.1227
      2  CA       -13.4470    2.6330   18.7740 C.3   351  TYR351      0.1736
      3  C        -12.6430    3.1090   19.9790 C.2   351  TYR351      0.2596
      4  O        -13.2010    3.6340   20.9460 O.2   351  TYR351     -0.2718
      5  CB       -13.4950    1.0990   18.6810 C.3   351  TYR351      0.0548
      6  CG       -14.7260    0.5630   17.9910 C.ar  351  TYR351     -0.0200
      7  CD1      -15.9710    0.5910   18.6170 C.ar  351  TYR351     -0.0009
      8  CD2      -14.6480    0.0040   16.7210 C.ar  351  TYR351     -0.0009
      9  CE1      -17.1100    0.0990   17.9840 C.ar  351  TYR351      0.0417
     10  CE2      -15.7780   -0.4990   16.0790 C.ar  351  TYR351      0.0417
     11  CZ       -17.0070   -0.4490   16.7140 C.ar  351  TYR351      0.1957
     12  OH       -18.1230   -0.9370   16.0770 O.3   351  TYR351     -0.2866
     13  N        -11.3190    2.9700   19.8720 N.am  352  SER352     -0.1952
     14  CA       -10.3480    3.4350   20.8350 C.3   352  SER352      0.1924
     15  C         -9.6950    4.6800   20.2220 C.2   352  SER352      0.2314
     16  O        -10.4040    5.5840   19.7600 O.2   352  SER352     -0.2863
     17  CB        -9.3390    2.3290   21.1330 C.3   352  SER352      0.2116
     18  OG        -8.5290    2.0440   20.0040 O.3   352  SER352     -0.2180
     19  N        -11.4580    3.4990   12.2720 N.3   357  ILE357     -0.1245
     20  CA       -12.2050    2.3940   11.6680 C.3   357  ILE357      0.1561
     21  C        -12.9660    2.9090   10.4390 C.2   357  ILE357      0.2260
     22  O        -12.9360    2.2380    9.4140 O.2   357  ILE357     -0.2867
     23  CB       -13.0950    1.6590   12.7110 C.3   357  ILE357      0.0252
     24  CG1      -12.2260    0.7160   13.5610 C.3   357  ILE357      0.0019
     25  CG2      -14.2210    0.8600   12.0710 C.3   357  ILE357      0.0019
     26  CD1      -11.6910    1.3240   14.8930 C.3   357  ILE357      0.0001
     27  N        -13.8000   -8.4150    6.0410 N.3   377  SER377     -0.1202
     28  CA       -14.0550   -8.4640    7.4850 C.3   377  SER377      0.2020
     29  C        -13.0100   -7.6020    8.1970 C.2   377  SER377      0.2619
     30  O        -11.8230   -7.9550    8.2190 O.2   377  SER377     -0.2717
     31  CB       -14.0400   -9.9030    7.9920 C.3   377  SER377      0.2103
     32  OG       -14.4090   -9.9310    9.3590 O.3   377  SER377     -0.2182
     33  N        -13.4470   -6.4460    8.6890 N.am  378  GLY378     -0.1942
     34  CA       -12.5610   -5.4610    9.3000 C.3   378  GLY378      0.2014
     35  C        -12.6270   -4.0920    8.6390 C.2   378  GLY378      0.2640
     36  O        -11.9670   -3.1420    9.0760 O.2   378  GLY378     -0.2714
     37  N        -13.4390   -3.9850    7.5800 N.am  379  SER379     -0.1935
     38  CA       -13.6500   -2.7300    6.8550 C.3   379  SER379      0.2055
     39  C        -14.4840   -1.7740    7.7270 C.2   379  SER379      0.2644
     40  O        -14.1180   -0.6090    7.8630 O.2   379  SER379     -0.2714
     41  CB       -14.3100   -2.9730    5.4960 C.3   379  SER379      0.2130
     42  OG       -15.5870   -3.5920    5.5930 O.3   379  SER379     -0.2179
     43  N        -15.5450   -2.2970    8.3490 N.am  380  GLY380     -0.1939
     44  CA       -16.4050   -1.5390    9.2410 C.3   380  GLY380      0.2014
     45  C        -17.8420   -1.4130    8.7920 C.2   380  GLY380      0.2639
     46  O        -18.4010   -0.3150    8.8450 O.2   380  GLY380     -0.2714
     47  N        -18.4630   -2.5330    8.3910 N.am  381  LYS381     -0.1963
     48  CA       -19.8530   -2.5030    7.9160 C.3   381  LYS381      0.1728
     49  C        -20.7830   -2.3710    9.1130 C.2   381  LYS381      0.2617
     50  O        -21.5940   -1.4230    9.1760 O.2   381  LYS381     -0.2715
     51  CB       -20.1970   -3.7380    7.0620 C.3   381  LYS381      0.0311
     52  CG       -19.3970   -3.8570    5.7720 C.3   381  LYS381      0.0038
     53  CD       -19.3740   -5.2960    5.2440 C.3   381  LYS381      0.0206
     54  CE       -18.5040   -6.2620    6.0360 C.3   381  LYS381      0.1093
     55  NZ       -17.0610   -5.8620    6.0140 N.3   381  LYS381     -0.1314
     56  N        -20.6000   -3.3000   10.0980 N.am  382  SER382     -0.1936
     57  CA       -21.3010   -3.3600   11.3830 C.3   382  SER382      0.2055
     58  C        -21.1170   -2.0190   12.1110 C.2   382  SER382      0.2643
     59  O        -22.1150   -1.3530   12.3980 O.2   382  SER382     -0.2714
     60  CB       -20.7630   -4.5160   12.2150 C.3   382  SER382      0.2130
     61  OG       -20.9990   -5.7590   11.5800 O.3   382  SER382     -0.2179
     62  N        -19.8410   -1.5780   12.3050 N.am  383  THR383     -0.1950
     63  CA       -19.5120   -0.2780   12.9040 C.3   383  THR383      0.1897
     64  C        -20.4060    0.8510   12.3440 C.2   383  THR383      0.2313
     65  O        -21.0770    1.5230   13.1270 O.2   383  THR383     -0.2863
     66  CB       -18.0440    0.0900   12.6520 C.3   383  THR383      0.1794
     67  OG1      -17.1860   -1.0070   12.9770 O.3   383  THR383     -0.2208
     68  CG2      -17.6260    1.3480   13.3920 C.3   383  THR383      0.0378
     69  N        -24.0380    0.3980   13.1190 N.3   386  LYS386     -0.1245
     70  CA       -24.1910    0.5810   14.5680 C.3   386  LYS386      0.1561
     71  C        -24.3210    2.0810   14.8890 C.2   386  LYS386      0.2260
     72  O        -25.2100    2.4500   15.6620 O.2   386  LYS386     -0.2867
     73  CB       -23.0210   -0.0540   15.3420 C.3   386  LYS386      0.0271
     74  CG       -23.1550   -1.5570   15.5190 C.3   386  LYS386      0.0035
     75  CD       -21.8810   -2.2020   16.0770 C.3   386  LYS386      0.0206
     76  CE       -22.0130   -3.7190   16.1640 C.3   386  LYS386      0.1093
     77  NZ       -20.6950   -4.4000   16.0580 N.3   386  LYS386     -0.1314
     78  N        -23.1490    4.2610   19.0840 N.3   392  TYR392     -0.1241
     79  CA       -22.0630    5.1610   19.4490 C.3   392  TYR392      0.1605
     80  C        -22.4010    6.6010   19.0250 C.2   392  TYR392      0.2264
     81  O        -23.1100    6.8050   18.0200 O.2   392  TYR392     -0.2867
     82  CB       -20.7330    4.6610   18.8280 C.3   392  TYR392      0.0534
     83  CG       -20.5180    3.1710   19.0390 C.ar  392  TYR392     -0.0201
     84  CD1      -20.1290    2.6730   20.2730 C.ar  392  TYR392     -0.0009
     85  CD2      -20.7990    2.2530   18.0310 C.ar  392  TYR392     -0.0009
     86  CE1      -19.9930    1.3010   20.4920 C.ar  392  TYR392      0.0417
     87  CE2      -20.6680    0.8780   18.2390 C.ar  392  TYR392      0.0417
     88  CZ       -20.2710    0.4060   19.4740 C.ar  392  TYR392      0.1957
     89  OH       -20.1290   -0.9460   19.6870 O.3   392  TYR392     -0.2866
     90  N        -25.7780   -8.7850   13.7460 N.3   423  GLN423     -0.1245
     91  CA       -24.9480   -9.9000   13.2770 C.3   423  GLN423      0.1566
     92  C        -25.1330  -11.1100   14.1980 C.2   423  GLN423      0.2260
     93  O        -25.3530  -12.1980   13.6880 O.2   423  GLN423     -0.2867
     94  CB       -23.4740   -9.5170   13.1570 C.3   423  GLN423      0.0367
     95  CG       -22.9470   -9.6460   11.7380 C.3   423  GLN423      0.0905
     96  CD       -21.4580   -9.4330   11.5980 C.2   423  GLN423      0.2608
     97  OE1      -20.9350   -8.3110   11.7490 O.2   423  GLN423     -0.2717
     98  NE2      -20.7490  -10.5110   11.2470 N.am  423  GLN423     -0.0878
     99  N        -27.8460   -6.8770    9.0830 N.3   502  ASP502     -0.1225
    100  CA       -26.3940   -7.1750    9.1360 C.3   502  ASP502      0.1805
    101  C        -26.1490   -8.6700    9.2110 C.2   502  ASP502      0.2597
    102  O        -26.1710   -9.2180   10.2960 O.2   502  ASP502     -0.2718
    103  CB       -25.6730   -6.4530   10.3000 C.3   502  ASP502      0.1424
    104  CG       -24.1270   -6.5780   10.3300 C.2   502  ASP502      0.3668
    105  OD1      -23.5340   -7.2140    9.3840 O.co2 502  ASP502     -0.2456
    106  OD2      -23.5030   -6.0330   11.2830 O.co2 502  ASP502     -0.2456
    107  N        -25.9190   -9.3200    8.0590 N.am  503  GLU503     -0.1979
    108  CA       -25.6640  -10.7720    7.8880 C.3   503  GLU503      0.1602
    109  C        -26.6810  -11.6020    8.7600 C.2   503  GLU503      0.2287
    110  O        -26.4090  -12.7200    9.2110 O.2   503  GLU503     -0.2864
    111  CB       -24.1750  -11.0930    8.1890 C.3   503  GLU503      0.0415
    112  CG       -23.2380  -10.6080    7.0790 C.3   503  GLU503      0.1163
    113  CD       -21.7410  -10.8290    7.2430 C.2   503  GLU503      0.3649
    114  OE1      -21.0000   -9.8250    7.3870 O.co2 503  GLU503     -0.2457
    115  OE2      -21.3010  -12.0000    7.1620 O.co2 503  GLU503     -0.2457
    116  N        -21.7310  -10.8760    2.1230 N.3   534  HIS534     -0.1241
    117  CA       -20.5540  -11.2960    1.3470 C.3   534  HIS534      0.1621
    118  C        -21.0000  -12.1440    0.1280 C.2   534  HIS534      0.2264
    119  O        -20.1630  -12.7320   -0.5590 O.2   534  HIS534     -0.2867
    120  CB       -19.6220  -12.1580    2.2400 C.3   534  HIS534      0.0745
    121  CG       -18.9000  -11.4160    3.3230 C.ar  534  HIS534      0.0817
    122  ND1      -17.9900  -10.4000    3.0320 N.ar  534  HIS534     -0.2268
    123  CD2      -18.9220  -11.6070    4.6640 C.ar  534  HIS534      0.1154
    124  CE1      -17.5230   -9.9850    4.2020 C.ar  534  HIS534      0.1986
    125  NE2      -18.0570  -10.6750    5.2140 N.ar  534  HIS534     -0.2212
@<TRIPOS>BOND
     1   119   118    2
     2   118   117    1
     3   117   116    1
     4   117   120    1
     5   120   121    1
     6   122   121   ar
     7   122   124   ar
     8   121   123   ar
     9   124   125   ar
    10   123   125   ar
    11    53    52    1
    12    53    54    1
    13    41    42    1
    14    41    38    1
    15    52    51    1
    16    55    54    1
    17    27    28    1
    18    38    37    1
    19    38    39    1
    20    51    48    1
    21   112   113    1
    22   112   111    1
    23   115   113   ar
    24   113   114   ar
    25    28    31    1
    26    28    29    1
    27    37    35   am
    28    39    40    2
    29    39    43   am
    30   108   107    1
    31   108   111    1
    32   108   109    1
    33    48    47    1
    34    48    49    1
    35    31    32    1
    36   107   101   am
    37    29    30    2
    38    29    33   am
    39    43    44    1
    40    47    45   am
    41    35    36    2
    42    35    34    1
    43    33    34    1
    44   109   110    2
    45    45    46    2
    46    45    44    1
    47    99   100    1
    48    49    50    2
    49    49    56   am
    50   100   101    1
    51   100   103    1
    52   101   102    2
    53   105   104   ar
    54    22    21    2
    55    56    57    1
    56   103   104    1
    57   104   106   ar
    58    21    20    1
    59    98    96   am
    60    57    58    1
    61    57    60    1
    62    61    60    1
    63    96    95    1
    64    96    97    2
    65    20    19    1
    66    20    23    1
    67    95    94    1
    68    25    23    1
    69    58    62   am
    70    58    59    2
    71    62    63    1
    72    64    63    1
    73    64    65    2
    74    66    63    1
    75    66    67    1
    76    66    68    1
    77    23    24    1
    78    69    70    1
    79    94    91    1
    80    91    90    1
    81    91    92    1
    82    24    26    1
    83    93    92    2
    84    70    71    1
    85    70    73    1
    86    71    72    2
    87    73    74    1
    88    74    75    1
    89    77    76    1
    90    12    11    1
    91    75    76    1
    92    10    11   ar
    93    10     8   ar
    94    11     9   ar
    95     8     6   ar
    96     1     2    1
    97     9     7   ar
    98     6     7   ar
    99     6     5    1
   100    81    80    2
   101    85    87   ar
   102    85    83   ar
   103    87    88   ar
   104     5     2    1
   105     2     3    1
   106    82    83    1
   107    82    79    1
   108    80    79    1
   109    83    84   ar
   110    78    79    1
   111    88    89    1
   112    88    86   ar
   113    16    15    2
   114    13     3   am
   115    13    14    1
   116     3     4    2
   117    18    17    1
   118    15    14    1
   119    84    86   ar
   120    14    17    1
