@<TRIPOS>MOLECULE
tmp/4pl3B00.pdb
 108 105 0 0 0
SMALL
GASTEIGER

@<TRIPOS>ATOM
      1  N         61.8490    6.0700   33.8340 N.3   305  ASP305     -0.1225
      2  CA        60.9840    5.1130   34.4860 C.3   305  ASP305      0.1805
      3  C         61.0120    3.8340   33.6810 C.2   305  ASP305      0.2597
      4  O         60.9100    2.7340   34.2090 O.2   305  ASP305     -0.2718
      5  CB        59.5740    5.6790   34.5880 C.3   305  ASP305      0.1424
      6  CG        58.7010    4.9120   35.5590 C.2   305  ASP305      0.3668
      7  OD1       57.9010    4.0580   35.1260 O.co2 305  ASP305     -0.2456
      8  OD2       58.8130    5.1720   36.7700 O.co2 305  ASP305     -0.2456
      9  N         61.1850    3.9720   32.3820 N.am  306  LEU306     -0.1979
     10  CA        61.1620    2.8020   31.5220 C.3   306  LEU306      0.1596
     11  C         62.5370    2.1790   31.5580 C.2   306  LEU306      0.2287
     12  O         62.7590    1.1210   30.9910 O.2   306  LEU306     -0.2864
     13  CB        60.7550    3.1670   30.0780 C.3   306  LEU306      0.0297
     14  CG        59.9150    2.1310   29.3120 C.3   306  LEU306      0.0022
     15  CD1       58.5610    1.8700   29.9700 C.3   306  LEU306      0.0001
     16  CD2       59.7300    2.5330   27.8550 C.3   306  LEU306      0.0001
     17  N         62.8820   -1.1900   33.9400 N.3   309  PHE309     -0.1241
     18  CA        62.3370   -2.4770   33.5560 C.3   309  PHE309      0.1605
     19  C         63.1440   -3.0530   32.4080 C.2   309  PHE309      0.2264
     20  O         63.6720   -4.1510   32.5090 O.2   309  PHE309     -0.2867
     21  CB        60.8590   -2.3130   33.1640 C.3   309  PHE309      0.0534
     22  CG        59.9930   -1.6820   34.2520 C.ar  309  PHE309     -0.0203
     23  CD1       59.9870   -0.3110   34.4600 C.ar  309  PHE309     -0.0042
     24  CD2       59.1880   -2.4680   35.0670 C.ar  309  PHE309     -0.0042
     25  CE1       59.1990    0.2480   35.4490 C.ar  309  PHE309     -0.0003
     26  CE2       58.4010   -1.9020   36.0550 C.ar  309  PHE309     -0.0003
     27  CZ        58.4080   -0.5510   36.2420 C.ar  309  PHE309     -0.0000
     28  N         65.2040   -4.6370   29.4270 N.3   311  THR311     -0.1203
     29  CA        64.2020   -5.2610   28.5290 C.3   311  THR311      0.1994
     30  C         63.4290   -4.4200   27.5030 C.2   311  THR311      0.2617
     31  O         62.3460   -4.8280   27.0980 O.2   311  THR311     -0.2717
     32  CB        63.1460   -6.1000   29.3150 C.3   311  THR311      0.1784
     33  OG1       62.2160   -5.2350   29.9780 O.3   311  THR311     -0.2211
     34  CG2       63.8210   -7.0160   30.3170 C.3   311  THR311      0.0376
     35  N         63.9680   -3.2920   27.0550 N.am  312  TYR312     -0.1975
     36  CA        63.3110   -2.5310   25.9930 C.3   312  TYR312      0.1639
     37  C         64.3540   -1.9810   25.0650 C.2   312  TYR312      0.2290
     38  O         65.3380   -1.3870   25.5100 O.2   312  TYR312     -0.2864
     39  CB        62.4490   -1.3830   26.5290 C.3   312  TYR312      0.0560
     40  CG        61.1460   -1.8110   27.1450 C.ar  312  TYR312     -0.0198
     41  CD1       60.4970   -2.9630   26.7320 C.ar  312  TYR312     -0.0009
     42  CD2       60.5640   -1.0550   28.1330 C.ar  312  TYR312     -0.0009
     43  CE1       59.3130   -3.3500   27.2990 C.ar  312  TYR312      0.0417
     44  CE2       59.3800   -1.4250   28.7070 C.ar  312  TYR312      0.0417
     45  CZ        58.7550   -2.5750   28.2920 C.ar  312  TYR312      0.1957
     46  OH        57.5660   -2.9490   28.8730 O.3   312  TYR312     -0.2866
     47  N         54.7760   -2.4280   23.0380 N.3   322  ARG322     -0.1245
     48  CA        54.6990   -3.0110   24.3770 C.3   322  ARG322      0.1563
     49  C         54.7970   -1.8990   25.4270 C.2   322  ARG322      0.2260
     50  O         54.0040   -1.8290   26.3700 O.2   322  ARG322     -0.2867
     51  CB        55.8260   -4.0260   24.5980 C.3   322  ARG322      0.0307
     52  CG        55.4360   -5.2030   25.4590 C.3   322  ARG322      0.0489
     53  CD        56.6270   -5.7700   26.2260 C.3   322  ARG322      0.2205
     54  NE        57.6410   -6.3760   25.3670 N.pl3 322  ARG322     -0.0865
     55  CZ        58.6920   -7.0700   25.8070 C.cat 322  ARG322      0.5346
     56  NH1       58.8880   -7.2610   27.1090 N.pl3 322  ARG322      0.1354
     57  NH2       59.5540   -7.5830   24.9310 N.pl3 322  ARG322      0.1354
     58  N         52.1950   -1.1600   28.4890 N.3   326  ASN326     -0.1225
     59  CA        52.5010   -1.3200   29.9020 C.3   326  ASN326      0.1785
     60  C         52.2690   -0.0000   30.5940 C.2   326  ASN326      0.2597
     61  O         51.4130    0.1040   31.4560 O.2   326  ASN326     -0.2718
     62  CB        53.9390   -1.8040   30.1220 C.3   326  ASN326      0.1169
     63  CG        54.1610   -3.2440   29.6790 C.2   326  ASN326      0.2627
     64  OD1       53.2640   -4.0810   29.7270 O.2   326  ASN326     -0.2716
     65  ND2       55.3760   -3.5330   29.2570 N.am  326  ASN326     -0.0877
     66  N         53.0280    1.0140   30.2000 N.am  327  LYS327     -0.1980
     67  CA        52.8910    2.3620   30.7560 C.3   327  LYS327      0.1596
     68  C         51.4500    2.8680   30.8170 C.2   327  LYS327      0.2287
     69  O         51.1260    3.7540   31.6190 O.2   327  LYS327     -0.2864
     70  CB        53.7290    3.3490   29.9660 C.3   327  LYS327      0.0298
     71  CG        55.1760    3.2920   30.3250 C.3   327  LYS327      0.0038
     72  CD        55.4350    3.9430   31.6870 C.3   327  LYS327      0.0206
     73  CE        56.5450    3.2280   32.4950 C.3   327  LYS327      0.1093
     74  NZ        56.1320    1.9020   33.0320 N.3   327  LYS327     -0.1314
     75  N         49.4900    0.2690   33.4740 N.3   330  HIS330     -0.1241
     76  CA        49.8920    0.5310   34.8560 C.3   330  HIS330      0.1621
     77  C         49.7730    2.0070   35.1930 C.2   330  HIS330      0.2264
     78  O         50.2290    2.4500   36.2370 O.2   330  HIS330     -0.2867
     79  CB        51.3440    0.1120   35.0790 C.3   330  HIS330      0.0745
     80  CG        51.5700   -1.3600   35.0160 C.ar  330  HIS330      0.0817
     81  ND1       51.1370   -2.2190   35.9970 N.ar  330  HIS330     -0.2268
     82  CD2       52.2010   -2.1250   34.0980 C.ar  330  HIS330      0.1154
     83  CE1       51.4790   -3.4540   35.6800 C.ar  330  HIS330      0.1986
     84  NE2       52.1270   -3.4230   34.5310 N.ar  330  HIS330     -0.2212
     85  N         49.8870    3.1210   38.7470 N.3   333  GLU333     -0.1231
     86  CA        51.0530    2.9220   39.6010 C.3   333  GLU333      0.1699
     87  C         52.2360    3.7600   39.1530 C.2   333  GLU333      0.2592
     88  O         53.3020    3.7120   39.7470 O.2   333  GLU333     -0.2718
     89  CB        51.4640    1.4460   39.5810 C.3   333  GLU333      0.0402
     90  CG        50.4220    0.4970   40.1490 C.3   333  GLU333      0.1161
     91  CD        50.6130   -0.9220   39.6750 C.2   333  GLU333      0.3649
     92  OE1       50.1320   -1.2470   38.5770 O.co2 333  GLU333     -0.2457
     93  OE2       51.2410   -1.7160   40.4020 O.co2 333  GLU333     -0.2457
     94  N         52.0720    4.5320   38.1020 N.am  334  LEU334     -0.1966
     95  CA        53.1840    5.3280   37.6490 C.3   334  LEU334      0.1713
     96  C         53.5290    6.3800   38.6790 C.2   334  LEU334      0.2458
     97  O         52.6770    6.8200   39.4290 O.2   334  LEU334     -0.2730
     98  CB        52.8440    5.9880   36.3220 C.3   334  LEU334      0.0310
     99  CG        53.2050    5.1650   35.0940 C.3   334  LEU334      0.0022
    100  CD1       52.7330    3.7570   35.2590 C.3   334  LEU334      0.0001
    101  CD2       52.5640    5.7890   33.8860 C.3   334  LEU334      0.0001
    102  N         54.8030    6.7610   38.7370 N.am  335  PRO335     -0.2727
    103  CA        55.2350    7.9650   39.4400 C.3   335  PRO335      0.1402
    104  C         54.5140    9.1850   38.9130 C.2   335  PRO335      0.2269
    105  O         54.4160    9.3570   37.7000 O.2   335  PRO335     -0.2865
    106  CB        56.7140    8.0540   39.0800 C.3   335  PRO335      0.0296
    107  CG        57.1330    6.6520   38.9210 C.3   335  PRO335      0.0237
    108  CD        55.9470    5.9260   38.3390 C.3   335  PRO335      0.0939
@<TRIPOS>BOND
     1    47    48    1
     2    48    51    1
     3    48    49    1
     4    51    52    1
     5    57    55    1
     6    37    38    2
     7    37    36    1
     8    54    55    2
     9    54    53    1
    10    49    50    2
    11    52    53    1
    12    55    56    1
    13    36    39    1
    14    36    35    1
    15    39    40    1
    16    41    40   ar
    17    41    43   ar
    18    35    30   am
    19    31    30    2
    20    40    42   ar
    21    43    45   ar
    22    30    29    1
    23    16    14    1
    24    42    44   ar
    25    45    44   ar
    26    45    46    1
    27    58    59    1
    28    29    32    1
    29    29    28    1
    30    65    63   am
    31    14    15    1
    32    14    13    1
    33    32    33    1
    34    32    34    1
    35    63    64    2
    36    63    62    1
    37    59    62    1
    38    59    60    1
    39    70    71    1
    40    70    67    1
    41    13    10    1
    42    66    60   am
    43    66    67    1
    44    71    72    1
    45    60    61    2
    46    67    68    1
    47    68    69    2
    48    12    11    2
    49    10    11    1
    50    10     9    1
    51    72    73    1
    52     9     3   am
    53    19    20    2
    54    19    18    1
    55    73    74    1
    56    21    18    1
    57    21    22    1
    58    75    76    1
    59    18    17    1
    60     3     4    2
    61     3     2    1
    62     1     2    1
    63   101    99    1
    64    82    84   ar
    65    82    80   ar
    66    22    23   ar
    67    22    24   ar
    68    23    25   ar
    69     2     5    1
    70    84    83   ar
    71     5     6    1
    72    76    79    1
    73    76    77    1
    74    80    79    1
    75    80    81   ar
    76    24    26   ar
    77    99   100    1
    78    99    98    1
    79     7     6   ar
    80    77    78    2
    81    25    27   ar
    82     6     8   ar
    83    83    81   ar
    84    26    27   ar
    85    98    95    1
    86    95    94    1
    87    95    96    1
    88   105   104    2
    89    94    87   am
    90   108   102    1
    91   108   107    1
    92    92    91   ar
    93    96   102   am
    94    96    97    2
    95   102   103    1
    96    85    86    1
    97   104   103    1
    98   107   106    1
    99   106   103    1
   100    87    86    1
   101    87    88    2
   102    89    86    1
   103    89    90    1
   104    91    90    1
   105    91    93   ar
