@<TRIPOS>MOLECULE
tmp/4pl4D00.pdb
 158 149 0 0 0
SMALL
GASTEIGER

@<TRIPOS>ATOM
      1  N         38.8800    0.5920  158.7870 N.3    16  LEU16      -0.1231
      2  CA        39.0360    0.8640  157.3680 C.3    16  LEU16       0.1693
      3  C         37.7130    0.6070  156.6710 C.2    16  LEU16       0.2593
      4  O         37.4920    1.0520  155.5430 O.2    16  LEU16      -0.2718
      5  CB        40.1490   -0.0050  156.7700 C.3    16  LEU16       0.0284
      6  CG        41.5250    0.6520  156.5720 C.3    16  LEU16       0.0019
      7  CD1       41.8450    1.6180  157.7110 C.3    16  LEU16       0.0001
      8  CD2       42.6490   -0.3840  156.4010 C.3    16  LEU16       0.0001
      9  N         36.8180   -0.1120  157.3340 N.am   17  GLY17      -0.1942
     10  CA        35.4790   -0.2030  156.7750 C.3    17  GLY17       0.2014
     11  C         34.7230   -1.4930  156.9950 C.2    17  GLY17       0.2639
     12  O         35.3110   -2.5610  157.1670 O.2    17  GLY17      -0.2714
     13  N         33.4000   -1.3880  156.9830 N.am   18  HIS18      -0.1959
     14  CA        32.5490   -2.5400  157.2260 C.3    18  HIS18       0.1787
     15  C         32.4690   -3.4440  156.0040 C.2    18  HIS18       0.2621
     16  O         32.3100   -2.9720  154.8810 O.2    18  HIS18      -0.2715
     17  CB        31.1540   -2.0900  157.6720 C.3    18  HIS18       0.0785
     18  CG        31.1250   -1.5090  159.0530 C.ar   18  HIS18       0.0821
     19  ND1       30.2860   -1.9770  160.0410 N.ar   18  HIS18      -0.2267
     20  CD2       31.8480   -0.5120  159.6150 C.ar   18  HIS18       0.1154
     21  CE1       30.4850   -1.2860  161.1490 C.ar   18  HIS18       0.1986
     22  NE2       31.4280   -0.3910  160.9170 N.ar   18  HIS18      -0.2212
     23  N         32.6020   -4.7460  156.2330 N.am   19  GLY19      -0.1940
     24  CA        32.4540   -5.7290  155.1790 C.3    19  GLY19       0.2014
     25  C         31.0360   -6.2640  155.1010 C.2    19  GLY19       0.2638
     26  O         30.0580   -5.5350  155.3230 O.2    19  GLY19      -0.2714
     27  N         30.9310   -7.5480  154.7750 N.am   20  ALA20      -0.1977
     28  CA        29.6440   -8.2210  154.7090 C.3    20  ALA20       0.1597
     29  C         29.5260   -9.1530  155.8950 C.2    20  ALA20       0.2287
     30  O         30.5290   -9.7060  156.3450 O.2    20  ALA20      -0.2864
     31  CB        29.5190   -8.9980  153.4190 C.3    20  ALA20       0.0319
     32  N         31.7790   -8.3430  159.1140 N.3    23  THR23      -0.1218
     33  CA        33.2240   -8.2600  158.9520 C.3    23  THR23       0.1862
     34  C         33.7050   -6.8100  158.9560 C.2    23  THR23       0.2287
     35  O         33.1530   -5.9570  158.2580 O.2    23  THR23      -0.2866
     36  CB        33.6730   -8.9420  157.6600 C.3    23  THR23       0.1770
     37  OG1       33.4110  -10.3450  157.7540 O.3    23  THR23      -0.2211
     38  CG2       35.1520   -8.7320  157.4490 C.3    23  THR23       0.0375
     39  N         37.1610   -4.1620  158.7170 N.3    25  VAL25      -0.1245
     40  CA        38.5670   -4.0360  158.3110 C.3    25  VAL25       0.1561
     41  C         39.2750   -2.8670  158.9890 C.2    25  VAL25       0.2260
     42  O         38.7490   -1.7400  159.0250 O.2    25  VAL25      -0.2867
     43  CB        38.7190   -3.8800  156.7930 C.3    25  VAL25       0.0252
     44  CG1       40.1810   -3.8590  156.4210 C.3    25  VAL25       0.0019
     45  CG2       38.0360   -5.0120  156.0690 C.3    25  VAL25       0.0019
     46  N         46.6810   -3.8470  156.6900 N.3    36  ALA36      -0.1245
     47  CA        45.2630   -4.0330  156.9740 C.3    36  ALA36       0.1562
     48  C         45.0350   -5.3700  157.6700 C.2    36  ALA36       0.2260
     49  O         45.7360   -6.3490  157.4110 O.2    36  ALA36      -0.2867
     50  CB        44.4240   -3.9570  155.7060 C.3    36  ALA36       0.0290
     51  N         41.6920   -7.8370  158.7440 N.3    38  LYS38      -0.1245
     52  CA        40.2820   -8.0670  158.6200 C.3    38  LYS38       0.1561
     53  C         39.9170   -9.1290  159.6440 C.2    38  LYS38       0.2260
     54  O         40.4770  -10.2370  159.6200 O.2    38  LYS38      -0.2867
     55  CB        40.0020   -8.5390  157.1980 C.3    38  LYS38       0.0271
     56  CG        38.5550   -8.7600  156.8780 C.3    38  LYS38       0.0035
     57  CD        38.3870   -9.2890  155.4680 C.3    38  LYS38       0.0206
     58  CE        38.8220   -8.2610  154.4540 C.3    38  LYS38       0.1093
     59  NZ        38.5160   -8.7300  153.0810 N.3    38  LYS38      -0.1314
     60  N         46.3720   -8.0310  155.1310 N.3    81  ILE81      -0.1231
     61  CA        46.5260   -7.7000  153.7110 C.3    81  ILE81       0.1692
     62  C         47.2670   -6.3850  153.4850 C.2    81  ILE81       0.2592
     63  O         47.1880   -5.4650  154.3140 O.2    81  ILE81      -0.2718
     64  CB        45.1710   -7.6700  152.9400 C.3    81  ILE81       0.0266
     65  CG1       44.1260   -6.7920  153.6260 C.3    81  ILE81       0.0019
     66  CG2       44.5950   -9.0210  152.8570 C.3    81  ILE81       0.0020
     67  CD1       42.7330   -6.9300  152.9990 C.3    81  ILE81       0.0001
     68  N         47.9800   -6.3140  152.3580 N.am   82  GLU82      -0.1966
     69  CA        48.7250   -5.1210  151.9790 C.3    82  GLU82       0.1733
     70  C         47.8250   -3.8890  152.0800 C.2    82  GLU82       0.2616
     71  O         46.7080   -3.8870  151.5580 O.2    82  GLU82      -0.2715
     72  CB        49.2980   -5.2650  150.5640 C.3    82  GLU82       0.0429
     73  CG        50.2340   -4.1260  150.1510 C.3    82  GLU82       0.1163
     74  CD        50.8840   -4.3420  148.7930 C.2    82  GLU82       0.3649
     75  OE1       50.8890   -5.4930  148.3030 O.co2  82  GLU82      -0.2457
     76  OE2       51.3910   -3.3560  148.2140 O.co2  82  GLU82      -0.2457
     77  N         48.3070   -2.8600  152.7760 N.am   83  LEU83      -0.1963
     78  CA        47.5220   -1.6520  153.0420 C.3    83  LEU83       0.1728
     79  C         47.3270   -0.7680  151.8080 C.2    83  LEU83       0.2616
     80  O         48.2690   -0.1060  151.3350 O.2    83  LEU83      -0.2715
     81  CB        48.1440   -0.8410  154.1780 C.3    83  LEU83       0.0311
     82  CG        47.1240   -0.0270  154.9730 C.3    83  LEU83       0.0022
     83  CD1       45.9450   -0.8870  155.3650 C.3    83  LEU83       0.0001
     84  CD2       47.7260    0.5840  156.2170 C.3    83  LEU83       0.0001
     85  N         46.0970   -0.7480  151.2990 N.am   84  CYS84      -0.1954
     86  CA        45.8080    0.0080  150.0920 C.3    84  CYS84       0.1843
     87  C         45.1920    1.3690  150.3840 C.2    84  CYS84       0.2625
     88  O         44.7070    1.6290  151.4820 O.2    84  CYS84      -0.2714
     89  CB        44.9260   -0.8020  149.1530 C.3    84  CYS84       0.0997
     90  SG        45.6410   -2.4070  148.7700 S.3    84  CYS84      -0.0797
     91  N         45.2270    2.2410  149.3860 N.am   85  ALA85      -0.1963
     92  CA        44.7170    3.5910  149.5420 C.3    85  ALA85       0.1728
     93  C         43.2380    3.6780  149.1920 C.2    85  ALA85       0.2616
     94  O         42.5250    4.4950  149.7670 O.2    85  ALA85      -0.2715
     95  CB        45.5270    4.5680  148.6960 C.3    85  ALA85       0.0334
     96  N         42.7740    2.8480  148.2520 N.am   86  ALA86      -0.1963
     97  CA        41.3710    2.9350  147.8110 C.3    86  ALA86       0.1728
     98  C         40.7630    1.6910  147.1300 C.2    86  ALA86       0.2616
     99  O         41.4190    0.6630  146.9510 O.2    86  ALA86      -0.2715
    100  CB        41.1680    4.1790  146.9220 C.3    86  ALA86       0.0334
    101  N         39.4850    1.8060  146.7780 N.am   87  THR87      -0.1951
    102  CA        38.7870    0.8040  145.9820 C.3    87  THR87       0.1897
    103  C         38.3010    1.4900  144.7180 C.2    87  THR87       0.2313
    104  O         38.0150    2.6950  144.7490 O.2    87  THR87      -0.2863
    105  CB        37.5520    0.2590  146.7190 C.3    87  THR87       0.1794
    106  OG1       36.7850    1.3500  147.2560 O.3    87  THR87      -0.2208
    107  CG2       37.9700   -0.6480  147.8410 C.3    87  THR87       0.0378
    108  N         33.9670  -13.9060  144.0060 N.3   127  ASP127     -0.1239
    109  CA        33.3740  -12.5900  144.2450 C.3   127  ASP127      0.1674
    110  C         34.2430  -11.4160  143.7890 C.2   127  ASP127      0.2266
    111  O         34.8900  -10.7570  144.6080 O.2   127  ASP127     -0.2867
    112  CB        33.0160  -12.4150  145.7200 C.3   127  ASP127      0.1410
    113  CG        32.4860  -11.0320  146.0260 C.2   127  ASP127      0.3668
    114  OD1       31.6020  -10.5690  145.2810 O.co2 127  ASP127     -0.2456
    115  OD2       32.9650  -10.3990  146.9920 O.co2 127  ASP127     -0.2456
    116  N         34.4490   -7.6120  142.3960 N.3   129  LYS129     -0.1245
    117  CA        33.6270   -6.4120  142.5030 C.3   129  LYS129      0.1561
    118  C         34.5700   -5.2220  142.6400 C.2   129  LYS129      0.2260
    119  O         35.7660   -5.4210  142.7850 O.2   129  LYS129     -0.2867
    120  CB        32.6810   -6.5160  143.7060 C.3   129  LYS129      0.0271
    121  CG        33.2350   -5.9340  144.9980 C.3   129  LYS129      0.0035
    122  CD        32.2060   -5.9300  146.1210 C.3   129  LYS129      0.0206
    123  CE        31.9420   -7.3200  146.6260 C.3   129  LYS129      0.1093
    124  NZ        31.5310   -7.2470  148.0410 N.3   129  LYS129     -0.1314
    125  N         34.7500   -2.9240  145.1950 N.3   131  HIS131     -0.1226
    126  CA        35.2600   -2.8880  146.5680 C.3   131  HIS131      0.1752
    127  C         36.3390   -3.9370  146.7940 C.2   131  HIS131      0.2596
    128  O         37.0120   -3.9440  147.8100 O.2   131  HIS131     -0.2718
    129  CB        34.1200   -3.1140  147.5610 C.3   131  HIS131      0.0759
    130  CG        33.3900   -1.8630  147.9280 C.ar  131  HIS131      0.0818
    131  ND1       34.0420   -0.6820  148.2040 N.ar  131  HIS131     -0.2268
    132  CD2       32.0670   -1.6020  148.0520 C.ar  131  HIS131      0.1154
    133  CE1       33.1540    0.2520  148.4910 C.ar  131  HIS131      0.1986
    134  NE2       31.9480   -0.2790  148.4020 N.ar  131  HIS131     -0.2212
    135  N         36.4920   -4.8160  145.8180 N.am  132  ASN132     -0.1974
    136  CA        37.3440   -5.9780  145.9150 C.3   132  ASN132      0.1688
    137  C         38.5740   -5.7720  145.0220 C.2   132  ASN132      0.2292
    138  O         39.4810   -6.6070  144.9660 O.2   132  ASN132     -0.2864
    139  CB        36.5350   -7.1770  145.4390 C.3   132  ASN132      0.1181
    140  CG        37.1430   -8.4880  145.8310 C.2   132  ASN132      0.2629
    141  OD1       38.0040   -9.0220  145.1320 O.2   132  ASN132     -0.2716
    142  ND2       36.6800   -9.0360  146.9420 N.am  132  ASN132     -0.0877
    143  N         41.5720   -2.9640  144.3900 N.3   134  LEU134     -0.1245
    144  CA        42.1790   -1.9520  145.2520 C.3   134  LEU134      0.1561
    145  C         43.3050   -1.1430  144.6000 C.2   134  LEU134      0.2260
    146  O         44.1610   -1.6800  143.8900 O.2   134  LEU134     -0.2867
    147  CB        42.7100   -2.6180  146.5300 C.3   134  LEU134      0.0270
    148  CG        41.7950   -3.6680  147.1870 C.3   134  LEU134      0.0019
    149  CD1       42.4200   -4.2620  148.4330 C.3   134  LEU134      0.0001
    150  CD2       40.4580   -3.0710  147.5390 C.3   134  LEU134      0.0001
    151  N         40.4870  -10.1330  148.7990 N.3   150  ASP150     -0.1239
    152  CA        39.4110  -10.9900  149.3370 C.3   150  ASP150      0.1674
    153  C         39.2380  -12.3230  148.5970 C.2   150  ASP150      0.2266
    154  O         38.1770  -12.9460  148.6590 O.2   150  ASP150     -0.2867
    155  CB        38.0700  -10.2550  149.3640 C.3   150  ASP150      0.1410
    156  CG        38.1320   -8.9400  150.1080 C.2   150  ASP150      0.3668
    157  OD1       39.2470   -8.4880  150.4610 O.co2 150  ASP150     -0.2456
    158  OD2       37.0560   -8.3520  150.3390 O.co2 150  ASP150     -0.2456
@<TRIPOS>BOND
     1   116   117    1
     2   117   118    1
     3   117   120    1
     4   118   119    2
     5   120   121    1
     6   110   109    1
     7   110   111    2
     8   146   145    2
     9   108   109    1
    10   109   112    1
    11   143   144    1
    12   145   144    1
    13   103   104    2
    14   103   102    1
    15   138   137    2
    16   121   122    1
    17   137   136    1
    18   141   140    2
    19   125   126    1
    20   144   147    1
    21   114   113   ar
    22   139   140    1
    23   139   136    1
    24   112   113    1
    25   135   136    1
    26   135   127   am
    27   140   142   am
    28   102   105    1
    29   102   101    1
    30   113   115   ar
    31   122   123    1
    32   147   148    1
    33   126   127    1
    34   126   129    1
    35   123   124    1
    36   105   106    1
    37   105   107    1
    38   101    98   am
    39   127   128    2
    40   100    97    1
    41    99    98    2
    42    98    97    1
    43   148   150    1
    44   148   149    1
    45   129   130    1
    46    97    96    1
    47   130   132   ar
    48   130   131   ar
    49   132   134   ar
    50   131   133   ar
    51    76    74   ar
    52    96    93   am
    53    75    74   ar
    54   134   133   ar
    55   153   154    2
    56   153   152    1
    57    95    92    1
    58    90    89    1
    59    74    73    1
    60   151   152    1
    61    89    86    1
    62    93    92    1
    63    93    94    2
    64   152   155    1
    65   155   156    1
    66    91    92    1
    67    91    87   am
    68    86    87    1
    69    86    85    1
    70   156   158   ar
    71   156   157   ar
    72    73    72    1
    73    87    88    2
    74    72    69    1
    75    85    79   am
    76    80    79    2
    77    71    70    2
    78    79    78    1
    79    69    70    1
    80    69    68    1
    81    70    77   am
    82    68    62   am
    83    77    78    1
    84    66    64    1
    85    64    65    1
    86    64    61    1
    87    67    65    1
    88    78    81    1
    89    59    58    1
    90    31    28    1
    91    62    61    1
    92    62    63    2
    93    61    60    1
    94    81    82    1
    95    58    57    1
    96    28    27    1
    97    28    29    1
    98    27    25   am
    99    16    15    2
   100    82    83    1
   101    82    84    1
   102    25    24    1
   103    25    26    2
   104    24    23    1
   105    57    56    1
   106     4     3    2
   107    50    47    1
   108    29    30    2
   109    15    23   am
   110    15    14    1
   111    45    43    1
   112     8     6    1
   113    44    43    1
   114     6     5    1
   115     6     7    1
   116     3     9   am
   117     3     2    1
   118    46    47    1
   119     5     2    1
   120    10    11    1
   121    10     9    1
   122    43    40    1
   123    56    55    1
   124    47    48    1
   125    13    11   am
   126    13    14    1
   127    11    12    2
   128    55    52    1
   129    14    17    1
   130     2     1    1
   131    49    48    2
   132    38    36    1
   133    36    37    1
   134    36    33    1
   135    17    18    1
   136    35    34    2
   137    40    39    1
   138    40    41    1
   139    52    51    1
   140    52    53    1
   141    33    34    1
   142    33    32    1
   143    41    42    2
   144    18    20   ar
   145    18    19   ar
   146    20    22   ar
   147    54    53    2
   148    19    21   ar
   149    22    21   ar
