@<TRIPOS>MOLECULE
tmp/4pl4A00.pdb
 97 93 0 0 0
SMALL
GASTEIGER

@<TRIPOS>ATOM
      1  N         87.6390  -20.2210   76.2160 N.3   308  LEU308     -0.1245
      2  CA        87.1290  -19.3860   77.3080 C.3   308  LEU308      0.1561
      3  C         88.1250  -19.1950   78.4350 C.2   308  LEU308      0.2260
      4  O         88.2540  -18.0940   78.9770 O.2   308  LEU308     -0.2867
      5  CB        85.8380  -19.9620   77.8940 C.3   308  LEU308      0.0270
      6  CG        84.5530  -19.2690   77.4530 C.3   308  LEU308      0.0019
      7  CD1       84.8760  -17.8670   76.9550 C.3   308  LEU308      0.0001
      8  CD2       83.8300  -20.0990   76.3980 C.3   308  LEU308      0.0001
      9  N         90.3900  -16.1340   78.6540 N.3   311  PHE311     -0.1241
     10  CA        89.8980  -14.7870   78.9010 C.3   311  PHE311      0.1605
     11  C         89.6050  -14.5940   80.3700 C.2   311  PHE311      0.2264
     12  O         90.0180  -13.6000   80.9600 O.2   311  PHE311     -0.2867
     13  CB        88.6350  -14.5050   78.0890 C.3   311  PHE311      0.0534
     14  CG        88.9130  -14.0980   76.6810 C.ar  311  PHE311     -0.0203
     15  CD1       88.7120  -14.9830   75.6380 C.ar  311  PHE311     -0.0042
     16  CD2       89.4020  -12.8360   76.4000 C.ar  311  PHE311     -0.0042
     17  CE1       88.9810  -14.6130   74.3420 C.ar  311  PHE311     -0.0003
     18  CE2       89.6730  -12.4610   75.1010 C.ar  311  PHE311     -0.0003
     19  CZ        89.4650  -13.3530   74.0730 C.ar  311  PHE311     -0.0000
     20  N         85.8400  -14.7930   83.6210 N.3   314  TYR314     -0.1241
     21  CA        84.6220  -15.5710   83.4270 C.3   314  TYR314      0.1605
     22  C         84.3560  -16.4790   84.6020 C.2   314  TYR314      0.2264
     23  O         85.0910  -17.4420   84.8220 O.2   314  TYR314     -0.2867
     24  CB        84.7040  -16.3960   82.1450 C.3   314  TYR314      0.0534
     25  CG        84.3660  -15.5980   80.9190 C.ar  314  TYR314     -0.0201
     26  CD1       83.2820  -14.7320   80.9120 C.ar  314  TYR314     -0.0009
     27  CD2       85.1390  -15.6890   79.7780 C.ar  314  TYR314     -0.0009
     28  CE1       82.9720  -13.9890   79.7920 C.ar  314  TYR314      0.0417
     29  CE2       84.8420  -14.9530   78.6620 C.ar  314  TYR314      0.0417
     30  CZ        83.7600  -14.1080   78.6700 C.ar  314  TYR314      0.1957
     31  OH        83.4780  -13.3780   77.5410 O.3   314  TYR314     -0.2866
     32  N         77.3870  -13.1290   79.0610 N.3   324  ARG324     -0.1245
     33  CA        78.4130  -12.2570   78.5100 C.3   324  ARG324      0.1563
     34  C         79.2800  -13.0320   77.5470 C.2   324  ARG324      0.2260
     35  O         79.6930  -12.5100   76.5230 O.2   324  ARG324     -0.2867
     36  CB        79.2990  -11.6900   79.6090 C.3   324  ARG324      0.0307
     37  CG        78.6360  -10.6320   80.4550 C.3   324  ARG324      0.0489
     38  CD        79.6430  -10.0230   81.4130 C.3   324  ARG324      0.2205
     39  NE        80.8260   -9.5540   80.7010 N.pl3 324  ARG324     -0.0865
     40  CZ        82.0640   -9.9450   80.9730 C.cat 324  ARG324      0.5346
     41  NH1       82.2920  -10.8070   81.9570 N.pl3 324  ARG324      0.1354
     42  NH2       83.0750   -9.4700   80.2610 N.pl3 324  ARG324      0.1354
     43  N         77.2360  -13.7400   74.3020 N.3   327  ARG327     -0.1231
     44  CA        77.2270  -12.5180   73.5020 C.3   327  ARG327      0.1694
     45  C         78.5690  -12.2810   72.8500 C.2   327  ARG327      0.2592
     46  O         78.6480  -11.9710   71.6630 O.2   327  ARG327     -0.2718
     47  CB        76.9150  -11.3040   74.3630 C.3   327  ARG327      0.0321
     48  CG        77.0150  -10.0110   73.5790 C.3   327  ARG327      0.0489
     49  CD        77.7050   -8.9190   74.3520 C.3   327  ARG327      0.2205
     50  NE        78.1420   -7.8700   73.4400 N.pl3 327  ARG327     -0.0865
     51  CZ        79.4010   -7.6950   73.0570 C.cat 327  ARG327      0.5346
     52  NH1       80.3610   -8.4830   73.5270 N.pl3 327  ARG327      0.1354
     53  NH2       79.7060   -6.7180   72.2170 N.pl3 327  ARG327      0.1354
     54  N         79.6230  -12.4110   73.6470 N.am  328  ASN328     -0.1960
     55  CA        80.9740  -12.2600   73.1410 C.3   328  ASN328      0.1819
     56  C         81.2690  -13.2140   71.9960 C.2   328  ASN328      0.2621
     57  O         81.6490  -12.7710   70.9200 O.2   328  ASN328     -0.2715
     58  CB        82.0100  -12.4240   74.2510 C.3   328  ASN328      0.1195
     59  CG        82.1020  -11.2050   75.1450 C.2   328  ASN328      0.2630
     60  OD1       81.8930  -10.0760   74.7010 O.2   328  ASN328     -0.2716
     61  ND2       82.4240  -11.4260   76.4120 N.am  328  ASN328     -0.0877
     62  N         81.0780  -14.5120   72.2020 N.am  329  LYS329     -0.1977
     63  CA        81.4130  -15.4690   71.1510 C.3   329  LYS329      0.1596
     64  C         80.5690  -15.2400   69.8960 C.2   329  LYS329      0.2287
     65  O         81.0340  -15.4300   68.7680 O.2   329  LYS329     -0.2864
     66  CB        81.2890  -16.9120   71.6480 C.3   329  LYS329      0.0298
     67  CG        82.4310  -17.3660   72.5690 C.3   329  LYS329      0.0038
     68  CD        83.7970  -17.3230   71.8630 C.3   329  LYS329      0.0206
     69  CE        84.9940  -17.3610   72.8290 C.3   329  LYS329      0.1093
     70  NZ        85.7320  -16.0330   72.8010 N.3   329  LYS329     -0.1314
     71  N         82.2580  -11.9670   68.0640 N.3   332  HIS332     -0.1241
     72  CA        83.5130  -12.2550   67.3730 C.3   332  HIS332      0.1621
     73  C         83.4860  -13.5480   66.5610 C.2   332  HIS332      0.2264
     74  O         84.5400  -14.1040   66.2500 O.2   332  HIS332     -0.2867
     75  CB        84.6580  -12.3590   68.3800 C.3   332  HIS332      0.0745
     76  CG        84.8980  -11.1060   69.1560 C.ar  332  HIS332      0.0817
     77  ND1       84.7560  -11.0390   70.5250 N.ar  332  HIS332     -0.2268
     78  CD2       85.2760   -9.8690   68.7560 C.ar  332  HIS332      0.1154
     79  CE1       85.0320   -9.8150   70.9350 C.ar  332  HIS332      0.1986
     80  NE2       85.3500   -9.0850   69.8810 N.ar  332  HIS332     -0.2212
     81  N         85.7700  -14.3410   63.2900 N.3   335  GLU335     -0.1231
     82  CA        87.2150  -14.3480   63.5310 C.3   335  GLU335      0.1699
     83  C         87.6370  -15.3800   64.5780 C.2   335  GLU335      0.2592
     84  O         88.7800  -15.3820   65.0190 O.2   335  GLU335     -0.2718
     85  CB        87.7180  -12.9560   63.9310 C.3   335  GLU335      0.0402
     86  CG        87.4560  -11.9320   62.8390 C.3   335  GLU335      0.1161
     87  CD        86.1880  -11.1520   63.1320 C.2   335  GLU335      0.3649
     88  OE1       85.4800  -11.4430   64.1220 O.co2 335  GLU335     -0.2457
     89  OE2       85.9030  -10.2150   62.3580 O.co2 335  GLU335     -0.2457
     90  N         86.7120  -16.2490   64.9780 N.am  336  LEU336     -0.1980
     91  CA        87.0260  -17.3460   65.8960 C.3   336  LEU336      0.1596
     92  C         87.6330  -18.5150   65.1250 C.2   336  LEU336      0.2287
     93  O         87.3750  -18.6660   63.9320 O.2   336  LEU336     -0.2864
     94  CB        85.7670  -17.8110   66.6360 C.3   336  LEU336      0.0297
     95  CG        85.4240  -17.2570   68.0200 C.3   336  LEU336      0.0022
     96  CD1       86.2330  -16.0200   68.3630 C.3   336  LEU336      0.0001
     97  CD2       83.9340  -16.9570   68.0980 C.3   336  LEU336      0.0001
@<TRIPOS>BOND
     1    89    87   ar
     2    86    87    1
     3    86    85    1
     4    87    88   ar
     5    81    82    1
     6    82    85    1
     7    82    83    1
     8    93    92    2
     9    83    90   am
    10    83    84    2
    11    90    91    1
    12    92    91    1
    13    91    94    1
    14    74    73    2
    15    73    72    1
    16    94    95    1
    17    72    71    1
    18    72    75    1
    19    95    97    1
    20    95    96    1
    21    75    76    1
    22    78    76   ar
    23    78    80   ar
    24    65    64    2
    25    76    77   ar
    26    80    79   ar
    27    64    63    1
    28    77    79   ar
    29    57    56    2
    30    63    66    1
    31    63    62    1
    32    66    67    1
    33    46    45    2
    34    68    67    1
    35    68    69    1
    36    56    62   am
    37    56    55    1
    38    53    51    1
    39    70    69    1
    40    45    44    1
    41    45    54   am
    42    51    50    2
    43    51    52    1
    44    55    54    1
    45    55    58    1
    46    50    49    1
    47    44    43    1
    48    44    47    1
    49    48    49    1
    50    48    47    1
    51    19    17   ar
    52    19    18   ar
    53    58    59    1
    54    17    15   ar
    55    60    59    2
    56    18    16   ar
    57    59    61   am
    58    15    14   ar
    59     1     2    1
    60     8     6    1
    61    16    14   ar
    62    35    34    2
    63    14    13    1
    64     7     6    1
    65     2     5    1
    66     2     3    1
    67     6     5    1
    68    31    30    1
    69    34    33    1
    70    13    10    1
    71     3     4    2
    72    33    32    1
    73    33    36    1
    74     9    10    1
    75    29    30   ar
    76    29    27   ar
    77    30    28   ar
    78    10    11    1
    79    36    37    1
    80    27    25   ar
    81    28    26   ar
    82    42    40    1
    83    11    12    2
    84    37    38    1
    85    39    40    2
    86    39    38    1
    87    26    25   ar
    88    25    24    1
    89    40    41    1
    90    24    21    1
    91    21    20    1
    92    21    22    1
    93    22    23    2
