@<TRIPOS>MOLECULE
tmp/4pl5D00.pdb
 173 163 0 0 0
SMALL
GASTEIGER

@<TRIPOS>ATOM
      1  N         38.8090   -0.1920  158.4070 N.3    17  LEU17      -0.1231
      2  CA        38.9220    0.0030  156.9640 C.3    17  LEU17       0.1693
      3  C         37.6420   -0.3970  156.2340 C.2    17  LEU17       0.2593
      4  O         37.4070    0.0180  155.0950 O.2    17  LEU17      -0.2718
      5  CB        40.1380   -0.7340  156.3980 C.3    17  LEU17       0.0284
      6  CG        41.4990   -0.1570  156.8040 C.3    17  LEU17       0.0019
      7  CD1       42.6350   -0.9340  156.1460 C.3    17  LEU17       0.0001
      8  CD2       41.5880    1.3400  156.4860 C.3    17  LEU17       0.0001
      9  N         36.8050   -1.1950  156.8830 N.am   18  GLY18      -0.1942
     10  CA        35.4800   -1.4150  156.3320 C.3    18  GLY18       0.2014
     11  C         34.8120   -2.7400  156.6300 C.2    18  GLY18       0.2639
     12  O         35.4580   -3.7880  156.6630 O.2    18  GLY18      -0.2714
     13  N         33.5010   -2.6840  156.8410 N.am   19  HIS19      -0.1959
     14  CA        32.7080   -3.8820  157.0530 C.3    19  HIS19       0.1787
     15  C         32.5490   -4.5770  155.7100 C.2    19  HIS19       0.2621
     16  O         32.4920   -3.9230  154.6720 O.2    19  HIS19      -0.2715
     17  CB        31.3270   -3.5270  157.6150 C.3    19  HIS19       0.0785
     18  CG        31.3650   -2.7230  158.8800 C.ar   19  HIS19       0.0821
     19  ND1       31.9550   -1.4800  158.9590 N.ar   19  HIS19      -0.2267
     20  CD2       30.8530   -2.9730  160.1090 C.ar   19  HIS19       0.1154
     21  CE1       31.8250   -1.0080  160.1860 C.ar   19  HIS19       0.1986
     22  NE2       31.1620   -1.8960  160.9040 N.ar   19  HIS19      -0.2212
     23  N         32.4710   -5.9020  155.7320 N.am   20  GLY20      -0.1940
     24  CA        32.2760   -6.6660  154.5140 C.3    20  GLY20       0.2014
     25  C         31.0280   -7.5280  154.5260 C.2    20  GLY20       0.2638
     26  O         30.0000   -7.1720  155.1120 O.2    20  GLY20      -0.2714
     27  N         31.1280   -8.6790  153.8730 N.am   21  ALA21      -0.1977
     28  CA        30.0010   -9.5920  153.7460 C.3    21  ALA21       0.1597
     29  C         29.8510  -10.4610  154.9870 C.2    21  ALA21       0.2287
     30  O         30.8340  -10.9970  155.4990 O.2    21  ALA21      -0.2864
     31  CB        30.1610  -10.4610  152.5010 C.3    21  ALA21       0.0319
     32  N         31.9430   -9.7090  158.3900 N.3    24  THR24      -0.1218
     33  CA        33.3950   -9.6440  158.2870 C.3    24  THR24       0.1862
     34  C         33.8850   -8.1910  158.2060 C.2    24  THR24       0.2287
     35  O         33.3500   -7.3930  157.4300 O.2    24  THR24      -0.2866
     36  CB        33.8920  -10.4580  157.0790 C.3    24  THR24       0.1770
     37  OG1       33.8750  -11.8520  157.4100 O.3    24  THR24      -0.2211
     38  CG2       35.3020  -10.0520  156.6910 C.3    24  THR24       0.0375
     39  N         37.3540   -5.3230  158.2200 N.3    26  VAL26      -0.1245
     40  CA        38.7720   -5.0880  157.9280 C.3    26  VAL26       0.1561
     41  C         39.3190   -3.8450  158.6280 C.2    26  VAL26       0.2260
     42  O         38.8000   -2.7320  158.4500 O.2    26  VAL26      -0.2867
     43  CB        39.0240   -4.9210  156.4170 C.3    26  VAL26       0.0252
     44  CG1       40.4110   -4.3540  156.1700 C.3    26  VAL26       0.0019
     45  CG2       38.8630   -6.2380  155.7060 C.3    26  VAL26       0.0019
     46  N         47.1040   -4.4560  155.8530 N.3    37  ALA37      -0.1245
     47  CA        45.6710   -4.5420  156.1260 C.3    37  ALA37       0.1562
     48  C         45.3370   -5.8940  156.7570 C.2    37  ALA37       0.2260
     49  O         45.8040   -6.9350  156.2830 O.2    37  ALA37      -0.2867
     50  CB        44.8660   -4.3430  154.8520 C.3    37  ALA37       0.0290
     51  N         42.2170   -8.4950  157.9980 N.3    39  LYS39      -0.1245
     52  CA        40.8190   -8.8410  157.8220 C.3    39  LYS39       0.1561
     53  C         40.3810   -9.8620  158.8620 C.2    39  LYS39       0.2260
     54  O         40.9370  -10.9650  158.9270 O.2    39  LYS39      -0.2867
     55  CB        40.6110   -9.4090  156.4220 C.3    39  LYS39       0.0271
     56  CG        39.1910   -9.8170  156.1200 C.3    39  LYS39       0.0035
     57  CD        39.0330  -10.2550  154.6660 C.3    39  LYS39       0.0206
     58  CE        38.7390   -9.0860  153.7290 C.3    39  LYS39       0.1093
     59  NZ        37.3770   -8.5130  153.9400 N.3    39  LYS39      -0.1314
     60  N         47.2620  -10.1350  144.4410 N.3    66  ILE66      -0.1245
     61  CA        47.7040   -9.8710  145.8100 C.3    66  ILE66       0.1561
     62  C         48.2140  -11.1410  146.5180 C.2    66  ILE66       0.2260
     63  O         47.7780  -12.2540  146.2120 O.2    66  ILE66      -0.2867
     64  CB        46.5990   -9.1570  146.6410 C.3    66  ILE66       0.0252
     65  CG1       47.2170   -8.0520  147.5130 C.3    66  ILE66       0.0019
     66  CG2       45.7670  -10.1700  147.4410 C.3    66  ILE66       0.0019
     67  CD1       46.2380   -6.9960  147.9870 C.3    66  ILE66       0.0001
     68  N         47.0140   -9.0420  154.6720 N.3    82  ILE82      -0.1231
     69  CA        47.2380   -8.8050  153.2460 C.3    82  ILE82       0.1692
     70  C         47.7280   -7.3830  153.0140 C.2    82  ILE82       0.2592
     71  O         47.5490   -6.5160  153.8750 O.2    82  ILE82      -0.2718
     72  CB        45.9400   -8.9970  152.4260 C.3    82  ILE82       0.0266
     73  CG1       45.0810  -10.1070  153.0230 C.3    82  ILE82       0.0019
     74  CG2       46.2520   -9.3080  150.9740 C.3    82  ILE82       0.0020
     75  CD1       45.7140  -11.4560  152.9170 C.3    82  ILE82       0.0001
     76  N         48.3320   -7.1500  151.8490 N.am   83  GLU83      -0.1966
     77  CA        48.8360   -5.8340  151.4740 C.3    83  GLU83       0.1733
     78  C         47.8250   -4.7140  151.6880 C.2    83  GLU83       0.2616
     79  O         46.7030   -4.7750  151.1830 O.2    83  GLU83      -0.2715
     80  CB        49.2690   -5.8240  150.0050 C.3    83  GLU83       0.0429
     81  CG        50.5230   -6.6210  149.6980 C.3    83  GLU83       0.1163
     82  CD        50.2310   -8.0670  149.3700 C.2    83  GLU83       0.3649
     83  OE1       49.2120   -8.5900  149.8680 O.co2  83  GLU83      -0.2457
     84  OE2       51.0190   -8.6690  148.6060 O.co2  83  GLU83      -0.2457
     85  N         48.2320   -3.6920  152.4370 N.am   84  LEU84      -0.1963
     86  CA        47.4280   -2.4870  152.5840 C.3    84  LEU84       0.1728
     87  C         47.3910   -1.7140  151.2750 C.2    84  LEU84       0.2616
     88  O         48.3870   -1.1150  150.8610 O.2    84  LEU84      -0.2715
     89  CB        47.9650   -1.5730  153.6880 C.3    84  LEU84       0.0311
     90  CG        47.1140   -0.3020  153.8420 C.3    84  LEU84       0.0022
     91  CD1       45.8930   -0.5820  154.7090 C.3    84  LEU84       0.0001
     92  CD2       47.8970    0.9000  154.3700 C.3    84  LEU84       0.0001
     93  N         46.2270   -1.7250  150.6330 N.am   85  CYS85      -0.1954
     94  CA        46.0300   -1.0060  149.3820 C.3    85  CYS85       0.1843
     95  C         45.3850    0.3570  149.6020 C.2    85  CYS85       0.2625
     96  O         44.7420    0.6030  150.6260 O.2    85  CYS85      -0.2714
     97  CB        45.2040   -1.8400  148.4050 C.3    85  CYS85       0.0997
     98  SG        46.0020   -3.3910  147.9410 S.3    85  CYS85      -0.0797
     99  N         45.5730    1.2430  148.6330 N.am   86  ALA86      -0.1963
    100  CA        45.0720    2.6040  148.7360 C.3    86  ALA86       0.1728
    101  C         43.5710    2.6590  148.5320 C.2    86  ALA86       0.2616
    102  O         42.8790    3.3600  149.2680 O.2    86  ALA86      -0.2715
    103  CB        45.7790    3.5180  147.7390 C.3    86  ALA86       0.0334
    104  N         43.0670    1.9200  147.5430 N.am   87  ALA87      -0.1963
    105  CA        41.6380    1.9810  147.2400 C.3    87  ALA87       0.1728
    106  C         41.1410    0.8280  146.3720 C.2    87  ALA87       0.2616
    107  O         41.9090   -0.0340  145.9670 O.2    87  ALA87      -0.2715
    108  CB        41.2960    3.3220  146.5950 C.3    87  ALA87       0.0334
    109  N         39.8390    0.8150  146.1080 N.am   88  THR88      -0.1951
    110  CA        39.2460   -0.1730  145.2200 C.3    88  THR88       0.1897
    111  C         38.7000    0.5480  144.0010 C.2    88  THR88       0.2313
    112  O         38.5910    1.7790  144.0070 O.2    88  THR88      -0.2863
    113  CB        38.1060   -0.9430  145.9070 C.3    88  THR88       0.1794
    114  OG1       37.8900   -2.1800  145.2200 O.3    88  THR88      -0.2208
    115  CG2       36.8100   -0.1180  145.9230 C.3    88  THR88       0.0378
    116  N         36.3360    3.7130  144.1190 N.3    91  GLU91      -0.1245
    117  CA        36.9050    5.0220  144.3540 C.3    91  GLU91       0.1567
    118  C         37.4550    5.5960  143.0530 C.2    91  GLU91       0.2260
    119  O         37.2710    6.7820  142.7850 O.2    91  GLU91      -0.2867
    120  CB        38.0050    4.9670  145.4180 C.3    91  GLU91       0.0388
    121  CG        37.5140    4.8180  146.8540 C.3    91  GLU91       0.1160
    122  CD        37.3300    3.3690  147.2580 C.2    91  GLU91       0.3649
    123  OE1       36.3210    3.0530  147.9230 O.co2  91  GLU91      -0.2457
    124  OE2       38.1990    2.5460  146.9140 O.co2  91  GLU91      -0.2457
    125  N         34.5380   -8.5320  141.6810 N.3   130  LYS130     -0.1245
    126  CA        33.7800   -7.2890  141.7310 C.3   130  LYS130      0.1561
    127  C         34.7760   -6.1630  141.9660 C.2   130  LYS130      0.2260
    128  O         35.9390   -6.4460  142.2570 O.2   130  LYS130     -0.2867
    129  CB        32.7410   -7.3520  142.8620 C.3   130  LYS130      0.0271
    130  CG        33.3360   -7.3930  144.2610 C.3   130  LYS130      0.0035
    131  CD        32.2430   -7.4990  145.3170 C.3   130  LYS130      0.0206
    132  CE        32.4720   -8.6970  146.2190 C.3   130  LYS130      0.1093
    133  NZ        31.3970   -8.8030  147.2340 N.3   130  LYS130     -0.1314
    134  N         35.0480   -4.1230  144.5140 N.3   132  HIS132     -0.1226
    135  CA        35.5580   -4.2410  145.8740 C.3   132  HIS132      0.1752
    136  C         36.7620   -5.1800  145.9410 C.2   132  HIS132      0.2596
    137  O         37.7270   -4.8980  146.6400 O.2   132  HIS132     -0.2718
    138  CB        34.4480   -4.6890  146.8300 C.3   132  HIS132      0.0759
    139  CG        33.9190   -3.5920  147.7040 C.ar  132  HIS132      0.0818
    140  ND1       34.0470   -2.2510  147.3830 N.ar  132  HIS132     -0.2268
    141  CD2       33.2710   -3.6300  148.8890 C.ar  132  HIS132      0.1154
    142  CE1       33.4970   -1.5210  148.3320 C.ar  132  HIS132      0.1986
    143  NE2       33.0150   -2.3310  149.2610 N.ar  132  HIS132     -0.2212
    144  N         36.7160   -6.2780  145.1940 N.am  133  ASN133     -0.1974
    145  CA        37.7880   -7.2760  145.2450 C.3   133  ASN133      0.1688
    146  C         38.9190   -7.0770  144.2340 C.2   133  ASN133      0.2292
    147  O         39.8030   -7.9280  144.1030 O.2   133  ASN133     -0.2864
    148  CB        37.2200   -8.6950  145.1670 C.3   133  ASN133      0.1181
    149  CG        36.5470   -9.1130  146.4590 C.2   133  ASN133      0.2629
    150  OD1       36.8290   -8.5530  147.5180 O.2   133  ASN133     -0.2716
    151  ND2       35.6570  -10.0960  146.3840 N.am  133  ASN133     -0.0877
    152  N         41.7460   -4.2270  143.7020 N.3   135  LEU135     -0.1245
    153  CA        42.3100   -3.1600  144.5270 C.3   135  LEU135      0.1561
    154  C         43.5200   -2.4360  143.9220 C.2   135  LEU135      0.2260
    155  O         44.5110   -3.0650  143.5670 O.2   135  LEU135     -0.2867
    156  CB        42.7280   -3.7540  145.8770 C.3   135  LEU135      0.0270
    157  CG        41.5910   -4.3300  146.7130 C.3   135  LEU135      0.0019
    158  CD1       42.1110   -5.0190  147.9580 C.3   135  LEU135      0.0001
    159  CD2       40.6260   -3.2160  147.0750 C.3   135  LEU135      0.0001
    160  N         42.0260   -9.3310  144.7320 N.3   150  SER150     -0.1202
    161  CA        42.0170   -9.7320  146.1440 C.3   150  SER150      0.2020
    162  C         40.8040  -10.5760  146.5730 C.2   150  SER150      0.2618
    163  O         39.9030  -10.8410  145.7720 O.2   150  SER150     -0.2717
    164  CB        42.1290   -8.4900  147.0300 C.3   150  SER150      0.2103
    165  OG        41.5860   -8.7290  148.3180 O.3   150  SER150     -0.2182
    166  N         40.8040  -10.9890  147.8430 N.am  151  ASP151     -0.1973
    167  CA        39.7080  -11.7590  148.4560 C.3   151  ASP151      0.1709
    168  C         39.4450  -13.1050  147.7890 C.2   151  ASP151      0.2293
    169  O         38.2950  -13.5520  147.7190 O.2   151  ASP151     -0.2864
    170  CB        38.3940  -10.9650  148.4820 C.3   151  ASP151      0.1436
    171  CG        38.3690   -9.8730  149.5430 C.2   151  ASP151      0.3671
    172  OD1       39.4160   -9.2390  149.8040 O.co2 151  ASP151     -0.2456
    173  OD2       37.2720   -9.6310  150.0920 O.co2 151  ASP151     -0.2456
@<TRIPOS>BOND
     1   125   126    1
     2   126   127    1
     3   126   129    1
     4   127   128    2
     5   119   118    2
     6   129   130    1
     7   118   117    1
     8   155   154    2
     9   152   153    1
    10   154   153    1
    11   111   112    2
    12   111   110    1
    13   147   146    2
    14   116   117    1
    15   146   145    1
    16   130   131    1
    17   117   120    1
    18    60    61    1
    19   134   135    1
    20   153   156    1
    21   160   161    1
    22   148   145    1
    23   148   149    1
    24   144   145    1
    25   144   136   am
    26   110   113    1
    27   110   109    1
    28   114   113    1
    29   131   132    1
    30   120   121    1
    31   163   162    2
    32    61    62    1
    33    61    64    1
    34   135   136    1
    35   135   138    1
    36   156   157    1
    37   113   115    1
    38   136   137    2
    39   107   106    2
    40   109   106   am
    41   161   162    1
    42   161   164    1
    43    63    62    2
    44   132   133    1
    45   106   105    1
    46   151   149   am
    47   149   150    2
    48   162   166   am
    49   108   105    1
    50    64    66    1
    51    64    65    1
    52   157   159    1
    53   157   158    1
    54   138   139    1
    55   121   122    1
    56   124   122   ar
    57   164   165    1
    58   105   104    1
    59   122   123   ar
    60   140   139   ar
    61   140   142   ar
    62    65    67    1
    63   104   101   am
    64   139   141   ar
    65   169   168    2
    66   103   100    1
    67   168   167    1
    68   166   167    1
    69    98    97    1
    70   142   143   ar
    71    97    94    1
    72   167   170    1
    73   170   171    1
    74   101   100    1
    75   101   102    2
    76    84    82   ar
    77    99   100    1
    78    99    95   am
    79   141   143   ar
    80    82    81    1
    81    82    83   ar
    82    94    95    1
    83    94    93    1
    84   171   172   ar
    85   171   173   ar
    86    95    96    2
    87    81    80    1
    88    80    77    1
    89    93    87   am
    90    88    87    2
    91    74    72    1
    92    79    78    2
    93    87    86    1
    94    77    78    1
    95    77    76    1
    96    78    85   am
    97    76    70   am
    98    72    73    1
    99    72    69    1
   100    85    86    1
   101    31    28    1
   102    86    89    1
   103    75    73    1
   104    70    69    1
   105    70    71    2
   106    69    68    1
   107    89    90    1
   108    58    59    1
   109    58    57    1
   110    28    27    1
   111    28    29    1
   112    90    92    1
   113    90    91    1
   114    27    25   am
   115    24    25    1
   116    24    23    1
   117    25    26    2
   118    57    56    1
   119    16    15    2
   120    50    47    1
   121    29    30    2
   122     4     3    2
   123    45    43    1
   124    15    23   am
   125    15    14    1
   126    46    47    1
   127    56    55    1
   128    47    48    1
   129     7     6    1
   130    44    43    1
   131     3     9   am
   132     3     2    1
   133    49    48    2
   134    10    11    1
   135    10     9    1
   136     5     6    1
   137     5     2    1
   138    43    40    1
   139    55    52    1
   140     8     6    1
   141    11    12    2
   142    11    13   am
   143    38    36    1
   144    13    14    1
   145     2     1    1
   146    14    17    1
   147    36    37    1
   148    36    33    1
   149    35    34    2
   150    17    18    1
   151    52    51    1
   152    52    53    1
   153    40    39    1
   154    40    41    1
   155    34    33    1
   156    33    32    1
   157    42    41    2
   158    53    54    2
   159    18    19   ar
   160    18    20   ar
   161    19    21   ar
   162    20    22   ar
   163    21    22   ar
