@<TRIPOS>MOLECULE
tmp/4pl5B00.pdb
 87 83 0 0 0
SMALL
GASTEIGER

@<TRIPOS>ATOM
      1  N         87.8200  -21.4430   75.8410 N.3   308  LEU308     -0.1245
      2  CA        87.3730  -20.7250   77.0280 C.3   308  LEU308      0.1561
      3  C         88.4100  -20.6720   78.1480 C.2   308  LEU308      0.2260
      4  O         88.5490  -19.6510   78.8080 O.2   308  LEU308     -0.2867
      5  CB        86.0420  -21.2800   77.5210 C.3   308  LEU308      0.0270
      6  CG        84.9300  -20.8910   76.5520 C.3   308  LEU308      0.0019
      7  CD1       83.5700  -21.2450   77.1090 C.3   308  LEU308      0.0001
      8  CD2       85.0210  -19.4080   76.2130 C.3   308  LEU308      0.0001
      9  N         90.7720  -18.0560   77.3820 N.3   311  PHE311     -0.1241
     10  CA        90.2810  -16.6860   77.6090 C.3   311  PHE311      0.1605
     11  C         89.8040  -16.3530   79.0330 C.2   311  PHE311      0.2264
     12  O         90.1750  -15.3230   79.5950 O.2   311  PHE311     -0.2867
     13  CB        89.1830  -16.3460   76.5960 C.3   311  PHE311      0.0534
     14  CG        89.6410  -16.4360   75.1680 C.ar  311  PHE311     -0.0203
     15  CD1       90.7360  -15.7040   74.7340 C.ar  311  PHE311     -0.0042
     16  CD2       88.9900  -17.2610   74.2640 C.ar  311  PHE311     -0.0042
     17  CE1       91.1710  -15.7930   73.4240 C.ar  311  PHE311     -0.0003
     18  CE2       89.4190  -17.3550   72.9540 C.ar  311  PHE311     -0.0003
     19  CZ        90.5090  -16.6190   72.5320 C.ar  311  PHE311     -0.0000
     20  N         88.9970  -16.0010   83.0580 N.3   313  THR313     -0.1203
     21  CA        87.9050  -14.9920   83.1940 C.3   313  THR313      0.1994
     22  C         86.3740  -15.2640   83.1210 C.2   313  THR313      0.2617
     23  O         85.5840  -14.3180   83.0440 O.2   313  THR313     -0.2717
     24  CB        88.2360  -13.6410   82.4990 C.3   313  THR313      0.1784
     25  OG1       87.5990  -12.5900   83.2320 O.3   313  THR313     -0.2211
     26  CG2       87.7690  -13.6010   81.0370 C.3   313  THR313      0.0376
     27  N         85.9540  -16.5200   83.2090 N.am  314  TYR314     -0.1975
     28  CA        84.5340  -16.8640   83.2530 C.3   314  TYR314      0.1639
     29  C         84.3120  -17.7580   84.4620 C.2   314  TYR314      0.2290
     30  O         84.8070  -18.8880   84.4890 O.2   314  TYR314     -0.2864
     31  CB        84.1210  -17.6340   82.0010 C.3   314  TYR314      0.0560
     32  CG        83.9640  -16.8200   80.7320 C.ar  314  TYR314     -0.0198
     33  CD1       83.3740  -15.5600   80.7460 C.ar  314  TYR314     -0.0009
     34  CD2       84.3870  -17.3330   79.5090 C.ar  314  TYR314     -0.0009
     35  CE1       83.2220  -14.8320   79.5760 C.ar  314  TYR314      0.0417
     36  CE2       84.2440  -16.6150   78.3450 C.ar  314  TYR314      0.0417
     37  CZ        83.6600  -15.3680   78.3800 C.ar  314  TYR314      0.1957
     38  OH        83.5210  -14.6610   77.2080 O.3   314  TYR314     -0.2866
     39  N         79.6130  -15.5260   77.6600 N.3   325  ALA325     -0.1245
     40  CA        80.4840  -16.3870   76.8670 C.3   325  ALA325      0.1562
     41  C         79.8280  -16.7580   75.5430 C.2   325  ALA325      0.2260
     42  O         80.5030  -16.8700   74.5150 O.2   325  ALA325     -0.2867
     43  CB        80.8470  -17.6440   77.6430 C.3   325  ALA325      0.0290
     44  N         79.7550  -13.5910   73.3390 N.3   328  ASN328     -0.1225
     45  CA        81.0970  -13.4300   72.7930 C.3   328  ASN328      0.1785
     46  C         81.3910  -14.4390   71.6760 C.2   328  ASN328      0.2597
     47  O         81.8990  -14.0600   70.6220 O.2   328  ASN328     -0.2718
     48  CB        82.1640  -13.5250   73.8890 C.3   328  ASN328      0.1169
     49  CG        82.0450  -12.4180   74.9060 C.2   328  ASN328      0.2627
     50  OD1       81.3230  -11.4470   74.6900 O.2   328  ASN328     -0.2716
     51  ND2       82.7580  -12.5480   76.0170 N.am  328  ASN328     -0.0877
     52  N         81.0810  -15.7150   71.9030 N.am  329  LYS329     -0.1980
     53  CA        81.3800  -16.7610   70.9240 C.3   329  LYS329      0.1596
     54  C         80.5410  -16.6170   69.6520 C.2   329  LYS329      0.2287
     55  O         80.9970  -16.9260   68.5530 O.2   329  LYS329     -0.2864
     56  CB        81.1850  -18.1490   71.5430 C.3   329  LYS329      0.0298
     57  CG        82.3300  -18.5890   72.3960 C.3   329  LYS329      0.0038
     58  CD        83.5620  -18.7060   71.5350 C.3   329  LYS329      0.0206
     59  CE        84.8530  -18.8630   72.3700 C.3   329  LYS329      0.1093
     60  NZ        85.7020  -17.6290   72.6090 N.3   329  LYS329     -0.1314
     61  N         82.0400  -13.3530   67.8000 N.3   332  HIS332     -0.1241
     62  CA        83.3440  -13.6060   67.2010 C.3   332  HIS332      0.1621
     63  C         83.4110  -14.9080   66.4190 C.2   332  HIS332      0.2264
     64  O         84.4950  -15.4090   66.1490 O.2   332  HIS332     -0.2867
     65  CB        84.4110  -13.6530   68.2930 C.3   332  HIS332      0.0745
     66  CG        84.7460  -12.3180   68.8670 C.ar  332  HIS332      0.0817
     67  ND1       85.3620  -11.3290   68.1340 N.ar  332  HIS332     -0.2268
     68  CD2       84.5650  -11.8120   70.1090 C.ar  332  HIS332      0.1154
     69  CE1       85.5370  -10.2650   68.8950 C.ar  332  HIS332      0.1986
     70  NE2       85.0640  -10.5330   70.0990 N.ar  332  HIS332     -0.2212
     71  N         85.8820  -15.6870   63.2510 N.3   335  GLU335     -0.1231
     72  CA        87.3150  -15.7240   63.5380 C.3   335  GLU335      0.1699
     73  C         87.6760  -16.7340   64.6240 C.2   335  GLU335      0.2592
     74  O         88.5260  -16.4600   65.4740 O.2   335  GLU335     -0.2718
     75  CB        87.8100  -14.3390   63.9420 C.3   335  GLU335      0.0402
     76  CG        87.8020  -13.3240   62.8140 C.3   335  GLU335      0.1161
     77  CD        89.0780  -13.3500   61.9840 C.2   335  GLU335      0.3649
     78  OE1       90.1020  -13.8770   62.4720 O.co2 335  GLU335     -0.2457
     79  OE2       89.0550  -12.8420   60.8410 O.co2 335  GLU335     -0.2457
     80  N         87.0310  -17.8980   64.5850 N.am  336  LEU336     -0.1980
     81  CA        87.2680  -18.9670   65.5540 C.3   336  LEU336      0.1596
     82  C         87.9330  -20.1810   64.9050 C.2   336  LEU336      0.2287
     83  O         87.7130  -20.4510   63.7260 O.2   336  LEU336     -0.2864
     84  CB        85.9460  -19.3860   66.2000 C.3   336  LEU336      0.0297
     85  CG        85.5950  -18.9200   67.6190 C.3   336  LEU336      0.0022
     86  CD1       86.1730  -17.5560   67.9570 C.3   336  LEU336      0.0001
     87  CD2       84.0840  -18.8970   67.7640 C.3   336  LEU336      0.0001
@<TRIPOS>BOND
     1    79    77   ar
     2    77    78   ar
     3    77    76    1
     4    76    75    1
     5    71    72    1
     6    72    75    1
     7    72    73    1
     8    83    82    2
     9    80    73   am
    10    80    81    1
    11    73    74    2
    12    82    81    1
    13    81    84    1
    14    64    63    2
    15    84    85    1
    16    63    62    1
    17    62    61    1
    18    62    65    1
    19    85    87    1
    20    85    86    1
    21    67    66   ar
    22    67    69   ar
    23    65    66    1
    24    55    54    2
    25    66    68   ar
    26    69    70   ar
    27    54    53    1
    28    70    68   ar
    29    47    46    2
    30    53    56    1
    31    53    52    1
    32    58    59    1
    33    58    57    1
    34    56    57    1
    35    46    52   am
    36    46    45    1
    37    59    60    1
    38    19    18   ar
    39    19    17   ar
    40    45    44    1
    41    45    48    1
    42    18    16   ar
    43    17    15   ar
    44    48    49    1
    45    16    14   ar
    46    42    41    2
    47    50    49    2
    48    15    14   ar
    49    49    51   am
    50    14    13    1
    51    41    40    1
    52     1     2    1
    53     8     6    1
    54     6     7    1
    55     6     5    1
    56    13    10    1
    57    40    43    1
    58    40    39    1
    59     2     5    1
    60     2     3    1
    61    38    37    1
    62     9    10    1
    63    10    11    1
    64     3     4    2
    65    36    37   ar
    66    36    34   ar
    67    37    35   ar
    68    11    12    2
    69    34    32   ar
    70    35    33   ar
    71    32    33   ar
    72    32    31    1
    73    26    24    1
    74    31    28    1
    75    24    21    1
    76    24    25    1
    77    23    22    2
    78    20    21    1
    79    22    21    1
    80    22    27   am
    81    27    28    1
    82    28    29    1
    83    29    30    2
