@<TRIPOS>MOLECULE
tmp/4pl7A00.pdb
 186 177 0 0 0
SMALL
GASTEIGER

@<TRIPOS>ATOM
      1  N         -3.4170   -9.7570   19.2750 N.3     7  ASP7       -0.1225
      2  CA        -2.1390   -9.3430   18.7590 C.3     7  ASP7        0.1805
      3  C         -2.3760   -8.6500   17.4190 C.2     7  ASP7        0.2598
      4  O         -2.6420   -9.2940   16.3920 O.2     7  ASP7       -0.2718
      5  CB        -1.2260  -10.5560   18.5940 C.3     7  ASP7        0.1424
      6  CG         0.1440  -10.2010   18.0410 C.2     7  ASP7        0.3668
      7  OD1        0.5740   -9.0360   18.1330 O.co2   7  ASP7       -0.2456
      8  OD2        0.7870  -11.1050   17.4840 O.co2   7  ASP7       -0.2456
      9  N         -2.2600   -7.3260   17.4340 N.am    8  ASN8       -0.1960
     10  CA        -2.3950   -6.5240   16.2200 C.3     8  ASN8        0.1819
     11  C         -1.0650   -6.2750   15.5140 C.2     8  ASN8        0.2622
     12  O         -0.1420   -5.7150   16.0890 O.2     8  ASN8       -0.2715
     13  CB        -3.0880   -5.2040   16.5430 C.3     8  ASN8        0.1195
     14  CG        -4.5930   -5.3790   16.8360 C.2     8  ASN8        0.2630
     15  OD1       -5.0920   -4.9510   17.8770 O.2     8  ASN8       -0.2716
     16  ND2       -5.3050   -6.0160   15.9230 N.am    8  ASN8       -0.0877
     17  N         -0.9350   -6.8050   14.3020 N.am    9  GLY9       -0.1940
     18  CA         0.2510   -6.5720   13.4810 C.3     9  GLY9        0.2014
     19  C          0.0630   -5.6130   12.2990 C.2     9  GLY9        0.2640
     20  O         -1.0710   -5.2570   11.9420 O.2     9  GLY9       -0.2714
     21  N          1.1670   -5.2430   11.6530 N.am   10  SER10      -0.1935
     22  CA         1.1200   -4.3600   10.5000 C.3    10  SER10       0.2055
     23  C          0.2870   -4.9370    9.3750 C.2    10  SER10       0.2644
     24  O         -0.5130   -4.2140    8.7470 O.2    10  SER10      -0.2714
     25  CB         2.5280   -4.1010    9.9730 C.3    10  SER10       0.2130
     26  OG         3.4290   -3.7080   10.9960 O.3    10  SER10      -0.2179
     27  N          0.4860   -6.2310    9.1140 N.am   11  GLY11      -0.1939
     28  CA        -0.2730   -6.9140    8.0890 C.3    11  GLY11       0.2014
     29  C         -1.3900   -7.7930    8.5910 C.2    11  GLY11       0.2638
     30  O         -2.4550   -7.8760    7.9580 O.2    11  GLY11      -0.2714
     31  N         -1.1780   -8.4420    9.7310 N.am   12  MET12      -0.1976
     32  CA        -2.1650   -9.4240   10.1750 C.3    12  MET12       0.1605
     33  C         -2.6460   -9.2210   11.6070 C.2    12  MET12       0.2287
     34  O         -1.8600   -8.9690   12.5160 O.2    12  MET12      -0.2864
     35  CB        -1.6100  -10.8640   10.0290 C.3    12  MET12       0.0413
     36  CG        -1.2240  -11.2660    8.6060 C.3    12  MET12       0.0598
     37  SD        -2.6460  -11.4790    7.4930 S.3    12  MET12      -0.1393
     38  CE        -3.2790  -13.1140    7.8890 C.3    12  MET12       0.0692
     39  N         -4.2230  -11.0800   14.7970 N.3    14  LYS14      -0.1245
     40  CA        -4.3100  -12.3910   15.4410 C.3    14  LYS14       0.1561
     41  C         -5.1210  -12.3260   16.7200 C.2    14  LYS14       0.2260
     42  O         -4.7210  -11.6710   17.6590 O.2    14  LYS14      -0.2867
     43  CB        -2.9270  -12.9170   15.7970 C.3    14  LYS14       0.0271
     44  CG        -2.1910  -13.6370   14.7120 C.3    14  LYS14       0.0035
     45  CD        -1.4180  -12.7100   13.7710 C.3    14  LYS14       0.0206
     46  CE        -0.4720  -11.7500   14.4800 C.3    14  LYS14       0.1093
     47  NZ         0.2550  -10.8850   13.4830 N.3    14  LYS14      -0.1314
     48  N          4.0760   -1.4440   12.6600 N.3    55  GLY55      -0.1225
     49  CA         3.7410   -1.8710   14.0090 C.3    55  GLY55       0.1811
     50  C          3.2510   -0.8020   14.9790 C.2    55  GLY55       0.2280
     51  O          2.9690   -1.1160   16.1400 O.2    55  GLY55      -0.2866
     52  N          5.5010   -7.1470   22.4400 N.3   118  GLN118     -0.1245
     53  CA         5.3950   -8.3650   21.6360 C.3   118  GLN118      0.1566
     54  C          6.5630   -9.3240   21.7870 C.2   118  GLN118      0.2260
     55  O          6.3680  -10.5190   22.0390 O.2   118  GLN118     -0.2867
     56  CB         5.2050   -8.0080   20.1560 C.3   118  GLN118      0.0367
     57  CG         3.8460   -7.4100   19.8990 C.3   118  GLN118      0.0905
     58  CD         3.8250   -6.3890   18.8110 C.2   118  GLN118      0.2608
     59  OE1        4.8580   -6.0400   18.2400 O.2   118  GLN118     -0.2717
     60  NE2        2.6340   -5.8960   18.5070 N.am  118  GLN118     -0.0878
     61  N         12.2180  -10.4600   15.9040 N.3   135  ASP135     -0.1239
     62  CA        10.7790  -10.4140   15.6240 C.3   135  ASP135      0.1674
     63  C         10.5890   -9.7150   14.3150 C.2   135  ASP135      0.2266
     64  O         10.5950   -8.4740   14.2330 O.2   135  ASP135     -0.2867
     65  CB        10.0580   -9.6760   16.7620 C.3   135  ASP135      0.1410
     66  CG         8.5590   -9.9300   16.8070 C.2   135  ASP135      0.3668
     67  OD1        8.0850  -11.0690   16.6090 O.co2 135  ASP135     -0.2456
     68  OD2        7.8440   -8.9580   17.1050 O.co2 135  ASP135     -0.2456
     69  N          8.0910   -9.1640   11.1710 N.3   137  GLY137     -0.1210
     70  CA         6.7460   -9.3050   10.6410 C.3   137  GLY137      0.1956
     71  C          6.6230   -8.7850    9.2280 C.2   137  GLY137      0.2612
     72  O          7.6120   -8.8050    8.4930 O.2   137  GLY137     -0.2717
     73  N          5.4150   -8.3670    8.8520 N.am  138  ASP138     -0.1959
     74  CA         5.1540   -7.6890    7.5850 C.3   138  ASP138      0.1840
     75  C          5.7160   -6.2810    7.4240 C.2   138  ASP138      0.2623
     76  O          6.1790   -5.9380    6.3360 O.2   138  ASP138     -0.2715
     77  CB         3.6380   -7.6440    7.3490 C.3   138  ASP138      0.1450
     78  CG         3.2790   -7.4320    5.9020 C.2   138  ASP138      0.3671
     79  OD1        3.4870   -8.3540    5.0910 O.co2 138  ASP138     -0.2456
     80  OD2        2.8560   -6.3000    5.5660 O.co2 138  ASP138     -0.2456
     81  N          5.6510   -5.4590    8.4600 N.am  139  GLY139     -0.1940
     82  CA         6.0160   -4.0610    8.2900 C.3   139  GLY139      0.2014
     83  C          7.2550   -3.6120    9.0580 C.2   139  GLY139      0.2638
     84  O          7.8070   -2.5140    8.8120 O.2   139  GLY139     -0.2714
     85  N          7.6790   -4.4200   10.0300 N.am  140  VAL140     -0.1977
     86  CA         8.8280   -4.0260   10.8370 C.3   140  VAL140      0.1596
     87  C          9.5690   -5.2190   11.4200 C.2   140  VAL140      0.2287
     88  O          8.9820   -6.2550   11.6880 O.2   140  VAL140     -0.2864
     89  CB         8.3630   -3.0440   11.9700 C.3   140  VAL140      0.0276
     90  CG1        7.5910   -3.7950   13.0630 C.3   140  VAL140      0.0022
     91  CG2        9.5250   -2.2170   12.5100 C.3   140  VAL140      0.0022
     92  N          8.5200   -8.2150    5.7530 N.3   163  GLY163     -0.1225
     93  CA         7.8220   -9.0160    4.7650 C.3   163  GLY163      0.1811
     94  C          7.2640   -8.1940    3.6240 C.2   163  GLY163      0.2280
     95  O          7.1930   -8.6740    2.4980 O.2   163  GLY163     -0.2866
     96  N          3.0000  -12.1950   -2.6900 N.3   191  ARG191     -0.1245
     97  CA         3.1310  -12.5450   -1.2630 C.3   191  ARG191      0.1563
     98  C          2.9760  -14.0520   -1.0700 C.2   191  ARG191      0.2260
     99  O          3.8100  -14.6880   -0.4300 O.2   191  ARG191     -0.2867
    100  CB         2.1090  -11.7890   -0.3920 C.3   191  ARG191      0.0307
    101  CG         2.1560  -12.1870    1.1040 C.3   191  ARG191      0.0489
    102  CD         1.0560  -11.5210    1.9580 C.3   191  ARG191      0.2205
    103  NE        -0.2850  -11.7830    1.4480 N.pl3 191  ARG191     -0.0865
    104  CZ        -0.8940  -12.9650    1.4960 C.cat 191  ARG191      0.5346
    105  NH1       -0.2960  -14.0100    2.0730 N.pl3 191  ARG191      0.1354
    106  NH2       -2.1140  -13.0940    0.9810 N.pl3 191  ARG191      0.1354
    107  N          5.9590  -15.9060   -2.4300 N.3   194  LYS194     -0.1231
    108  CA         7.0040  -15.7540   -1.4320 C.3   194  LYS194      0.1693
    109  C          6.8620  -16.7740   -0.2920 C.2   194  LYS194      0.2591
    110  O          7.7840  -17.5220   -0.0000 O.2   194  LYS194     -0.2718
    111  CB         6.9790  -14.3310   -0.8820 C.3   194  LYS194      0.0285
    112  CG         7.9330  -14.0560    0.2280 C.3   194  LYS194      0.0035
    113  CD         7.6700  -12.6940    0.8150 C.3   194  LYS194      0.0206
    114  CE         6.4480  -12.7460    1.7040 C.3   194  LYS194      0.1093
    115  NZ         6.3580  -11.5640    2.5780 N.3   194  LYS194     -0.1314
    116  N          5.6890  -16.8220    0.3220 N.am  195  GLU195     -0.1979
    117  CA         5.4370  -17.7060    1.4630 C.3   195  GLU195      0.1602
    118  C          5.5800  -19.1950    1.1300 C.2   195  GLU195      0.2287
    119  O          5.8800  -20.0140    2.0080 O.2   195  GLU195     -0.2864
    120  CB         4.0260  -17.4380    2.0340 C.3   195  GLU195      0.0415
    121  CG         3.7580  -16.0060    2.4500 C.3   195  GLU195      0.1163
    122  CD         2.3970  -15.8070    3.0880 C.2   195  GLU195      0.3649
    123  OE1        1.6630  -16.8010    3.2430 O.co2 195  GLU195     -0.2457
    124  OE2        2.0630  -14.6560    3.4460 O.co2 195  GLU195     -0.2457
    125  N          7.7650  -14.3650   14.3770 N.3   282  GLY282     -0.1210
    126  CA         7.1730  -13.5520   13.3370 C.3   282  GLY282      0.1956
    127  C          7.2030  -14.2770   12.0190 C.2   282  GLY282      0.2612
    128  O          7.9980  -15.1830   11.8010 O.2   282  GLY282     -0.2717
    129  N          6.3550  -13.8430   11.1100 N.am  283  GLY283     -0.1942
    130  CA         6.1090  -14.6190    9.9240 C.3   283  GLY283      0.2014
    131  C          7.2800  -14.5880    8.9730 C.2   283  GLY283      0.2639
    132  O          7.5350  -15.5290    8.2660 O.2   283  GLY283     -0.2714
    133  N          8.0040  -13.4900    8.9540 N.am  284  THR284     -0.1950
    134  CA         9.1350  -13.3750    8.0580 C.3   284  THR284      0.1897
    135  C         10.2440  -14.3700    8.4310 C.2   284  THR284      0.2313
    136  O         11.0340  -14.7670    7.5680 O.2   284  THR284     -0.2863
    137  CB         9.6660  -11.9360    8.0530 C.3   284  THR284      0.1794
    138  OG1        8.6350  -11.0560    7.5970 O.3   284  THR284     -0.2208
    139  CG2       10.9000  -11.8050    7.1830 C.3   284  THR284      0.0378
    140  N          9.8920  -17.4250    8.9450 N.3   286  MET286     -0.1230
    141  CA         9.3600  -18.7410    8.5820 C.3   286  MET286      0.1702
    142  C         10.0430  -19.3440    7.3670 C.2   286  MET286      0.2592
    143  O          9.7840  -20.4930    7.0390 O.2   286  MET286     -0.2718
    144  CB         7.8610  -18.6580    8.3220 C.3   286  MET286      0.0401
    145  CG         7.0160  -18.4850    9.5650 C.3   286  MET286      0.0596
    146  SD         7.0510  -19.8780   10.7030 S.3   286  MET286     -0.1393
    147  CE         6.3950  -21.2080    9.7170 C.3   286  MET286      0.0692
    148  N         10.8780  -18.5650    6.6780 N.am  287  PHE287     -0.1963
    149  CA        11.5250  -19.0460    5.4510 C.3   287  PHE287      0.1756
    150  C         12.2870  -20.3170    5.7750 C.2   287  PHE287      0.2461
    151  O         12.9620  -20.3880    6.8010 O.2   287  PHE287     -0.2730
    152  CB        12.5060  -18.0360    4.8580 C.3   287  PHE287      0.0574
    153  CG        11.8630  -16.8900    4.1790 C.ar  287  PHE287     -0.0200
    154  CD1       11.2660  -17.0510    2.9630 C.ar  287  PHE287     -0.0042
    155  CD2       11.9100  -15.6400    4.7390 C.ar  287  PHE287     -0.0042
    156  CE1       10.6890  -15.9990    2.3420 C.ar  287  PHE287     -0.0003
    157  CE2       11.3420  -14.5860    4.1290 C.ar  287  PHE287     -0.0003
    158  CZ        10.7310  -14.7570    2.9270 C.ar  287  PHE287     -0.0000
    159  N         12.1690  -21.3320    4.9170 N.am  288  PRO288     -0.2727
    160  CA        13.0200  -22.5030    5.1180 C.3   288  PRO288      0.1402
    161  C         14.4740  -22.0670    5.1060 C.2   288  PRO288      0.2269
    162  O         14.8220  -21.2450    4.2730 O.2   288  PRO288     -0.2865
    163  CB        12.7140  -23.3660    3.8990 C.3   288  PRO288      0.0296
    164  CG        11.3330  -22.9900    3.5370 C.3   288  PRO288      0.0237
    165  CD        11.2080  -21.5210    3.8260 C.3   288  PRO288      0.0939
    166  N          5.5280  -18.2660   13.9220 N.3   317  LYS317     -0.1231
    167  CA         4.6940  -17.2610   13.3240 C.3   317  LYS317      0.1693
    168  C          3.7160  -16.6480   14.3320 C.2   317  LYS317      0.2592
    169  O          3.4000  -15.4580   14.2650 O.2   317  LYS317     -0.2718
    170  CB         3.9260  -17.8920   12.1920 C.3   317  LYS317      0.0285
    171  CG         2.9850  -16.9860   11.5000 C.3   317  LYS317      0.0035
    172  CD         2.0640  -17.8380   10.6860 C.3   317  LYS317      0.0206
    173  CE         2.3830  -17.6280    9.2440 C.3   317  LYS317      0.1093
    174  NZ         1.4610  -18.3740    8.3830 N.3   317  LYS317     -0.1314
    175  N          3.2450  -17.4600   15.2730 N.am  318  TYR318     -0.1976
    176  CA         2.2610  -16.9860   16.2460 C.3   318  TYR318      0.1639
    177  C          2.7680  -17.0430   17.6680 C.2   318  TYR318      0.2290
    178  O          1.9730  -17.2060   18.6000 O.2   318  TYR318     -0.2864
    179  CB         0.9770  -17.7930   16.1710 C.3   318  TYR318      0.0560
    180  CG         0.2930  -17.7650   14.8350 C.ar  318  TYR318     -0.0198
    181  CD1        0.1130  -16.5760   14.1540 C.ar  318  TYR318     -0.0009
    182  CD2       -0.2070  -18.9310   14.2720 C.ar  318  TYR318     -0.0009
    183  CE1       -0.5240  -16.5500   12.9410 C.ar  318  TYR318      0.0417
    184  CE2       -0.8420  -18.9130   13.0750 C.ar  318  TYR318      0.0417
    185  CZ        -1.0000  -17.7240   12.4080 C.ar  318  TYR318      0.1957
    186  OH        -1.6470  -17.7220   11.1980 O.3   318  TYR318     -0.2866
@<TRIPOS>BOND
     1    96    97    1
     2   107   108    1
     3   108   111    1
     4   108   109    1
     5    97    98    1
     6    97   100    1
     7    98    99    2
     8   111   112    1
     9   100   101    1
    10   109   110    2
    11   109   116   am
    12   112   113    1
    13   116   117    1
    14   113   114    1
    15   106   104    1
    16   101   102    1
    17   118   117    1
    18   118   119    2
    19   103   104    2
    20   103   102    1
    21   117   120    1
    22   104   105    1
    23   114   115    1
    24   120   121    1
    25   156   158   ar
    26   156   154   ar
    27   121   122    1
    28    95    94    2
    29   158   157   ar
    30   154   153   ar
    31   122   123   ar
    32   122   124   ar
    33   164   165    1
    34   164   163    1
    35    94    93    1
    36   165   159    1
    37   163   160    1
    38   157   155   ar
    39   153   155   ar
    40   153   152    1
    41   162   161    2
    42    93    92    1
    43   152   149    1
    44   159   160    1
    45   159   150   am
    46    79    78   ar
    47   161   160    1
    48   149   150    1
    49   149   148    1
    50    80    78   ar
    51   150   151    2
    52    78    77    1
    53    76    75    2
    54   148   142   am
    55   143   142    2
    56   139   137    1
    57    77    74    1
    58   142   141    1
    59    75    74    1
    60    75    81   am
    61    37    38    1
    62    37    36    1
    63   136   135    2
    64    74    73    1
    65   138   137    1
    66    30    29    2
    67   137   134    1
    68   134   135    1
    69   134   133    1
    70    28    29    1
    71    28    27    1
    72   132   131    2
    73    82    81    1
    74    82    83    1
    75   144   141    1
    76   144   145    1
    77   174   173    1
    78    72    71    2
    79   141   140    1
    80    29    31   am
    81    36    35    1
    82    24    23    2
    83    84    83    2
    84    73    71   am
    85   133   131   am
    86   131   130    1
    87    83    85   am
    88    27    23   am
    89    71    70    1
    90   173   172    1
    91    23    22    1
    92   145   146    1
    93   147   146    1
    94    31    32    1
    95   130   129    1
    96    25    22    1
    97    25    26    1
    98    35    32    1
    99    85    86    1
   100    32    33    1
   101    22    21    1
   102    70    69    1
   103   172   171    1
   104    86    87    1
   105    86    89    1
   106   129   127   am
   107   186   185    1
   108    87    88    2
   109   171   170    1
   110    33    34    2
   111    21    19   am
   112   128   127    2
   113    20    19    2
   114    89    91    1
   115    89    90    1
   116   127   126    1
   117   170   167    1
   118    19    18    1
   119   185   183   ar
   120   185   184   ar
   121    48    49    1
   122   183   181   ar
   123   184   182   ar
   124   167   166    1
   125   167   168    1
   126   126   125    1
   127    18    17    1
   128    47    46    1
   129    45    46    1
   130    45    44    1
   131    49    50    1
   132   181   180   ar
   133    64    63    2
   134   169   168    2
   135   182   180   ar
   136    17    11   am
   137    63    62    1
   138   168   175   am
   139    44    43    1
   140    39    40    1
   141   180   179    1
   142    50    51    2
   143   175   176    1
   144    40    43    1
   145    40    41    1
   146    11    12    2
   147    11    10    1
   148    62    61    1
   149    62    65    1
   150    16    14   am
   151   179   176    1
   152    10    13    1
   153    10     9    1
   154   176   177    1
   155     4     3    2
   156    13    14    1
   157    67    66   ar
   158    41    42    2
   159    65    66    1
   160    66    68   ar
   161    14    15    2
   162     3     9   am
   163     3     2    1
   164     8     6   ar
   165   177   178    2
   166     6     7   ar
   167     6     5    1
   168    59    58    2
   169    60    58   am
   170     5     2    1
   171     2     1    1
   172    58    57    1
   173    57    56    1
   174    56    53    1
   175    53    54    1
   176    53    52    1
   177    54    55    2
