@<TRIPOS>MOLECULE
tmp/4pl9A00.pdb
 144 133 0 0 0
SMALL
GASTEIGER

@<TRIPOS>ATOM
      1  N         -4.4310  -17.3960   17.2790 N.3    58  ASN58      -0.1225
      2  CA        -3.9870  -17.1650   18.6380 C.3    58  ASN58       0.1785
      3  C         -4.9320  -16.2860   19.4350 C.2    58  ASN58       0.2597
      4  O         -5.1040  -16.5260   20.6250 O.2    58  ASN58      -0.2718
      5  CB        -2.5690  -16.6360   18.7500 C.3    58  ASN58       0.1169
      6  CG        -2.1940  -16.3240   20.2000 C.2    58  ASN58       0.2627
      7  OD1       -2.1150  -17.2140   21.0840 O.2    58  ASN58      -0.2716
      8  ND2       -1.9860  -15.0450   20.4560 N.am   58  ASN58      -0.0877
      9  N         -5.5840  -15.3010   18.8170 N.am   59  ILE59      -0.1980
     10  CA        -6.4910  -14.4620   19.5820 C.3    59  ILE59       0.1595
     11  C         -7.8080  -15.1550   19.9040 C.2    59  ILE59       0.2287
     12  O         -8.3230  -15.0310   21.0170 O.2    59  ILE59      -0.2864
     13  CB        -6.7220  -13.0730   18.9270 C.3    59  ILE59       0.0276
     14  CG1       -5.4890  -12.1970   19.1780 C.3    59  ILE59       0.0022
     15  CG2       -7.8960  -12.4110   19.5330 C.3    59  ILE59       0.0022
     16  CD1       -5.2260  -11.2110   18.0870 C.3    59  ILE59       0.0001
     17  N         -6.8730  -17.7530   22.5260 N.3    62  ASN62      -0.1225
     18  CA        -6.7580  -17.1440   23.8480 C.3    62  ASN62       0.1785
     19  C         -8.0830  -16.9560   24.5500 C.2    62  ASN62       0.2597
     20  O         -8.1800  -17.1540   25.7740 O.2    62  ASN62      -0.2718
     21  CB        -6.0410  -15.8150   23.7680 C.3    62  ASN62       0.1169
     22  CG        -4.5430  -15.9820   23.6780 C.2    62  ASN62       0.2627
     23  OD1       -4.0110  -17.0210   24.0670 O.2    62  ASN62      -0.2716
     24  ND2       -3.8480  -14.9490   23.2080 N.am   62  ASN62      -0.0877
     25  N         -9.1000  -16.5500   23.7970 N.am   63  ALA63      -0.1979
     26  CA       -10.4310  -16.3510   24.3640 C.3    63  ALA63       0.1597
     27  C        -10.9480  -17.6520   24.9580 C.2    63  ALA63       0.2287
     28  O        -11.4970  -17.6610   26.0560 O.2    63  ALA63      -0.2864
     29  CB       -11.4050  -15.8200   23.3050 C.3    63  ALA63       0.0319
     30  N         -9.0060  -20.3060   25.7900 N.3    65  LYS65      -0.1231
     31  CA        -8.0640  -20.7030   26.8270 C.3    65  LYS65       0.1693
     32  C         -8.3040  -19.9990   28.1690 C.2    65  LYS65       0.2592
     33  O         -8.2640  -20.6400   29.2230 O.2    65  LYS65      -0.2718
     34  CB        -6.6490  -20.4210   26.3310 C.3    65  LYS65       0.0285
     35  CG        -5.5140  -20.8090   27.2550 C.3    65  LYS65       0.0035
     36  CD        -4.1980  -20.2850   26.6450 C.3    65  LYS65       0.0206
     37  CE        -2.9680  -20.6270   27.4690 C.3    65  LYS65       0.1093
     38  NZ        -1.7250  -20.0160   26.9050 N.3    65  LYS65      -0.1314
     39  N         -8.5380  -18.6830   28.1320 N.am   66  PHE66      -0.1976
     40  CA        -8.5980  -17.8900   29.3460 C.3    66  PHE66       0.1639
     41  C        -10.0090  -17.6750   29.8680 C.2    66  PHE66       0.2290
     42  O        -10.2080  -17.0240   30.8900 O.2    66  PHE66      -0.2864
     43  CB        -7.8960  -16.5600   29.1250 C.3    66  PHE66       0.0560
     44  CG        -6.4230  -16.7050   28.9800 C.ar   66  PHE66      -0.0200
     45  CD1       -5.6490  -17.1010   30.0670 C.ar   66  PHE66      -0.0042
     46  CD2       -5.8080  -16.4750   27.7580 C.ar   66  PHE66      -0.0042
     47  CE1       -4.2740  -17.2640   29.9420 C.ar   66  PHE66      -0.0003
     48  CE2       -4.4330  -16.6230   27.6190 C.ar   66  PHE66      -0.0003
     49  CZ        -3.6610  -17.0220   28.7160 C.ar   66  PHE66      -0.0000
     50  N        -14.2490  -12.0660   24.9900 N.3    92  ASP92      -0.1239
     51  CA       -14.4660  -13.2600   25.8100 C.3    92  ASP92       0.1674
     52  C        -15.1300  -12.9210   27.1290 C.2    92  ASP92       0.2266
     53  O        -15.4720  -11.7750   27.3930 O.2    92  ASP92      -0.2867
     54  CB       -13.1840  -14.0770   26.0050 C.3    92  ASP92       0.1410
     55  CG       -12.1540  -13.4130   26.9020 C.2    92  ASP92       0.3668
     56  OD1      -12.4920  -12.6050   27.7990 O.co2  92  ASP92      -0.2456
     57  OD2      -10.9680  -13.7700   26.7180 O.co2  92  ASP92      -0.2456
     58  N        -13.8300  -13.9320   30.2620 N.3    94  GLY94      -0.1225
     59  CA       -12.8940  -14.2360   31.3300 C.3    94  GLY94       0.1811
     60  C        -13.0700  -13.3630   32.5720 C.2    94  GLY94       0.2280
     61  O        -14.0250  -12.5910   32.7070 O.2    94  GLY94      -0.2866
     62  N        -11.3570  -10.9240   33.4750 N.3    96  GLY96      -0.1210
     63  CA       -10.9260   -9.5600   33.2390 C.3    96  GLY96       0.1956
     64  C         -9.4220   -9.4460   33.3620 C.2    96  GLY96       0.2611
     65  O         -8.7600  -10.3650   33.8550 O.2    96  GLY96      -0.2717
     66  N         -8.8830   -8.3290   32.8820 N.am   97  ILE97      -0.1979
     67  CA        -7.4490   -8.0550   32.9550 C.3    97  ILE97       0.1595
     68  C         -7.2120   -6.7210   33.6760 C.2    97  ILE97       0.2287
     69  O         -7.7950   -5.7000   33.2960 O.2    97  ILE97      -0.2864
     70  CB        -6.8140   -7.9940   31.5480 C.3    97  ILE97       0.0276
     71  CG1       -7.0690   -9.2870   30.7550 C.3    97  ILE97       0.0022
     72  CG2       -5.3180   -7.7530   31.6520 C.3    97  ILE97       0.0022
     73  CD1       -6.6440   -9.2230   29.3030 C.3    97  ILE97       0.0001
     74  N          1.4610   -6.7610   28.0780 N.3   105  ILE105     -0.1245
     75  CA         0.8640   -7.9940   27.5820 C.3   105  ILE105      0.1561
     76  C          1.5560   -8.5540   26.3420 C.2   105  ILE105      0.2260
     77  O          1.4650   -9.7530   26.0750 O.2   105  ILE105     -0.2867
     78  CB        -0.6440   -7.8250   27.2960 C.3   105  ILE105      0.0252
     79  CG1       -1.4270   -8.8660   28.0820 C.3   105  ILE105      0.0019
     80  CG2       -0.9210   -7.9390   25.8220 C.3   105  ILE105      0.0019
     81  CD1       -2.9070   -8.7310   27.9420 C.3   105  ILE105      0.0001
     82  N          5.2800  -10.1470   27.9270 N.3   108  LYS108     -0.1245
     83  CA         5.1340  -10.7870   29.2400 C.3   108  LYS108      0.1561
     84  C          6.1850  -11.8810   29.5530 C.2   108  LYS108      0.2260
     85  O          6.2040  -12.4410   30.6560 O.2   108  LYS108     -0.2867
     86  CB         3.7160  -11.3610   29.3690 C.3   108  LYS108      0.0271
     87  CG         3.1300  -11.2140   30.7610 C.3   108  LYS108      0.0035
     88  CD         1.9260  -12.1140   30.9710 C.3   108  LYS108      0.0206
     89  CE         1.5490  -12.1810   32.4430 C.3   108  LYS108      0.1093
     90  NZ         0.4920  -13.1950   32.7140 N.3   108  LYS108     -0.1314
     91  N          5.6730  -16.1920   30.4660 N.3   110  SER110     -0.1202
     92  CA         5.5560  -17.3270   29.5650 C.3   110  SER110      0.2020
     93  C          4.4650  -17.0800   28.5220 C.2   110  SER110      0.2619
     94  O          3.3330  -16.7490   28.8710 O.2   110  SER110     -0.2717
     95  CB         5.2380  -18.6030   30.3590 C.3   110  SER110      0.2103
     96  OG         3.8540  -18.6970   30.6720 O.3   110  SER110     -0.2182
     97  N          4.8040  -17.2330   27.2480 N.am  111  GLY111     -0.1942
     98  CA         3.8020  -17.2080   26.1810 C.3   111  GLY111      0.2014
     99  C          4.1890  -16.3280   24.9980 C.2   111  GLY111      0.2639
    100  O          4.6050  -15.2010   25.2030 O.2   111  GLY111     -0.2714
    101  N          4.0450  -16.8250   23.7690 N.am  112  LEU112     -0.1963
    102  CA         4.6540  -16.1750   22.6000 C.3   112  LEU112      0.1728
    103  C          3.6490  -15.6850   21.5490 C.2   112  LEU112      0.2617
    104  O          4.0260  -14.9570   20.6180 O.2   112  LEU112     -0.2715
    105  CB         5.6360  -17.1420   21.9120 C.3   112  LEU112      0.0311
    106  CG         6.9850  -17.4370   22.5810 C.3   112  LEU112      0.0022
    107  CD1        6.8610  -18.2950   23.8240 C.3   112  LEU112      0.0001
    108  CD2        7.9150  -18.1040   21.5920 C.3   112  LEU112      0.0001
    109  N          2.3840  -16.0770   21.7020 N.am  113  GLY113     -0.1940
    110  CA         1.3690  -15.8520   20.6930 C.3   113  GLY113      0.2014
    111  C          1.1760  -14.3950   20.2990 C.2   113  GLY113      0.2639
    112  O          1.1420  -14.0660   19.1040 O.2   113  GLY113     -0.2714
    113  N          1.0500  -13.5100   21.2910 N.am  114  LEU114     -0.1963
    114  CA         0.7430  -12.1220   21.0040 C.3   114  LEU114      0.1728
    115  C          1.9760  -11.3950   20.5000 C.2   114  LEU114      0.2616
    116  O          1.8600  -10.5140   19.6670 O.2   114  LEU114     -0.2715
    117  CB         0.1570  -11.4180   22.2250 C.3   114  LEU114      0.0311
    118  CG        -1.2930  -11.7560   22.5300 C.3   114  LEU114      0.0022
    119  CD1       -1.7340  -11.0680   23.7800 C.3   114  LEU114      0.0001
    120  CD2       -2.1850  -11.3980   21.3750 C.3   114  LEU114      0.0001
    121  N          3.1560  -11.7620   21.0000 N.am  115  ALA115     -0.1977
    122  CA         4.3940  -11.1690   20.4990 C.3   115  ALA115      0.1597
    123  C          4.5610  -11.4360   18.9970 C.2   115  ALA115      0.2287
    124  O          4.9420  -10.5420   18.2130 O.2   115  ALA115     -0.2864
    125  CB         5.5740  -11.6930   21.2680 C.3   115  ALA115      0.0319
    126  N         -5.3290   -4.9570   23.2880 N.3   130  ILE130     -0.1245
    127  CA        -6.2750   -5.6270   24.1350 C.3   130  ILE130      0.1561
    128  C         -6.8030   -4.6360   25.1500 C.2   130  ILE130      0.2260
    129  O         -6.0840   -3.7480   25.6000 O.2   130  ILE130     -0.2867
    130  CB        -5.6180   -6.8400   24.8530 C.3   130  ILE130      0.0252
    131  CG1       -5.1580   -7.8500   23.8010 C.3   130  ILE130      0.0019
    132  CG2       -6.5730   -7.4320   25.8610 C.3   130  ILE130      0.0019
    133  CD1       -4.6260   -9.1770   24.3870 C.3   130  ILE130      0.0001
    134  N        -12.3500   -9.6240   28.3310 N.3   139  CYS139     -0.1235
    135  CA       -11.5660   -8.6500   27.5860 C.3   139  CYS139      0.1677
    136  C        -11.9700   -8.7130   26.1300 C.2   139  CYS139      0.2270
    137  O        -12.6660   -9.6400   25.7070 O.2   139  CYS139     -0.2867
    138  CB       -10.0700   -8.9450   27.7090 C.3   139  CYS139      0.0956
    139  SG        -9.5170  -10.3940   26.8000 S.3   139  CYS139     -0.0801
    140  N         -9.9330   -8.4340   22.3880 N.3   141  ALA141     -0.1245
    141  CA        -8.7170   -8.2730   21.6220 C.3   141  ALA141      0.1562
    142  C         -9.1370   -7.7920   20.2350 C.2   141  ALA141      0.2260
    143  O        -10.0440   -8.3500   19.6280 O.2   141  ALA141     -0.2867
    144  CB        -7.9390   -9.5840   21.5370 C.3   141  ALA141      0.0290
@<TRIPOS>BOND
     1     1     2    1
     2    16    14    1
     3   124   123    2
     4     2     5    1
     5     2     3    1
     6     5     6    1
     7     9     3   am
     8     9    10    1
     9    13    14    1
    10    13    15    1
    11    13    10    1
    12   123   122    1
    13   112   111    2
    14     3     4    2
    15    10    11    1
    16   143   142    2
    17   116   115    2
    18    11    12    2
    19     6     8   am
    20     6     7    2
    21   142   141    1
    22   111   110    1
    23   111   113   am
    24   122   121    1
    25   122   125    1
    26   115   121   am
    27   115   114    1
    28   104   103    2
    29   110   109    1
    30   114   113    1
    31   114   117    1
    32   120   118    1
    33   144   141    1
    34   103   109   am
    35   103   102    1
    36   108   106    1
    37   141   140    1
    38   105   106    1
    39   105   102    1
    40   117   118    1
    41    17    18    1
    42   118   119    1
    43   106   107    1
    44   102   101    1
    45    24    22   am
    46   126   127    1
    47    29    26    1
    48    22    21    1
    49    22    23    2
    50    21    18    1
    51   101    99   am
    52    25    26    1
    53    25    19   am
    54   131   133    1
    55   131   130    1
    56    18    19    1
    57   127   130    1
    58   127   128    1
    59    26    27    1
    60    19    20    2
    61   130   132    1
    62    27    28    2
    63    50    51    1
    64    99   100    2
    65    99    98    1
    66   128   129    2
    67   137   136    2
    68    30    31    1
    69    51    54    1
    70    51    52    1
    71    80    78    1
    72    54    55    1
    73    77    76    2
    74   136   135    1
    75    98    97    1
    76    34    31    1
    77    34    35    1
    78    76    75    1
    79    36    35    1
    80    36    37    1
    81    57    55   ar
    82   139   138    1
    83    31    32    1
    84    55    56   ar
    85    38    37    1
    86    52    53    2
    87    97    93   am
    88    78    75    1
    89    78    79    1
    90    75    74    1
    91   135   138    1
    92   135   134    1
    93    48    46   ar
    94    48    49   ar
    95    46    44   ar
    96    82    83    1
    97    81    79    1
    98    39    32   am
    99    39    40    1
   100    32    33    2
   101    93    94    2
   102    93    92    1
   103    49    47   ar
   104    44    43    1
   105    44    45   ar
   106    43    40    1
   107    83    86    1
   108    83    84    1
   109    73    71    1
   110    40    41    1
   111    86    87    1
   112    84    85    2
   113    92    95    1
   114    92    91    1
   115    41    42    2
   116    47    45   ar
   117    58    59    1
   118    95    96    1
   119    71    70    1
   120    87    88    1
   121    88    89    1
   122    59    60    1
   123    70    72    1
   124    70    67    1
   125    89    90    1
   126    60    61    2
   127    66    67    1
   128    66    64   am
   129    67    68    1
   130    63    64    1
   131    63    62    1
   132    69    68    2
   133    64    65    2
