@<TRIPOS>MOLECULE
tmp/4plbC00.pdb
 73 67 0 0 0
SMALL
GASTEIGER

@<TRIPOS>ATOM
      1  N         41.0820   38.2370   15.9230 N.3    42  ARG42      -0.1245
      2  CA        40.6890   37.8480   17.2890 C.3    42  ARG42       0.1563
      3  C         39.3380   38.4560   17.6880 C.2    42  ARG42       0.2260
      4  O         39.2050   39.1310   18.7160 O.2    42  ARG42      -0.2867
      5  CB        41.8100   38.1560   18.2880 C.3    42  ARG42       0.0307
      6  CG        41.8600   37.2340   19.4990 C.3    42  ARG42       0.0489
      7  CD        42.5350   35.8980   19.2400 C.3    42  ARG42       0.2205
      8  NE        44.0010   35.9600   19.1580 N.pl3  42  ARG42      -0.0865
      9  CZ        44.8420   35.9350   20.2010 C.cat  42  ARG42       0.5346
     10  NH1       46.1560   35.9830   20.0030 N.pl3  42  ARG42       0.1354
     11  NH2       44.3710   35.8790   21.4510 N.pl3  42  ARG42       0.1354
     12  N         26.4820   23.4210   33.4060 N.3   249  ALA249     -0.1245
     13  CA        26.9300   23.0670   32.0530 C.3   249  ALA249      0.1562
     14  C         25.8500   22.3950   31.1950 C.2   249  ALA249      0.2260
     15  O         25.7760   22.6690   29.9980 O.2   249  ALA249     -0.2867
     16  CB        28.1640   22.1960   32.1180 C.3   249  ALA249      0.0290
     17  N         23.5280   25.2180   30.1120 N.3   252  VAL252     -0.1231
     18  CA        24.2600   26.0350   29.1380 C.3   252  VAL252      0.1692
     19  C         24.3530   25.3850   27.7500 C.2   252  VAL252      0.2592
     20  O         23.9870   26.0370   26.7550 O.2   252  VAL252     -0.2718
     21  CB        25.6080   26.5800   29.6770 C.3   252  VAL252      0.0266
     22  CG1       26.4130   27.2660   28.5810 C.3   252  VAL252      0.0020
     23  CG2       25.3890   27.5330   30.8460 C.3   252  VAL252      0.0020
     24  N         24.7890   24.1140   27.7020 N.am  253  GLY253     -0.1957
     25  CA        24.9200   23.3420   26.4700 C.3   253  GLY253      0.1869
     26  C         23.6060   23.1320   25.7430 C.2   253  GLY253      0.2309
     27  O         23.5430   23.3010   24.5180 O.2   253  GLY253     -0.2863
     28  N         22.3830   26.5460   24.4240 N.3   256  MET256     -0.1245
     29  CA        23.2200   26.9220   23.2760 C.3   256  MET256      0.1570
     30  C         22.8750   26.0930   22.0500 C.2   256  MET256      0.2261
     31  O         22.7950   26.6450   20.9440 O.2   256  MET256     -0.2867
     32  CB        24.7080   26.7490   23.5870 C.3   256  MET256      0.0387
     33  CG        25.6050   27.4680   22.6310 C.3   256  MET256      0.0595
     34  SD        27.2970   26.8610   22.7620 S.3   256  MET256     -0.1393
     35  CE        27.7570   27.5280   24.3100 C.3   256  MET256      0.0692
     36  N         29.3350   30.7150   25.0210 N.3   264  ASP264     -0.1225
     37  CA        29.0120   30.1050   26.3030 C.3   264  ASP264      0.1805
     38  C         28.9580   30.9970   27.5380 C.2   264  ASP264      0.2598
     39  O         28.1060   30.8460   28.3690 O.2   264  ASP264     -0.2718
     40  CB        30.0200   28.9790   26.5470 C.3   264  ASP264      0.1424
     41  CG        31.3910   29.4810   26.9990 C.2   264  ASP264      0.3668
     42  OD1       32.1620   30.0380   26.1910 O.co2 264  ASP264     -0.2456
     43  OD2       31.7170   29.2770   28.1680 O.co2 264  ASP264     -0.2456
     44  N         29.8870   31.9200   27.6380 N.am  265  SER265     -0.1952
     45  CA        29.9670   32.8680   28.7140 C.3   265  SER265      0.1924
     46  C         28.7690   33.7620   28.7700 C.2   265  SER265      0.2314
     47  O         28.3640   34.1760   29.8260 O.2   265  SER265     -0.2863
     48  CB        31.1940   33.7180   28.5360 C.3   265  SER265      0.2116
     49  OG        31.5720   33.7330   27.1940 O.3   265  SER265     -0.2180
     50  N         33.4280   28.5270   37.8310 N.3   301  ALA301     -0.1231
     51  CA        33.2880   27.9940   36.4920 C.3   301  ALA301      0.1694
     52  C         31.9850   27.1750   36.4850 C.2   301  ALA301      0.2592
     53  O         31.6270   26.5980   37.5240 O.2   301  ALA301     -0.2718
     54  CB        34.4610   27.0980   36.1740 C.3   301  ALA301      0.0304
     55  N         31.2530   27.1540   35.3460 N.am  302  MET302     -0.1965
     56  CA        30.0120   26.4020   35.2280 C.3   302  MET302      0.1736
     57  C         30.1040   24.9320   35.6650 C.2   302  MET302      0.2616
     58  O         29.1020   24.3770   36.1030 O.2   302  MET302     -0.2715
     59  CB        29.3210   26.5920   33.8660 C.3   302  MET302      0.0427
     60  CG        30.1830   26.3520   32.6670 C.3   302  MET302      0.0599
     61  SD        29.1500   26.2910   31.1770 S.3   302  MET302     -0.1393
     62  CE        29.9190   27.4580   30.2240 C.3   302  MET302      0.0692
     63  N         31.3070   24.3090   35.6070 N.am  303  ARG303     -0.1977
     64  CA        31.5100   22.9170   36.0480 C.3   303  ARG303      0.1597
     65  C         31.2340   22.7560   37.5420 C.2   303  ARG303      0.2287
     66  O         30.8730   21.6710   37.9780 O.2   303  ARG303     -0.2864
     67  CB        32.8960   22.3530   35.6540 C.3   303  ARG303      0.0334
     68  CG        34.0720   22.9650   36.3940 C.3   303  ARG303      0.0492
     69  CD        35.4180   22.3000   36.0730 C.3   303  ARG303      0.2205
     70  NE        36.5170   23.1760   36.4930 N.pl3 303  ARG303     -0.0865
     71  CZ        37.2310   23.9370   35.6750 C.cat 303  ARG303      0.5346
     72  NH1       37.0140   23.8970   34.3630 N.pl3 303  ARG303      0.1354
     73  NH2       38.1820   24.7310   36.1570 N.pl3 303  ARG303      0.1354
@<TRIPOS>BOND
     1     1     2    1
     2     2     3    1
     3     2     5    1
     4     3     4    2
     5     5     6    1
     6     8     7    1
     7     8     9    2
     8     7     6    1
     9    10     9    1
    10     9    11    1
    11    31    30    2
    12    30    29    1
    13    33    34    1
    14    33    32    1
    15    34    35    1
    16    29    32    1
    17    29    28    1
    18    27    26    2
    19    36    37    1
    20    26    25    1
    21    42    41   ar
    22    37    40    1
    23    37    38    1
    24    25    24    1
    25    40    41    1
    26    20    19    2
    27    41    43   ar
    28    49    48    1
    29    38    44   am
    30    38    39    2
    31    44    45    1
    32    24    19   am
    33    19    18    1
    34    48    45    1
    35    22    21    1
    36    45    46    1
    37    46    47    2
    38    18    21    1
    39    18    17    1
    40    21    23    1
    41    15    14    2
    42    62    61    1
    43    61    60    1
    44    14    13    1
    45    13    16    1
    46    13    12    1
    47    60    59    1
    48    59    56    1
    49    72    71    1
    50    56    55    1
    51    56    57    1
    52    55    52   am
    53    63    57   am
    54    63    64    1
    55    67    64    1
    56    67    68    1
    57    57    58    2
    58    71    73    1
    59    71    70    2
    60    64    65    1
    61    69    68    1
    62    69    70    1
    63    54    51    1
    64    52    51    1
    65    52    53    2
    66    51    50    1
    67    65    66    2
