@<TRIPOS>MOLECULE
tmp/4pleA00.pdb
 127 118 0 0 0
SMALL
GASTEIGER

@<TRIPOS>ATOM
      1  N        -42.5050  -22.8360   10.2960 N.3    57  PHE57      -0.1241
      2  CA       -41.8770  -24.1220   10.0060 C.3    57  PHE57       0.1605
      3  C        -40.4360  -24.1280   10.5130 C.2    57  PHE57       0.2264
      4  O        -39.9790  -25.0980   11.1180 O.2    57  PHE57      -0.2867
      5  CB       -41.8960  -24.4230    8.5060 C.3    57  PHE57       0.0534
      6  CG       -43.1460  -25.1130    8.0320 C.ar   57  PHE57      -0.0203
      7  CD1      -43.2790  -26.4870    8.1450 C.ar   57  PHE57      -0.0042
      8  CD2      -44.1740  -24.3920    7.4490 C.ar   57  PHE57      -0.0042
      9  CE1      -44.4220  -27.1270    7.7000 C.ar   57  PHE57      -0.0003
     10  CE2      -45.3210  -25.0270    7.0020 C.ar   57  PHE57      -0.0003
     11  CZ       -45.4440  -26.3960    7.1280 C.ar   57  PHE57      -0.0000
     12  N        -40.3100  -24.2970   14.3640 N.3    60  VAL60      -0.1245
     13  CA       -40.5740  -25.6420   14.8740 C.3    60  VAL60       0.1561
     14  C        -39.3350  -26.5390   14.7340 C.2    60  VAL60       0.2260
     15  O        -38.9970  -27.2910   15.6500 O.2    60  VAL60      -0.2867
     16  CB       -41.7760  -26.2860   14.1560 C.3    60  VAL60       0.0252
     17  CG1      -41.9400  -27.7370   14.5760 C.3    60  VAL60       0.0019
     18  CG2      -43.0470  -25.5000   14.4520 C.3    60  VAL60       0.0019
     19  N        -37.2810  -28.1880   17.8540 N.3    64  ARG64      -0.1245
     20  CA       -37.1440  -29.6410   17.8490 C.3    64  ARG64       0.1563
     21  C        -35.7140  -30.1120   18.1010 C.2    64  ARG64       0.2260
     22  O        -35.4980  -31.1370   18.7500 O.2    64  ARG64      -0.2867
     23  CB       -37.6450  -30.2080   16.5150 C.3    64  ARG64       0.0307
     24  CG       -37.7640  -31.7210   16.4990 C.3    64  ARG64       0.0489
     25  CD       -38.1570  -32.2710   15.1400 C.3    64  ARG64       0.2205
     26  NE       -37.6390  -31.4900   14.0180 N.pl3  64  ARG64      -0.0865
     27  CZ       -38.0790  -31.6080   12.7660 C.cat  64  ARG64       0.5346
     28  NH1      -39.0450  -32.4730   12.4820 N.pl3  64  ARG64       0.1354
     29  NH2      -37.5530  -30.8710   11.7940 N.pl3  64  ARG64       0.1354
     30  N        -35.4370  -28.7590   25.0030 N.3    69  PHE69      -0.1241
     31  CA       -36.7160  -29.0140   24.3430 C.3    69  PHE69       0.1605
     32  C        -36.7590  -30.4160   23.7440 C.2    69  PHE69       0.2264
     33  O        -37.7820  -31.1010   23.8190 O.2    69  PHE69      -0.2867
     34  CB       -36.9800  -27.9680   23.2600 C.3    69  PHE69       0.0534
     35  CG       -38.3930  -27.9690   22.7420 C.ar   69  PHE69      -0.0203
     36  CD1      -39.3910  -27.2820   23.4150 C.ar   69  PHE69      -0.0042
     37  CD2      -38.7210  -28.6480   21.5800 C.ar   69  PHE69      -0.0042
     38  CE1      -40.6870  -27.2750   22.9390 C.ar   69  PHE69      -0.0003
     39  CE2      -40.0150  -28.6430   21.0990 C.ar   69  PHE69      -0.0003
     40  CZ       -40.9970  -27.9550   21.7790 C.ar   69  PHE69      -0.0000
     41  N        -43.1430  -35.5920   22.7350 N.3    74  VAL74      -0.1231
     42  CA       -43.8170  -34.7820   21.7210 C.3    74  VAL74       0.1692
     43  C        -45.0750  -34.0860   22.2510 C.2    74  VAL74       0.2592
     44  O        -45.3780  -32.9580   21.8630 O.2    74  VAL74      -0.2718
     45  CB       -44.1970  -35.6390   20.4940 C.3    74  VAL74       0.0266
     46  CG1      -44.7900  -34.7710   19.3920 C.3    74  VAL74       0.0020
     47  CG2      -42.9790  -36.3900   19.9800 C.3    74  VAL74       0.0020
     48  N        -45.7920  -34.7520   23.1500 N.am   75  ASP75      -0.1974
     49  CA       -47.0270  -34.1950   23.6930 C.3    75  ASP75       0.1709
     50  C        -46.7760  -32.9250   24.5030 C.2    75  ASP75       0.2293
     51  O        -47.5750  -31.9910   24.4620 O.2    75  ASP75      -0.2864
     52  CB       -47.7490  -35.2340   24.5510 C.3    75  ASP75       0.1436
     53  CG       -48.3630  -36.3440   23.7200 C.2    75  ASP75       0.3671
     54  OD1      -49.3640  -36.0790   23.0220 O.co2  75  ASP75      -0.2456
     55  OD2      -47.8450  -37.4800   23.7640 O.co2  75  ASP75      -0.2456
     56  N        -44.0640  -31.0660   23.9520 N.3    77  GLN77      -0.1231
     57  CA       -43.5480  -30.1730   22.9200 C.3    77  GLN77       0.1698
     58  C        -44.6790  -29.4340   22.2150 C.2    77  GLN77       0.2592
     59  O        -44.6000  -28.2260   21.9850 O.2    77  GLN77      -0.2718
     60  CB       -42.7230  -30.9570   21.9000 C.3    77  GLN77       0.0381
     61  CG       -41.4580  -31.5770   22.4700 C.3    77  GLN77       0.0905
     62  CD       -40.6170  -32.2480   21.4030 C.2    77  GLN77       0.2608
     63  OE1      -41.1420  -32.7450   20.4070 O.2    77  GLN77      -0.2717
     64  NE2      -39.3060  -32.2640   21.6050 N.am   77  GLN77      -0.0878
     65  N        -45.7290  -30.1730   21.8780 N.am   78  MET78      -0.1979
     66  CA       -46.8960  -29.5960   21.2240 C.3    78  MET78       0.1605
     67  C        -47.5490  -28.5470   22.1140 C.2    78  MET78       0.2287
     68  O        -47.8580  -27.4460   21.6610 O.2    78  MET78      -0.2864
     69  CB       -47.9010  -30.6880   20.8610 C.3    78  MET78       0.0413
     70  CG       -47.4060  -31.6400   19.7870 C.3    78  MET78       0.0598
     71  SD       -48.5030  -33.0410   19.5090 S.3    78  MET78      -0.1393
     72  CE       -49.9860  -32.2050   18.9520 C.3    78  MET78       0.0692
     73  N        -45.4640  -25.4210   22.2740 N.3    81  LEU81      -0.1231
     74  CA       -45.5030  -24.7050   21.0050 C.3    81  LEU81       0.1693
     75  C        -46.8890  -24.1310   20.7390 C.2    81  LEU81       0.2591
     76  O        -47.0190  -23.0630   20.1430 O.2    81  LEU81      -0.2718
     77  CB       -45.0760  -25.6160   19.8500 C.3    81  LEU81       0.0284
     78  CG       -43.5680  -25.8270   19.6930 C.3    81  LEU81       0.0019
     79  CD1      -43.2850  -26.8720   18.6250 C.3    81  LEU81       0.0001
     80  CD2      -42.8760  -24.5150   19.3560 C.3    81  LEU81       0.0001
     81  N        -47.9220  -24.8350   21.1860 N.am   82  GLN82      -0.1979
     82  CA       -49.2870  -24.3550   21.0130 C.3    82  GLN82       0.1601
     83  C        -49.5090  -23.0880   21.8340 C.2    82  GLN82       0.2287
     84  O        -50.3160  -22.2330   21.4710 O.2    82  GLN82      -0.2864
     85  CB       -50.2960  -25.4320   21.4110 C.3    82  GLN82       0.0394
     86  CG       -51.6970  -25.1930   20.8750 C.3    82  GLN82       0.0908
     87  CD       -51.7320  -25.1010   19.3600 C.2    82  GLN82       0.2608
     88  OE1      -51.5280  -26.0950   18.6610 O.2    82  GLN82      -0.2717
     89  NE2      -51.9890  -23.9030   18.8450 N.am   82  GLN82      -0.0878
     90  N        -54.2880  -23.4500    3.1250 N.3   232  ASN232     -0.1240
     91  CA       -53.4510  -24.2820    3.9930 C.3   232  ASN232      0.1653
     92  C        -52.2130  -23.6050    4.4910 C.2   232  ASN232      0.2266
     93  O        -51.3040  -23.2250    3.7520 O.2   232  ASN232     -0.2867
     94  CB       -53.0370  -25.5770    3.3080 C.3   232  ASN232      0.1155
     95  CG       -52.3950  -26.5760    4.2730 C.2   232  ASN232      0.2627
     96  OD1      -52.0680  -26.2480    5.4150 O.2   232  ASN232     -0.2716
     97  ND2      -52.2220  -27.8070    3.8090 N.am  232  ASN232     -0.0877
     98  N        -50.0040  -23.3030    8.2140 N.3   234  LEU234     -0.1245
     99  CA       -49.6990  -23.8940    9.5150 C.3   234  LEU234      0.1561
    100  C        -50.0870  -22.8870   10.5580 C.2   234  LEU234      0.2260
    101  O        -50.5090  -23.2360   11.6480 O.2   234  LEU234     -0.2867
    102  CB       -48.2090  -24.2710    9.6330 C.3   234  LEU234      0.0270
    103  CG       -47.6700  -24.7570   10.9880 C.3   234  LEU234      0.0019
    104  CD1      -48.2660  -26.1000   11.3850 C.3   234  LEU234      0.0001
    105  CD2      -46.1420  -24.8210   11.0070 C.3   234  LEU234      0.0001
    106  N        -53.7310  -23.5800   11.0560 N.3   237  GLU237     -0.1231
    107  CA       -53.8720  -24.7690   11.8900 C.3   237  GLU237      0.1699
    108  C        -53.5460  -24.4480   13.3470 C.2   237  GLU237      0.2592
    109  O        -54.1990  -24.9550   14.2580 O.2   237  GLU237     -0.2718
    110  CB       -52.9850  -25.9040   11.3790 C.3   237  GLU237      0.0402
    111  CG       -53.5690  -26.6500   10.1900 C.3   237  GLU237      0.1161
    112  CD       -54.9090  -27.2940   10.5040 C.2   237  GLU237      0.3649
    113  OE1      -55.0630  -27.8540   11.6100 O.co2 237  GLU237     -0.2457
    114  OE2      -55.8120  -27.2360    9.6430 O.co2 237  GLU237     -0.2457
    115  N        -52.5440  -23.6010   13.5650 N.am  238  MET238     -0.1979
    116  CA       -52.2090  -23.1650   14.9180 C.3   238  MET238      0.1605
    117  C        -53.3510  -22.3450   15.5170 C.2   238  MET238      0.2287
    118  O        -53.6090  -22.4090   16.7200 O.2   238  MET238     -0.2864
    119  CB       -50.9140  -22.3500   14.9330 C.3   238  MET238      0.0413
    120  CG       -49.6750  -23.1260   14.5160 C.3   238  MET238      0.0598
    121  SD       -49.4520  -24.6720   15.4100 S.3   238  MET238     -0.1393
    122  CE       -49.0600  -24.0570   17.0450 C.3   238  MET238      0.0692
    123  N        -56.4390  -24.6450   16.3840 N.3   241  ALA241     -0.1245
    124  CA       -56.1680  -25.6150   17.4400 C.3   241  ALA241      0.1562
    125  C        -56.7070  -25.1310   18.7820 C.2   241  ALA241      0.2260
    126  O        -56.2340  -24.1340   19.3280 O.2   241  ALA241     -0.2867
    127  CB       -54.6780  -25.8920   17.5370 C.3   241  ALA241      0.0290
@<TRIPOS>BOND
     1    90    91    1
     2    94    91    1
     3    94    95    1
     4    93    92    2
     5    97    95   am
     6    91    92    1
     7    95    96    2
     8    10    11   ar
     9    10     8   ar
    10    11     9   ar
    11     8     6   ar
    12     9     7   ar
    13     6     7   ar
    14     6     5    1
    15    98    99    1
    16     5     2    1
    17    99   102    1
    18    99   100    1
    19   102   103    1
    20   114   112   ar
    21     2     1    1
    22     2     3    1
    23   111   112    1
    24   111   110    1
    25   112   113   ar
    26     3     4    2
    27   100   101    2
    28   103   105    1
    29   103   104    1
    30   106   107    1
    31   110   107    1
    32    29    27    1
    33   107   108    1
    34    28    27    1
    35    27    26    2
    36   108   115   am
    37   108   109    2
    38   115   116    1
    39    26    25    1
    40    16    18    1
    41    16    17    1
    42    16    13    1
    43    12    13    1
    44   120   119    1
    45   120   121    1
    46    14    13    1
    47    14    15    2
    48   116   119    1
    49   116   117    1
    50    25    24    1
    51   121   122    1
    52   117   118    2
    53   123   124    1
    54    24    23    1
    55    23    20    1
    56   124   127    1
    57   124   125    1
    58    20    19    1
    59    20    21    1
    60    21    22    2
    61    79    78    1
    62    88    87    2
    63   125   126    2
    64    89    87   am
    65    72    71    1
    66    80    78    1
    67    87    86    1
    68    46    45    1
    69    71    70    1
    70    78    77    1
    71    70    69    1
    72    77    74    1
    73    47    45    1
    74    76    75    2
    75    63    62    2
    76    45    42    1
    77    75    74    1
    78    75    81   am
    79    69    66    1
    80    86    85    1
    81    74    73    1
    82    82    81    1
    83    82    85    1
    84    82    83    1
    85    39    37   ar
    86    39    40   ar
    87    66    65    1
    88    66    67    1
    89    62    64   am
    90    62    61    1
    91    84    83    2
    92    37    35   ar
    93    68    67    2
    94    42    43    1
    95    42    41    1
    96    40    38   ar
    97    44    43    2
    98    65    58   am
    99    60    61    1
   100    60    57    1
   101    59    58    2
   102    58    57    1
   103    43    48   am
   104    35    34    1
   105    35    36   ar
   106    57    56    1
   107    38    36   ar
   108    54    53   ar
   109    48    49    1
   110    34    31    1
   111    49    50    1
   112    49    52    1
   113    53    55   ar
   114    53    52    1
   115    32    33    2
   116    32    31    1
   117    31    30    1
   118    51    50    2
