@<TRIPOS>MOLECULE
tmp/4pleC02.pdb
 105 96 0 0 0
SMALL
GASTEIGER

@<TRIPOS>ATOM
      1  N        -67.1790   21.6740   53.2210 N.3    25  MET25      -0.1245
      2  CA       -67.2150   22.5710   54.3690 C.3    25  MET25       0.1570
      3  C        -66.9640   21.8080   55.6620 C.2    25  MET25       0.2261
      4  O        -66.1560   22.2200   56.4960 O.2    25  MET25      -0.2867
      5  CB       -68.5620   23.2930   54.4370 C.3    25  MET25       0.0387
      6  CG       -68.7560   24.1560   55.6630 C.3    25  MET25       0.0595
      7  SD       -67.6550   25.5790   55.7090 S.3    25  MET25      -0.1393
      8  CE       -68.4980   26.5600   56.9490 C.3    25  MET25       0.0692
      9  N        -63.2420   20.5060   55.9640 N.3    28  LEU28      -0.1231
     10  CA       -62.2540   21.5050   56.3560 C.3    28  LEU28       0.1693
     11  C        -62.4070   21.8970   57.8190 C.2    28  LEU28       0.2591
     12  O        -61.4160   22.1040   58.5200 O.2    28  LEU28      -0.2718
     13  CB       -62.3620   22.7450   55.4700 C.3    28  LEU28       0.0284
     14  CG       -62.0090   22.5450   53.9980 C.3    28  LEU28       0.0019
     15  CD1      -62.2840   23.8170   53.2150 C.3    28  LEU28       0.0001
     16  CD2      -60.5580   22.1080   53.8520 C.3    28  LEU28       0.0001
     17  N        -63.6500   22.0010   58.2820 N.am   29  GLN29      -0.1979
     18  CA       -63.9020   22.2990   59.6850 C.3    29  GLN29       0.1601
     19  C        -63.3830   21.1670   60.5670 C.2    29  GLN29       0.2287
     20  O        -62.8160   21.4110   61.6330 O.2    29  GLN29      -0.2864
     21  CB       -65.3970   22.5410   59.9310 C.3    29  GLN29       0.0394
     22  CG       -65.8990   23.8520   59.3370 C.3    29  GLN29       0.0908
     23  CD       -67.3010   24.2060   59.7850 C.2    29  GLN29       0.2608
     24  OE1      -68.2120   23.3800   59.7280 O.2    29  GLN29      -0.2717
     25  NE2      -67.4800   25.4390   60.2420 N.am   29  GLN29      -0.0878
     26  N        -59.4610   21.3260   60.7250 N.3    32  GLN32      -0.1245
     27  CA       -58.9760   22.3190   61.6750 C.3    32  GLN32       0.1566
     28  C        -59.2460   21.8950   63.1160 C.2    32  GLN32       0.2260
     29  O        -58.4250   22.1380   64.0050 O.2    32  GLN32      -0.2867
     30  CB       -59.6140   23.6800   61.3950 C.3    32  GLN32       0.0367
     31  CG       -59.0910   24.3680   60.1460 C.3    32  GLN32       0.0905
     32  CD       -57.6600   24.8510   60.2990 C.2    32  GLN32       0.2608
     33  OE1      -56.7260   24.0520   60.3760 O.2    32  GLN32      -0.2717
     34  NE2      -57.4830   26.1670   60.3490 N.am   32  GLN32      -0.0878
     35  N        -54.3500   30.1110   55.6280 N.3    43  THR43      -0.1218
     36  CA       -55.3190   30.3050   54.5570 C.3    43  THR43       0.1862
     37  C        -54.9320   29.4870   53.3280 C.2    43  THR43       0.2287
     38  O        -55.7710   28.8080   52.7380 O.2    43  THR43      -0.2866
     39  CB       -55.4380   31.7870   54.1700 C.3    43  THR43       0.1770
     40  OG1      -55.9870   32.5240   55.2690 O.3    43  THR43      -0.2211
     41  CG2      -56.3330   31.9500   52.9560 C.3    43  THR43       0.0375
     42  N        -55.5230   25.7350   53.8930 N.3    46  LEU46      -0.1231
     43  CA       -56.9480   25.4420   53.8030 C.3    46  LEU46       0.1693
     44  C        -57.4190   25.4090   52.3520 C.2    46  LEU46       0.2591
     45  O        -58.1450   24.5010   51.9460 O.2    46  LEU46      -0.2718
     46  CB       -57.7500   26.4760   54.5930 C.3    46  LEU46       0.0284
     47  CG       -57.7050   26.3320   56.1140 C.3    46  LEU46       0.0019
     48  CD1      -58.2700   27.5740   56.7820 C.3    46  LEU46       0.0001
     49  CD2      -58.4740   25.0930   56.5490 C.3    46  LEU46       0.0001
     50  N        -56.9960   26.3990   51.5740 N.am   47  MET47      -0.1979
     51  CA       -57.4020   26.4900   50.1770 C.3    47  MET47       0.1605
     52  C        -56.8580   25.3190   49.3590 C.2    47  MET47       0.2287
     53  O        -57.5010   24.8650   48.4130 O.2    47  MET47      -0.2864
     54  CB       -56.9490   27.8230   49.5780 C.3    47  MET47       0.0413
     55  CG       -57.5940   29.0520   50.2170 C.3    47  MET47       0.0598
     56  SD       -59.3980   29.0830   50.0890 S.3    47  MET47      -0.1393
     57  CE       -59.8910   28.5340   51.7240 C.3    47  MET47       0.0692
     58  N        -66.4320   30.8830   47.2020 N.3   107  LEU107     -0.1245
     59  CA       -65.7710   29.5880   47.3150 C.3   107  LEU107      0.1561
     60  C        -66.7640   28.4340   47.2490 C.2   107  LEU107      0.2260
     61  O        -67.9570   28.6180   47.4960 O.2   107  LEU107     -0.2867
     62  CB       -64.9750   29.5140   48.6200 C.3   107  LEU107      0.0270
     63  CG       -63.9290   30.6110   48.8190 C.3   107  LEU107      0.0019
     64  CD1      -63.2510   30.4560   50.1720 C.3   107  LEU107      0.0001
     65  CD2      -62.9010   30.5950   47.6910 C.3   107  LEU107      0.0001
     66  N        -67.0620   26.2070   49.3180 N.3   109  THR109     -0.1218
     67  CA       -67.5680   26.0180   50.6750 C.3   109  THR109      0.1862
     68  C        -68.6590   27.0250   51.0400 C.2   109  THR109      0.2287
     69  O        -69.3320   26.8760   52.0600 O.2   109  THR109     -0.2866
     70  CB       -66.4360   26.1150   51.7090 C.3   109  THR109      0.1770
     71  OG1      -65.6470   27.2830   51.4470 O.3   109  THR109     -0.2211
     72  CG2      -65.5470   24.8840   51.6350 C.3   109  THR109      0.0375
     73  N        -68.3440   30.6250   51.2090 N.3   111  GLN111     -0.1231
     74  CA       -67.9680   31.9320   51.7430 C.3   111  GLN111      0.1698
     75  C        -67.4980   32.8820   50.6460 C.2   111  GLN111      0.2592
     76  O        -66.9650   32.4530   49.6230 O.2   111  GLN111     -0.2718
     77  CB       -66.8740   31.7950   52.8060 C.3   111  GLN111      0.0381
     78  CG       -67.2980   31.0450   54.0570 C.3   111  GLN111      0.0905
     79  CD       -67.3670   29.5500   53.8400 C.2   111  GLN111      0.2608
     80  OE1      -66.5640   28.9860   53.0990 O.2   111  GLN111     -0.2717
     81  NE2      -68.3360   28.9000   54.4740 N.am  111  GLN111     -0.0878
     82  N        -67.7020   34.1770   50.8690 N.am  112  GLN112     -0.1966
     83  CA       -67.2230   35.1980   49.9470 C.3   112  GLN112      0.1733
     84  C        -65.9080   35.7850   50.4520 C.2   112  GLN112      0.2616
     85  O        -65.8250   36.2580   51.5870 O.2   112  GLN112     -0.2715
     86  CB       -68.2650   36.3070   49.7650 C.3   112  GLN112      0.0408
     87  CG       -69.4570   35.9260   48.8900 C.3   112  GLN112      0.0908
     88  CD       -69.2790   36.3260   47.4330 C.2   112  GLN112      0.2608
     89  OE1      -68.1930   36.7250   47.0140 O.2   112  GLN112     -0.2717
     90  NE2      -70.3520   36.2250   46.6560 N.am  112  GLN112     -0.0878
     91  N        -64.8800   35.7400   49.6110 N.am  113  VAL113     -0.1977
     92  CA       -63.5900   36.3340   49.9450 C.3   113  VAL113      0.1596
     93  C        -63.3640   37.5980   49.1250 C.2   113  VAL113      0.2287
     94  O        -63.3580   37.5520   47.8950 O.2   113  VAL113     -0.2864
     95  CB       -62.4270   35.3540   49.6960 C.3   113  VAL113      0.0276
     96  CG1      -61.0940   36.0200   50.0130 C.3   113  VAL113      0.0022
     97  CG2      -62.6080   34.0910   50.5250 C.3   113  VAL113      0.0022
     98  N        -58.5820   41.3310   49.9840 N.3   117  ILE117     -0.1245
     99  CA       -57.7560   40.4450   50.7730 C.3   117  ILE117      0.1561
    100  C        -56.6730   39.8490   49.8940 C.2   117  ILE117      0.2260
    101  O        -55.4980   39.8560   50.2500 O.2   117  ILE117     -0.2867
    102  CB       -58.6050   39.3310   51.4120 C.3   117  ILE117      0.0252
    103  CG1      -59.7980   39.9300   52.1670 C.3   117  ILE117      0.0019
    104  CG2      -57.7530   38.4720   52.3260 C.3   117  ILE117      0.0019
    105  CD1      -59.4280   40.9870   53.1850 C.3   117  ILE117      0.0001
@<TRIPOS>BOND
     1    90    88   am
     2    89    88    2
     3    58    59    1
     4    60    59    1
     5    60    61    2
     6    59    62    1
     7    88    87    1
     8    65    63    1
     9    94    93    2
    10    53    52    2
    11    62    63    1
    12    63    64    1
    13    87    86    1
    14    93    92    1
    15    66    67    1
    16    52    51    1
    17    54    51    1
    18    54    55    1
    19    91    92    1
    20    91    84   am
    21    76    75    2
    22    95    92    1
    23    95    96    1
    24    95    97    1
    25    86    83    1
    26   100   101    2
    27   100    99    1
    28    83    84    1
    29    83    82    1
    30    98    99    1
    31    56    55    1
    32    56    57    1
    33    51    50    1
    34    84    85    2
    35    75    82   am
    36    75    74    1
    37    67    68    1
    38    67    70    1
    39    99   102    1
    40    68    69    2
    41    73    74    1
    42   102   103    1
    43   102   104    1
    44    71    70    1
    45    50    44   am
    46    72    70    1
    47    74    77    1
    48    45    44    2
    49   103   105    1
    50    44    43    1
    51    38    37    2
    52    77    78    1
    53    41    39    1
    54    80    79    2
    55    15    14    1
    56     1     2    1
    57    37    36    1
    58    43    42    1
    59    43    46    1
    60    79    78    1
    61    79    81   am
    62    16    14    1
    63    14    13    1
    64    39    36    1
    65    39    40    1
    66     2     5    1
    67     2     3    1
    68     5     6    1
    69    36    35    1
    70    46    47    1
    71    13    10    1
    72     3     4    2
    73     6     7    1
    74     7     8    1
    75     9    10    1
    76    47    49    1
    77    47    48    1
    78    10    11    1
    79    11    17   am
    80    11    12    2
    81    17    18    1
    82    22    23    1
    83    22    21    1
    84    18    21    1
    85    18    19    1
    86    24    23    2
    87    23    25   am
    88    31    32    1
    89    31    30    1
    90    32    34   am
    91    32    33    2
    92    19    20    2
    93    26    27    1
    94    30    27    1
    95    27    28    1
    96    28    29    2
