@<TRIPOS>MOLECULE
tmp/4pluB00.pdb
 82 79 0 0 0
SMALL
GASTEIGER

@<TRIPOS>ATOM
      1  N        -35.7850  -14.2020    9.8980 N.3     1  PRO1       -0.2102
      2  CA       -35.1440  -13.2050   10.8030 C.3     1  PRO1        0.1504
      3  C        -33.9460  -13.7210   11.4540 C.2     1  PRO1        0.2575
      4  O        -33.7890  -14.9320   11.7200 O.2     1  PRO1       -0.2718
      5  CB       -36.1920  -12.9430   11.8380 C.3     1  PRO1        0.0282
      6  CG       -37.4550  -13.4590   11.2600 C.3     1  PRO1        0.0208
      7  CD       -37.0780  -14.6110   10.4020 C.3     1  PRO1        0.0893
      8  N        -33.0550  -12.8010   11.7980 N.am    2  MET2       -0.1980
      9  CA       -31.8560  -13.2130   12.4930 C.3     2  MET2        0.1605
     10  C        -31.4760  -12.2120   13.5580 C.2     2  MET2        0.2287
     11  O        -31.4970  -11.0670   13.3170 O.2     2  MET2       -0.2864
     12  CB       -30.6740  -13.3700   11.5810 C.3     2  MET2        0.0413
     13  CG       -30.5010  -12.3510   10.5830 C.3     2  MET2        0.0598
     14  SD       -29.0890  -12.8090    9.5300 S.3     2  MET2       -0.1393
     15  CE       -27.7410  -12.5990   10.5870 C.3     2  MET2        0.0692
     16  N        -37.2560  -20.5440   10.2890 N.3    36  TYR36      -0.1241
     17  CA       -36.6240  -19.3940    9.6130 C.3    36  TYR36       0.1605
     18  C        -35.6700  -18.6290   10.5210 C.2    36  TYR36       0.2264
     19  O        -34.8310  -17.8860   10.0560 O.2    36  TYR36      -0.2867
     20  CB       -37.6380  -18.4090    9.1220 C.3    36  TYR36       0.0534
     21  CG       -38.4000  -18.8290    7.9090 C.ar   36  TYR36      -0.0201
     22  CD1      -39.5550  -19.6260    8.0580 C.ar   36  TYR36      -0.0009
     23  CD2      -38.0070  -18.4480    6.6750 C.ar   36  TYR36      -0.0009
     24  CE1      -40.3020  -19.9990    6.9420 C.ar   36  TYR36       0.0417
     25  CE2      -38.7450  -18.8230    5.5370 C.ar   36  TYR36       0.0417
     26  CZ       -39.8990  -19.5650    5.7040 C.ar   36  TYR36       0.1957
     27  OH       -40.5600  -19.9250    4.5140 O.3    36  TYR36      -0.2866
     28  N        -32.7380  -17.4570   12.9370 N.3    38  ALA38      -0.1245
     29  CA       -31.3680  -17.7240   13.2650 C.3    38  ALA38       0.1562
     30  C        -30.9570  -16.7960   14.4250 C.2    38  ALA38       0.2260
     31  O        -31.4070  -15.6430   14.4790 O.2    38  ALA38      -0.2867
     32  CB       -30.3960  -17.4390   12.1390 C.3    38  ALA38       0.0290
     33  N        -32.2390   -8.5790   11.9220 N.3    62  HIS62      -0.1226
     34  CA       -32.5080   -8.3910   10.4950 C.3    62  HIS62       0.1752
     35  C        -33.8130   -9.1680   10.2140 C.2    62  HIS62       0.2597
     36  O        -33.9710  -10.2830   10.6570 O.2    62  HIS62      -0.2718
     37  CB       -31.3860   -8.9900    9.6230 C.3    62  HIS62       0.0759
     38  CG       -30.0430   -8.3430    9.7520 C.ar   62  HIS62       0.0818
     39  ND1      -29.2150   -8.4710   10.8570 N.ar   62  HIS62      -0.2268
     40  CD2      -29.4090   -7.5420    8.8880 C.ar   62  HIS62       0.1154
     41  CE1      -28.1100   -7.7450   10.6480 C.ar   62  HIS62       0.1986
     42  NE2      -28.2040   -7.2030    9.4350 N.ar   62  HIS62      -0.2212
     43  N        -34.6900   -8.5420    9.4170 N.am   63  SER63      -0.1938
     44  CA       -35.9350   -9.2000    8.9750 C.3    63  SER63       0.2055
     45  C        -36.2450   -8.7260    7.5710 C.2    63  SER63       0.2642
     46  O        -35.9420   -7.5380    7.2430 O.2    63  SER63      -0.2714
     47  CB       -36.9940   -8.8420    9.9610 C.3    63  SER63       0.2130
     48  OG       -38.1720   -9.5980    9.6580 O.3    63  SER63      -0.2179
     49  N        -36.9210   -9.5450    6.7710 N.am   64  ILE64      -0.1977
     50  CA       -37.4450   -9.1270    5.4740 C.3    64  ILE64       0.1596
     51  C        -38.8640   -8.6040    5.7890 C.2    64  ILE64       0.2287
     52  O        -39.7710   -9.4040    5.9640 O.2    64  ILE64      -0.2864
     53  CB       -37.4260  -10.2430    4.4420 C.3    64  ILE64       0.0276
     54  CG1      -35.9790  -10.6640    4.1740 C.3    64  ILE64       0.0022
     55  CG2      -38.0740   -9.7470    3.1780 C.3    64  ILE64       0.0022
     56  CD1      -35.8630  -11.9710    3.4360 C.3    64  ILE64       0.0001
     57  N        -34.4630   -5.8070    5.5940 N.3   101  MET101     -0.1245
     58  CA       -33.7520   -6.2800    4.4200 C.3   101  MET101      0.1570
     59  C        -34.6790   -6.4710    3.2360 C.2   101  MET101      0.2261
     60  O        -35.7800   -7.0270    3.4110 O.2   101  MET101     -0.2867
     61  CB       -33.0370   -7.6000    4.7510 C.3   101  MET101      0.0387
     62  CG       -32.0060   -7.5590    5.8600 C.3   101  MET101      0.0595
     63  SD       -30.6640   -6.4210    5.5030 S.3   101  MET101     -0.1393
     64  CE       -29.8990   -7.2970    4.1800 C.3   101  MET101      0.0692
     65  N        -30.9960  -10.8930    0.6660 N.3   106  VAL106     -0.1245
     66  CA       -30.7730  -12.0020    1.5870 C.3   106  VAL106      0.1561
     67  C        -30.5490  -13.3010    0.8520 C.2   106  VAL106      0.2260
     68  O        -31.4690  -13.8370    0.1910 O.2   106  VAL106     -0.2867
     69  CB       -31.9280  -12.1580    2.6170 C.3   106  VAL106      0.0252
     70  CG1      -31.6160  -13.2640    3.5850 C.3   106  VAL106      0.0019
     71  CG2      -32.1510  -10.8180    3.3240 C.3   106  VAL106      0.0019
     72  N        -33.9140  -14.6690   -1.5270 N.3   113  PHE113     -0.1241
     73  CA       -35.3550  -14.7500   -1.3140 C.3   113  PHE113      0.1605
     74  C        -36.1690  -13.9900   -2.3400 C.2   113  PHE113      0.2264
     75  O        -37.4420  -13.9720   -2.2550 O.2   113  PHE113     -0.2867
     76  CB       -35.6830  -14.3190    0.1190 C.3   113  PHE113      0.0534
     77  CG       -35.3670  -15.3410    1.1370 C.ar  113  PHE113     -0.0203
     78  CD1      -35.9850  -16.6140    1.1440 C.ar  113  PHE113     -0.0042
     79  CD2      -34.3600  -15.1490    2.0620 C.ar  113  PHE113     -0.0042
     80  CE1      -35.6500  -17.5800    2.0760 C.ar  113  PHE113     -0.0003
     81  CE2      -34.0550  -16.1350    3.0000 C.ar  113  PHE113     -0.0003
     82  CZ       -34.7130  -17.3520    3.0500 C.ar  113  PHE113     -0.0000
@<TRIPOS>BOND
     1    74    75    2
     2    74    73    1
     3    72    73    1
     4    73    76    1
     5    76    77    1
     6    68    67    2
     7    65    66    1
     8    67    66    1
     9    77    78   ar
    10    77    79   ar
    11    78    80   ar
    12    66    69    1
    13    79    81   ar
    14    80    82   ar
    15    69    71    1
    16    69    70    1
    17    81    82   ar
    18    55    53    1
    19    59    60    2
    20    59    58    1
    21    56    54    1
    22    54    53    1
    23    64    63    1
    24    58    61    1
    25    58    57    1
    26    53    50    1
    27    27    26    1
    28    61    62    1
    29    50    51    1
    30    50    49    1
    31    63    62    1
    32    25    26   ar
    33    25    23   ar
    34    26    24   ar
    35    51    52    2
    36    23    21   ar
    37    49    45   am
    38    24    22   ar
    39    46    45    2
    40    45    44    1
    41    21    22   ar
    42    21    20    1
    43    40    42   ar
    44    40    38   ar
    45    44    43    1
    46    44    47    1
    47    20    17    1
    48    43    35   am
    49    42    41   ar
    50    14    13    1
    51    14    15    1
    52    17    16    1
    53    17    18    1
    54    37    38    1
    55    37    34    1
    56    48    47    1
    57    38    39   ar
    58     1     7    1
    59     1     2    1
    60    19    18    2
    61    35    34    1
    62    35    36    2
    63     7     6    1
    64    34    33    1
    65    13    12    1
    66    41    39   ar
    67     2     3    1
    68     2     5    1
    69     6     5    1
    70     3     4    2
    71     3     8   am
    72    12     9    1
    73     8     9    1
    74    32    29    1
    75     9    10    1
    76    28    29    1
    77    29    30    1
    78    11    10    2
    79    30    31    2
