@<TRIPOS>MOLECULE
tmp/4pm0A00.pdb
 169 163 0 0 0
SMALL
GASTEIGER

@<TRIPOS>ATOM
      1  N        -44.6910   19.9820   -8.1030 N.3    73  TYR73      -0.1227
      2  CA       -44.0410   19.8850   -6.8100 C.3    73  TYR73       0.1736
      3  C        -44.3850   18.5700   -6.0920 C.2    73  TYR73       0.2595
      4  O        -43.4560   17.8550   -5.6420 O.2    73  TYR73      -0.2718
      5  CB       -44.3850   21.0940   -5.9150 C.3    73  TYR73       0.0548
      6  CG       -43.7090   21.0250   -4.5660 C.ar   73  TYR73      -0.0200
      7  CD1      -42.4400   21.6010   -4.3710 C.ar   73  TYR73      -0.0009
      8  CD2      -44.3270   20.3660   -3.4620 C.ar   73  TYR73      -0.0009
      9  CE1      -41.8020   21.5530   -3.0950 C.ar   73  TYR73       0.0417
     10  CE2      -43.7040   20.3080   -2.2160 C.ar   73  TYR73       0.0417
     11  CZ       -42.4220   20.8930   -2.0480 C.ar   73  TYR73       0.1957
     12  OH       -41.7910   20.8880   -0.8060 O.3    73  TYR73      -0.2866
     13  N        -45.6860   18.2790   -5.9530 N.am   74  HIS74      -0.1975
     14  CA       -46.1060   17.0780   -5.2110 C.3    74  HIS74       0.1656
     15  C        -45.9580   15.7460   -6.0160 C.2    74  HIS74       0.2291
     16  O        -46.9130   15.1440   -6.4800 O.2    74  HIS74      -0.2864
     17  CB       -47.4650   17.2810   -4.6120 C.3    74  HIS74       0.0771
     18  CG       -47.4500   18.1970   -3.4140 C.ar   74  HIS74       0.0820
     19  ND1      -47.8860   19.5130   -3.4790 N.ar   74  HIS74      -0.2267
     20  CD2      -46.9870   18.0040   -2.1480 C.ar   74  HIS74       0.1154
     21  CE1      -47.7090   20.0860   -2.2920 C.ar   74  HIS74       0.1986
     22  NE2      -47.1650   19.1980   -1.4650 N.ar   74  HIS74      -0.2212
     23  N        -51.1100   12.5040   -4.4450 N.3   118  HIS118     -0.1241
     24  CA       -51.5190   13.8880   -4.2450 C.3   118  HIS118      0.1621
     25  C        -51.9690   14.4460   -5.6210 C.2   118  HIS118      0.2264
     26  O        -51.2270   14.2910   -6.6500 O.2   118  HIS118     -0.2867
     27  CB       -50.3540   14.6600   -3.6760 C.3   118  HIS118      0.0745
     28  CG       -50.6910   16.0390   -3.1990 C.ar  118  HIS118      0.0817
     29  ND1      -51.2080   17.0320   -4.0220 N.ar  118  HIS118     -0.2268
     30  CD2      -50.5300   16.6080   -1.9770 C.ar  118  HIS118      0.1154
     31  CE1      -51.3690   18.1330   -3.3150 C.ar  118  HIS118      0.1986
     32  NE2      -50.9610   17.9030   -2.0750 N.ar  118  HIS118     -0.2212
     33  N        -54.1280   14.4320    3.6900 N.3   144  GLU144     -0.1245
     34  CA       -53.3190   13.5630    4.5820 C.3   144  GLU144      0.1567
     35  C        -54.0340   12.2320    4.8570 C.2   144  GLU144      0.2260
     36  O        -53.3870   11.1730    4.8040 O.2   144  GLU144     -0.2867
     37  CB       -52.9880   14.3100    5.9030 C.3   144  GLU144      0.0388
     38  CG       -52.0400   15.5110    5.5900 C.3   144  GLU144      0.1160
     39  CD       -52.7380   16.7650    4.9670 C.2   144  GLU144      0.3649
     40  OE1      -53.9930   16.9450    5.1480 O.co2 144  GLU144     -0.2457
     41  OE2      -52.0210   17.5700    4.2720 O.co2 144  GLU144     -0.2457
     42  N        -48.4540   16.1650    9.0160 N.3   183  THR183     -0.1218
     43  CA       -48.0290   17.0150    7.8950 C.3   183  THR183      0.1862
     44  C        -49.1430   17.9130    7.3650 C.2   183  THR183      0.2287
     45  O        -48.9270   18.6700    6.4300 O.2   183  THR183     -0.2866
     46  CB       -47.4090   16.2240    6.7470 C.3   183  THR183      0.1770
     47  OG1      -48.3910   15.4040    6.0980 O.3   183  THR183     -0.2211
     48  CG2      -46.2170   15.3440    7.2410 C.3   183  THR183      0.0375
     49  N        -50.3920   21.0520    7.1680 N.3   185  ILE185     -0.1245
     50  CA       -49.8300   22.3580    7.5170 C.3   185  ILE185      0.1561
     51  C        -50.9050   23.2870    8.1150 C.2   185  ILE185      0.2260
     52  O        -50.5870   24.1050    8.9800 O.2   185  ILE185     -0.2867
     53  CB       -49.2010   23.0570    6.2740 C.3   185  ILE185      0.0252
     54  CG1      -48.1750   24.1250    6.6630 C.3   185  ILE185      0.0019
     55  CG2      -50.2980   23.6160    5.4080 C.3   185  ILE185      0.0019
     56  CD1      -47.1830   23.6110    7.5310 C.3   185  ILE185      0.0001
     57  N        -40.8360   17.9110    5.8790 N.3   224  ASP224     -0.1225
     58  CA       -41.7940   18.3160    4.8390 C.3   224  ASP224      0.1805
     59  C        -41.6380   19.7810    4.3970 C.2   224  ASP224      0.2597
     60  O        -42.0400   20.1240    3.2900 O.2   224  ASP224     -0.2718
     61  CB       -43.2500   18.0650    5.3480 C.3   224  ASP224      0.1424
     62  CG       -44.2920   18.0740    4.2090 C.2   224  ASP224      0.3668
     63  OD1      -43.9000   17.8460    3.0480 O.co2 224  ASP224     -0.2456
     64  OD2      -45.5230   18.3250    4.4480 O.co2 224  ASP224     -0.2456
     65  N        -41.1850   20.6710    5.2840 N.am  225  ILE225     -0.1980
     66  CA       -41.0780   22.0550    4.9040 C.3   225  ILE225      0.1595
     67  C        -39.6430   22.5370    5.0420 C.2   225  ILE225      0.2287
     68  O        -39.4330   23.7210    5.2370 O.2   225  ILE225     -0.2864
     69  CB       -42.0600   23.0030    5.6470 C.3   225  ILE225      0.0276
     70  CG1      -41.8030   23.1200    7.1610 C.3   225  ILE225      0.0022
     71  CG2      -43.5170   22.5930    5.3480 C.3   225  ILE225      0.0022
     72  CD1      -42.6870   24.1900    7.8160 C.3   225  ILE225      0.0001
     73  N        -37.4330   22.6540    2.6440 N.3   227  ASN227     -0.1226
     74  CA       -36.8870   23.2570    1.3920 C.3   227  ASN227      0.1770
     75  C        -36.0960   24.5870    1.6380 C.2   227  ASN227      0.2439
     76  O        -35.0010   24.7050    1.1350 O.2   227  ASN227     -0.2733
     77  CB       -37.9630   23.5670    0.3440 C.3   227  ASN227      0.1168
     78  CG       -38.6080   22.3360   -0.2260 C.2   227  ASN227      0.2627
     79  OD1      -39.6990   22.4260   -0.8100 O.2   227  ASN227     -0.2716
     80  ND2      -37.9520   21.1550   -0.0490 N.am  227  ASN227     -0.0877
     81  N        -36.6880   25.5690    2.3800 N.am  228  PRO228     -0.2729
     82  CA       -35.9390   26.8290    2.5360 C.3   228  PRO228      0.1401
     83  C        -34.6990   26.6840    3.4390 C.2   228  PRO228      0.2269
     84  O        -33.9080   27.6340    3.4950 O.2   228  PRO228     -0.2865
     85  CB       -36.9670   27.8200    3.1450 C.3   228  PRO228      0.0296
     86  CG       -38.3120   27.0900    3.1310 C.3   228  PRO228      0.0237
     87  CD       -38.0230   25.6340    3.0110 C.3   228  PRO228      0.0939
     88  N        -36.9500   24.2510   -5.4940 N.3   238  TRP238     -0.1227
     89  CA       -38.1790   23.8910   -4.7880 C.3   238  TRP238      0.1737
     90  C        -39.1910   25.0020   -4.8210 C.2   238  TRP238      0.2596
     91  O        -40.3510   24.7330   -5.0530 O.2   238  TRP238     -0.2718
     92  CB       -37.9310   23.4960   -3.3450 C.3   238  TRP238      0.0564
     93  CG       -37.1470   22.2090   -3.1960 C.ar  238  TRP238      0.0003
     94  CD1      -35.9370   22.0760   -2.5680 C.ar  238  TRP238      0.0946
     95  CD2      -37.4940   20.8910   -3.6830 C.ar  238  TRP238      0.0152
     96  NE1      -35.5200   20.7750   -2.6200 N.ar  238  TRP238     -0.2442
     97  CE2      -36.4590   20.0220   -3.2810 C.ar  238  TRP238      0.0810
     98  CE3      -38.5940   20.3610   -4.3860 C.ar  238  TRP238      0.0012
     99  CZ2      -36.4610   18.6610   -3.5800 C.ar  238  TRP238      0.0191
    100  CZ3      -38.5840   19.0360   -4.6850 C.ar  238  TRP238      0.0001
    101  CH2      -37.5190   18.1870   -4.2910 C.ar  238  TRP238      0.0015
    102  N        -38.7440   26.2540   -4.6690 N.am  239  SER239     -0.1952
    103  CA       -39.6540   27.4210   -4.6820 C.3   239  SER239      0.1924
    104  C        -40.3490   27.6760   -6.0190 C.2   239  SER239      0.2314
    105  O        -41.4970   28.1540   -6.0270 O.2   239  SER239     -0.2863
    106  CB       -38.9080   28.7080   -4.2970 C.3   239  SER239      0.2116
    107  OG       -38.3770   28.5400   -3.0050 O.3   239  SER239     -0.2180
    108  N        -42.9650   24.7320   -6.3950 N.3   242  VAL242     -0.1245
    109  CA       -44.1560   24.8530   -5.5380 C.3   242  VAL242      0.1561
    110  C        -45.0410   25.9820   -6.0740 C.2   242  VAL242      0.2260
    111  O        -46.2850   25.8750   -6.1090 O.2   242  VAL242     -0.2867
    112  CB       -43.8040   24.9830   -4.0360 C.3   242  VAL242      0.0252
    113  CG1      -43.4760   26.4630   -3.6190 C.3   242  VAL242      0.0019
    114  CG2      -44.9660   24.4250   -3.1620 C.3   242  VAL242      0.0019
    115  N        -48.9370   25.9290   -7.3120 N.3   246  PHE246     -0.1241
    116  CA       -49.9630   26.8210   -6.7370 C.3   246  PHE246      0.1605
    117  C        -50.6400   27.6440   -7.8830 C.2   246  PHE246      0.2264
    118  O        -51.8760   27.7550   -7.9920 O.2   246  PHE246     -0.2867
    119  CB       -49.3480   27.7950   -5.7330 C.3   246  PHE246      0.0534
    120  CG       -48.9360   27.1860   -4.4160 C.ar  246  PHE246     -0.0203
    121  CD1      -49.2010   25.8470   -4.1150 C.ar  246  PHE246     -0.0042
    122  CD2      -48.2460   27.9850   -3.4840 C.ar  246  PHE246     -0.0042
    123  CE1      -48.8130   25.2880   -2.8980 C.ar  246  PHE246     -0.0003
    124  CE2      -47.8470   27.4560   -2.2280 C.ar  246  PHE246     -0.0003
    125  CZ       -48.1300   26.0900   -1.9390 C.ar  246  PHE246     -0.0000
    126  N        -52.3530   32.7480   -2.4480 N.3   263  LEU263     -0.1245
    127  CA       -51.0870   32.2430   -2.9480 C.3   263  LEU263      0.1561
    128  C        -51.1300   31.6410   -4.3390 C.2   263  LEU263      0.2260
    129  O        -50.1030   31.1770   -4.7910 O.2   263  LEU263     -0.2867
    130  CB       -50.5230   31.1840   -1.9600 C.3   263  LEU263      0.0270
    131  CG       -49.6520   31.5800   -0.7540 C.3   263  LEU263      0.0019
    132  CD1      -49.6260   33.1030   -0.4490 C.3   263  LEU263      0.0001
    133  CD2      -50.0300   30.7860    0.4420 C.3   263  LEU263      0.0001
    134  N        -44.1780   35.1620   -1.6520 N.3   274  ILE274     -0.1231
    135  CA       -44.7310   33.9070   -1.1830 C.3   274  ILE274      0.1692
    136  C        -43.6880   33.1770   -0.3220 C.2   274  ILE274      0.2591
    137  O        -43.9980   32.8070    0.8030 O.2   274  ILE274     -0.2718
    138  CB       -45.2320   33.0510   -2.3730 C.3   274  ILE274      0.0266
    139  CG1      -46.5160   33.6640   -2.9350 C.3   274  ILE274      0.0019
    140  CG2      -45.3840   31.5150   -1.9310 C.3   274  ILE274      0.0020
    141  CD1      -46.9820   32.9740   -4.2210 C.3   274  ILE274      0.0001
    142  N        -42.4450   33.0500   -0.7920 N.am  275  GLN275     -0.1979
    143  CA       -41.4100   32.4280    0.0390 C.3   275  GLN275      0.1601
    144  C        -41.1600   33.1840    1.3430 C.2   275  GLN275      0.2287
    145  O        -41.0170   32.5880    2.4100 O.2   275  GLN275     -0.2864
    146  CB       -40.1090   32.3020   -0.7530 C.3   275  GLN275      0.0394
    147  CG       -40.2090   31.2020   -1.8490 C.3   275  GLN275      0.0908
    148  CD       -40.4420   29.8060   -1.2170 C.2   275  GLN275      0.2608
    149  OE1      -39.6840   29.3750   -0.3310 O.2   275  GLN275     -0.2717
    150  NE2      -41.5010   29.1530   -1.6270 N.am  275  GLN275     -0.0878
    151  N        -43.9610   32.6850    3.9880 N.3   278  PHE278     -0.1241
    152  CA       -43.8480   31.2820    4.4040 C.3   278  PHE278      0.1605
    153  C        -42.6690   31.0350    5.3480 C.2   278  PHE278      0.2264
    154  O        -42.8040   30.4210    6.4000 O.2   278  PHE278     -0.2867
    155  CB       -43.8060   30.3880    3.1230 C.3   278  PHE278      0.0534
    156  CG       -43.5700   28.9150    3.3970 C.ar  278  PHE278     -0.0203
    157  CD1      -44.5300   28.1580    4.0480 C.ar  278  PHE278     -0.0042
    158  CD2      -42.3900   28.3130    3.0090 C.ar  278  PHE278     -0.0042
    159  CE1      -44.3090   26.7900    4.2940 C.ar  278  PHE278     -0.0003
    160  CE2      -42.1300   26.9480    3.2700 C.ar  278  PHE278     -0.0003
    161  CZ       -43.1050   26.1890    3.8970 C.ar  278  PHE278     -0.0000
    162  N        -44.2540   30.2440    8.8820 N.3   282  LEU282     -0.1245
    163  CA       -44.2960   28.7630    9.0540 C.3   282  LEU282      0.1561
    164  C        -42.9250   28.1070    9.2920 C.2   282  LEU282      0.2260
    165  O        -42.7710   27.3060   10.2560 O.2   282  LEU282     -0.2867
    166  CB       -45.0380   28.0940    7.8600 C.3   282  LEU282      0.0270
    167  CG       -46.5550   28.4330    7.8880 C.3   282  LEU282      0.0019
    168  CD1      -47.2600   28.2560    6.5680 C.3   282  LEU282      0.0001
    169  CD2      -47.3310   27.6420    8.9910 C.3   282  LEU282      0.0001
@<TRIPOS>BOND
     1     1     2    1
     2   118   117    2
     3   117   116    1
     4   115   116    1
     5     2     3    1
     6     2     5    1
     7   116   119    1
     8    26    25    2
     9    16    15    2
    10   108   109    1
    11   111   110    2
    12     3    13   am
    13     3     4    2
    14   110   109    1
    15   105   104    2
    16   104   103    1
    17    15    14    1
    18    13    14    1
    19     5     6    1
    20   119   120    1
    21    25    24    1
    22   109   112    1
    23    88    89    1
    24    14    17    1
    25    91    90    2
    26    90    89    1
    27    90   102   am
    28   129   128    2
    29    89    92    1
    30   100    98   ar
    31   100   101   ar
    32   103   102    1
    33   103   106    1
    34    17    18    1
    35     6     7   ar
    36     6     8   ar
    37    23    24    1
    38   120   121   ar
    39   120   122   ar
    40    98    95   ar
    41     7     9   ar
    42   128   127    1
    43   106   107    1
    44   101    99   ar
    45    24    27    1
    46   141   139    1
    47   121   123   ar
    48   112   113    1
    49   112   114    1
    50    29    31   ar
    51    29    28   ar
    52    95    97   ar
    53    95    93   ar
    54    27    28    1
    55    99    97   ar
    56   122   124   ar
    57    19    18   ar
    58    19    21   ar
    59     8    10   ar
    60    18    20   ar
    61    92    93    1
    62    31    32   ar
    63    97    96   ar
    64    28    30   ar
    65    93    94   ar
    66     9    11   ar
    67   127   126    1
    68   127   130    1
    69   139   138    1
    70   123   125   ar
    71    96    94   ar
    72   138   140    1
    73   138   135    1
    74    21    22   ar
    75   124   125   ar
    76    10    11   ar
    77    20    22   ar
    78    32    30   ar
    79    11    12    1
    80   130   131    1
    81   147   148    1
    82   147   146    1
    83   134   135    1
    84   150   148   am
    85   148   149    2
    86   135   136    1
    87    79    78    2
    88   142   136   am
    89   142   143    1
    90   131   132    1
    91   131   133    1
    92   146   143    1
    93   136   137    2
    94    78    80   am
    95    78    77    1
    96   143   144    1
    97    77    74    1
    98    76    75    2
    99   144   145    2
   100    74    75    1
   101    74    73    1
   102    75    81   am
   103    81    82    1
   104    81    87    1
   105    82    85    1
   106    82    83    1
   107   158   160   ar
   108   158   156   ar
   109    87    86    1
   110    63    62   ar
   111   155   156    1
   112   155   152    1
   113    86    85    1
   114   160   161   ar
   115    60    59    2
   116   156   157   ar
   117    83    84    2
   118    33    34    1
   119   161   159   ar
   120   151   152    1
   121   157   159   ar
   122    62    64   ar
   123    62    61    1
   124    41    39   ar
   125    59    58    1
   126    59    65   am
   127   152   153    1
   128    34    35    1
   129    34    37    1
   130    36    35    2
   131    58    61    1
   132    58    57    1
   133    66    67    1
   134    66    65    1
   135    66    69    1
   136    39    40   ar
   137    39    38    1
   138    67    68    2
   139   153   154    2
   140    71    69    1
   141    55    53    1
   142    38    37    1
   143    69    70    1
   144    47    46    1
   145    53    54    1
   146    53    50    1
   147    45    44    2
   148   168   167    1
   149    54    56    1
   150    46    48    1
   151    46    43    1
   152    70    72    1
   153    49    50    1
   154    44    43    1
   155    50    51    1
   156   166   167    1
   157   166   163    1
   158   167   169    1
   159    43    42    1
   160    51    52    2
   161   162   163    1
   162   163   164    1
   163   164   165    2
