@<TRIPOS>MOLECULE
tmp/4pm1B00.pdb
 71 63 0 0 0
SMALL
GASTEIGER

@<TRIPOS>ATOM
      1  N         19.5000   35.3930   60.7760 N.3     6  LYS6       -0.1245
      2  CA        18.7120   36.6120   60.8480 C.3     6  LYS6        0.1561
      3  C         18.0920   36.9180   59.5040 C.2     6  LYS6        0.2260
      4  O         18.7790   36.8790   58.4760 O.2     6  LYS6       -0.2867
      5  CB        19.5610   37.7930   61.3020 C.3     6  LYS6        0.0271
      6  CG        18.7320   39.0590   61.4860 C.3     6  LYS6        0.0035
      7  CD        19.4790   40.1430   62.2370 C.3     6  LYS6        0.0206
      8  CE        18.6160   41.3940   62.3930 C.3     6  LYS6        0.1093
      9  NZ        17.4940   41.2180   63.3580 N.3     6  LYS6       -0.1314
     10  N         15.4000   39.4300   57.2170 N.3     8  LEU8       -0.1245
     11  CA        14.7010   40.6980   57.0630 C.3     8  LEU8        0.1561
     12  C         13.8380   40.7120   55.8130 C.2     8  LEU8        0.2260
     13  O         14.1400   40.0450   54.8170 O.2     8  LEU8       -0.2867
     14  CB        15.6940   41.8520   56.9910 C.3     8  LEU8        0.0270
     15  CG        16.4930   42.1970   58.2400 C.3     8  LEU8        0.0019
     16  CD1       17.3050   43.3650   57.8730 C.3     8  LEU8        0.0001
     17  CD2       15.5990   42.5840   59.4050 C.3     8  LEU8        0.0001
     18  N         15.0560   36.6180   64.1600 N.3    45  GLU45      -0.1245
     19  CA        16.2660   35.8910   64.5000 C.3    45  GLU45       0.1567
     20  C         15.9670   34.4780   64.9510 C.2    45  GLU45       0.2260
     21  O         14.8820   34.1780   65.4510 O.2    45  GLU45      -0.2867
     22  CB        17.0430   36.6360   65.5860 C.3    45  GLU45       0.0388
     23  CG        17.5730   37.9740   65.1010 C.3    45  GLU45       0.1160
     24  CD        18.2940   38.7680   66.1790 C.2    45  GLU45       0.3649
     25  OE1       18.5850   38.2030   67.2520 O.co2  45  GLU45      -0.2457
     26  OE2       18.5690   39.9660   65.9490 O.co2  45  GLU45      -0.2457
     27  N         26.9510   34.3510   61.6840 N.3    97  THR97      -0.1218
     28  CA        25.6010   34.8510   61.5240 C.3    97  THR97       0.1862
     29  C         25.2650   34.7860   60.0500 C.2    97  THR97       0.2287
     30  O         25.9240   35.4230   59.2250 O.2    97  THR97      -0.2866
     31  CB        25.4660   36.2800   62.0440 C.3    97  THR97       0.1770
     32  OG1       25.6970   36.2810   63.4630 O.3    97  THR97      -0.2211
     33  CG2       24.0750   36.8190   61.7780 C.3    97  THR97       0.0375
     34  N         22.7600   35.8830   57.4820 N.3    99  ALA99      -0.1231
     35  CA        21.6840   36.8480   57.3290 C.3    99  ALA99       0.1694
     36  C         21.0960   36.7870   55.9450 C.2    99  ALA99       0.2592
     37  O         21.8010   36.4410   54.9870 O.2    99  ALA99      -0.2718
     38  CB        22.1830   38.2050   57.6070 C.3    99  ALA99       0.0304
     39  N         19.8140   37.1030   55.8320 N.am  100  ALA100     -0.1966
     40  CA        19.1640   37.1190   54.5380 C.3   100  ALA100      0.1728
     41  C         18.2070   38.2790   54.4840 C.2   100  ALA100      0.2616
     42  O         17.5220   38.5750   55.4720 O.2   100  ALA100     -0.2715
     43  CB        18.4300   35.8260   54.2710 C.3   100  ALA100      0.0334
     44  N         18.1560   38.9170   53.3250 N.am  101  LEU101     -0.1977
     45  CA        17.2570   40.0200   53.0590 C.3   101  LEU101      0.1596
     46  C         16.3410   39.5730   51.9320 C.2   101  LEU101      0.2287
     47  O         16.8180   39.2650   50.8350 O.2   101  LEU101     -0.2864
     48  CB        18.0490   41.2610   52.6710 C.3   101  LEU101      0.0297
     49  CG        17.2100   42.4610   52.2500 C.3   101  LEU101      0.0022
     50  CD1       16.4390   43.0100   53.4330 C.3   101  LEU101      0.0001
     51  CD2       18.1050   43.5060   51.6360 C.3   101  LEU101      0.0001
     52  N         19.1680   38.4090   49.1310 N.3   108  SER108     -0.1217
     53  CA        20.5850   38.6490   49.3710 C.3   108  SER108      0.1889
     54  C         20.9500   37.9750   50.6770 C.2   108  SER108      0.2288
     55  O         20.1830   38.0510   51.6410 O.2   108  SER108     -0.2866
     56  CB        20.8770   40.1460   49.4330 C.3   108  SER108      0.2089
     57  OG        22.2120   40.4060   49.8350 O.3   108  SER108     -0.2183
     58  N         24.2800   37.1440   53.4660 N.3   110  THR110     -0.1218
     59  CA        25.6220   37.4870   53.8560 C.3   110  THR110      0.1862
     60  C         25.9800   36.6100   55.0310 C.2   110  THR110      0.2287
     61  O         25.0970   36.1390   55.7540 O.2   110  THR110     -0.2866
     62  CB        25.7460   38.9710   54.2120 C.3   110  THR110      0.1770
     63  OG1       25.1220   39.7510   53.1800 O.3   110  THR110     -0.2211
     64  CG2       27.2030   39.3530   54.3010 C.3   110  THR110      0.0375
     65  N         28.2160   36.9380   58.3790 N.3   112  VAL112     -0.1245
     66  CA        28.9880   37.7930   59.2640 C.3   112  VAL112      0.1561
     67  C         29.6840   36.8680   60.2390 C.2   112  VAL112      0.2260
     68  O         29.0260   36.1630   61.0230 O.2   112  VAL112     -0.2867
     69  CB        28.1140   38.8000   60.0130 C.3   112  VAL112      0.0252
     70  CG1       28.9910   39.8220   60.7500 C.3   112  VAL112      0.0019
     71  CG2       27.1590   39.4850   59.0460 C.3   112  VAL112      0.0019
@<TRIPOS>BOND
     1    52    53    1
     2    53    56    1
     3    53    54    1
     4    56    57    1
     5    54    55    2
     6    47    46    2
     7    51    49    1
     8    46    45    1
     9    49    48    1
    10    49    50    1
    11    48    45    1
    12    45    44    1
    13    63    62    1
    14    44    41   am
    15    58    59    1
    16    59    62    1
    17    59    60    1
    18    62    64    1
    19    43    40    1
    20    41    40    1
    21    41    42    2
    22    40    39    1
    23    13    12    2
    24    37    36    2
    25    60    61    2
    26    12    11    1
    27    39    36   am
    28    36    35    1
    29    14    11    1
    30    14    15    1
    31    11    10    1
    32    35    34    1
    33    35    38    1
    34    16    15    1
    35    15    17    1
    36    65    66    1
    37     4     3    2
    38    71    69    1
    39    30    29    2
    40    66    69    1
    41    66    67    1
    42     3     2    1
    43    69    70    1
    44    29    28    1
    45    67    68    2
    46     1     2    1
    47     2     5    1
    48     5     6    1
    49     6     7    1
    50    28    27    1
    51    28    31    1
    52    33    31    1
    53    31    32    1
    54     7     8    1
    55     8     9    1
    56    18    19    1
    57    19    20    1
    58    19    22    1
    59    20    21    2
    60    23    22    1
    61    23    24    1
    62    26    24   ar
    63    24    25   ar
