@<TRIPOS>MOLECULE
tmp/4pmdA00.pdb
 151 147 0 0 0
SMALL
GASTEIGER

@<TRIPOS>ATOM
      1  N         -1.6630  -13.8880   17.8210 N.3    41  GLU41      -0.1231
      2  CA        -1.8920  -12.5280   18.3010 C.3    41  GLU41       0.1699
      3  C         -1.5190  -11.5320   17.2160 C.2    41  GLU41       0.2592
      4  O         -2.1520  -10.5300   17.0730 O.2    41  GLU41      -0.2718
      5  CB        -1.0590  -12.2490   19.5750 C.3    41  GLU41       0.0402
      6  CG        -1.3840  -10.9050   20.2180 C.3    41  GLU41       0.1161
      7  CD        -0.4550  -10.5510   21.3610 C.2    41  GLU41       0.3649
      8  OE1        0.5630  -11.2650   21.5430 O.co2  41  GLU41      -0.2457
      9  OE2       -0.7300   -9.5350   22.0280 O.co2  41  GLU41      -0.2457
     10  N         -0.4360  -11.8190   16.4900 N.am   42  ASN42      -0.1974
     11  CA         0.0660  -10.9160   15.4690 C.3    42  ASN42       0.1688
     12  C          0.4940  -11.5830   14.1800 C.2    42  ASN42       0.2292
     13  O          0.5530  -10.9080   13.1490 O.2    42  ASN42      -0.2864
     14  CB         1.2450  -10.0780   16.0180 C.3    42  ASN42       0.1181
     15  CG         0.7740   -9.0090   16.9640 C.2    42  ASN42       0.2629
     16  OD1       -0.0010   -8.1130   16.5810 O.2    42  ASN42      -0.2716
     17  ND2        1.1890   -9.1150   18.2160 N.am   42  ASN42      -0.0877
     18  N         -1.4450  -11.3480   10.8350 N.3    45  LYS45      -0.1245
     19  CA        -1.8300  -10.0240   10.3430 C.3    45  LYS45       0.1561
     20  C         -1.0720   -9.6830    9.0530 C.2    45  LYS45       0.2260
     21  O          0.0590  -10.1400    8.8360 O.2    45  LYS45      -0.2867
     22  CB        -1.6150   -8.9690   11.3780 C.3    45  LYS45       0.0271
     23  CG        -2.5240   -9.1620   12.5580 C.3    45  LYS45       0.0035
     24  CD        -2.1580   -8.2770   13.7180 C.3    45  LYS45       0.0206
     25  CE        -3.1800   -8.4430   14.8340 C.3    45  LYS45       0.1093
     26  NZ        -2.8230   -7.6840   16.0210 N.3    45  LYS45      -0.1314
     27  N          2.5950   -8.6360    8.9190 N.3    48  ARG48      -0.1245
     28  CA         3.5190   -9.6070    9.4480 C.3    48  ARG48       0.1563
     29  C          3.7060  -10.7700    8.5050 C.2    48  ARG48       0.2260
     30  O          4.8490  -11.1650    8.2050 O.2    48  ARG48      -0.2867
     31  CB         3.0680  -10.1440   10.8070 C.3    48  ARG48       0.0307
     32  CG         2.9080   -9.0850   11.8900 C.3    48  ARG48       0.0489
     33  CD         4.1910   -8.3660   12.2210 C.3    48  ARG48       0.2205
     34  NE         3.9350   -7.3600   13.2560 N.pl3  48  ARG48      -0.0865
     35  CZ         4.0400   -7.5590   14.5670 C.cat  48  ARG48       0.5346
     36  NH1        3.7550   -6.5520   15.4070 N.pl3  48  ARG48       0.1354
     37  NH2        4.4100   -8.7460   15.0480 N.pl3  48  ARG48       0.1354
     38  N         -6.7850  -14.8120   12.3580 N.3    78  HIS78      -0.1241
     39  CA        -6.8730  -13.3960   12.6730 C.3    78  HIS78       0.1621
     40  C         -5.7160  -12.6780   12.0250 C.2    78  HIS78       0.2264
     41  O         -4.5550  -12.9550   12.3920 O.2    78  HIS78      -0.2867
     42  CB        -6.7370  -13.2330   14.2040 C.3    78  HIS78       0.0745
     43  CG        -6.8570  -11.8290   14.6880 C.ar   78  HIS78       0.0817
     44  ND1       -8.0560  -11.1590   14.6950 N.ar   78  HIS78      -0.2268
     45  CD2       -5.9330  -10.9510   15.1350 C.ar   78  HIS78       0.1154
     46  CE1       -7.8680   -9.9270   15.1460 C.ar   78  HIS78       0.1986
     47  NE2       -6.5890   -9.7750   15.4040 N.ar   78  HIS78      -0.2212
     48  N         -8.0000   -5.5190    7.8300 N.3    82  TRP82      -0.1241
     49  CA        -8.0490   -4.6140    8.9750 C.3    82  TRP82       0.1605
     50  C         -7.3800   -3.2810    8.5920 C.2    82  TRP82       0.2264
     51  O         -6.4060   -3.2920    7.8340 O.2    82  TRP82      -0.2867
     52  CB        -7.3480   -5.2540   10.1910 C.3    82  TRP82       0.0550
     53  CG        -7.4160   -4.5700   11.5010 C.ar   82  TRP82       0.0003
     54  CD1       -8.4210   -3.7900   11.9930 C.ar   82  TRP82       0.0946
     55  CD2       -6.4740   -4.7070   12.5670 C.ar   82  TRP82       0.0152
     56  NE1       -8.1380   -3.3950   13.2720 N.ar   82  TRP82      -0.2442
     57  CE2       -6.9340   -3.9180   13.6430 C.ar   82  TRP82       0.0810
     58  CE3       -5.2300   -5.3210   12.6760 C.ar   82  TRP82       0.0012
     59  CZ2       -6.2270   -3.7990   14.8310 C.ar   82  TRP82       0.0191
     60  CZ3       -4.5490   -5.2070   13.8610 C.ar   82  TRP82       0.0001
     61  CH2       -5.0400   -4.4700   14.9180 C.ar   82  TRP82       0.0015
     62  N         -2.1270   -2.5540   11.0360 N.3    85  GLN85      -0.1245
     63  CA        -1.1530   -3.6020   10.7350 C.3    85  GLN85       0.1566
     64  C         -1.3080   -4.1760    9.3320 C.2    85  GLN85       0.2260
     65  O         -1.2440   -5.4090    9.1160 O.2    85  GLN85      -0.2867
     66  CB        -1.1430   -4.6720   11.8380 C.3    85  GLN85       0.0367
     67  CG        -0.7060   -4.1140   13.1990 C.3    85  GLN85       0.0905
     68  CD        -0.7100   -5.1370   14.3100 C.2    85  GLN85       0.2608
     69  OE1       -1.6180   -5.1670   15.1310 O.2    85  GLN85      -0.2717
     70  NE2        0.3320   -5.9720   14.3650 N.am   85  GLN85      -0.0878
     71  N        -12.0470   -7.0130   10.1930 N.3   129  ASN129     -0.1225
     72  CA       -11.8670   -6.6030   11.5790 C.3   129  ASN129      0.1785
     73  C        -12.0840   -5.1060   11.7120 C.2   129  ASN129      0.2597
     74  O        -11.4920   -4.3170   10.9970 O.2   129  ASN129     -0.2718
     75  CB       -10.4150   -6.9600   12.0020 C.3   129  ASN129      0.1169
     76  CG       -10.2510   -7.0970   13.4990 C.2   129  ASN129      0.2627
     77  OD1      -11.0840   -7.6770   14.1860 O.2   129  ASN129     -0.2716
     78  ND2       -9.1600   -6.5730   14.0150 N.am  129  ASN129     -0.0877
     79  N        -12.9890   -4.7310   12.6130 N.am  130  ALA130     -0.1979
     80  CA       -13.1510   -3.3040   13.0110 C.3   130  ALA130      0.1597
     81  C        -13.5170   -2.3440   11.8680 C.2   130  ALA130      0.2287
     82  O        -13.0290   -1.2440   11.7840 O.2   130  ALA130     -0.2864
     83  CB       -11.8930   -2.8580   13.7620 C.3   130  ALA130      0.0319
     84  N        -14.6210   -4.5120   18.3170 N.3   175  TYR175     -0.1241
     85  CA       -14.6040   -4.1300   19.7350 C.3   175  TYR175      0.1605
     86  C        -15.7320   -3.1200   19.9850 C.2   175  TYR175      0.2264
     87  O        -16.2320   -2.4740   19.0600 O.2   175  TYR175     -0.2867
     88  CB       -13.2450   -3.5220   20.1380 C.3   175  TYR175      0.0534
     89  CG       -12.9040   -2.2670   19.4110 C.ar  175  TYR175     -0.0201
     90  CD1      -12.2700   -2.2960   18.1740 C.ar  175  TYR175     -0.0009
     91  CD2      -13.2180   -1.0230   19.9390 C.ar  175  TYR175     -0.0009
     92  CE1      -11.9470   -1.1560   17.4840 C.ar  175  TYR175      0.0417
     93  CE2      -12.9150    0.1470   19.2460 C.ar  175  TYR175      0.0417
     94  CZ       -12.2810    0.0870   18.0230 C.ar  175  TYR175      0.1957
     95  OH       -11.9790    1.2550   17.3970 O.3   175  TYR175     -0.2866
     96  N        -15.0430   -8.7910   20.5420 N.3   206  GLN206     -0.1245
     97  CA       -13.6690   -8.8100   21.0520 C.3   206  GLN206      0.1566
     98  C        -13.5830   -8.8660   22.5660 C.2   206  GLN206      0.2260
     99  O        -12.7840   -9.5540   23.1130 O.2   206  GLN206     -0.2867
    100  CB       -12.8590   -7.6630   20.5080 C.3   206  GLN206      0.0367
    101  CG       -12.4440   -7.8300   19.0530 C.3   206  GLN206      0.0905
    102  CD       -11.6240   -6.6980   18.5190 C.2   206  GLN206      0.2608
    103  OE1      -11.1400   -5.8580   19.2870 O.2   206  GLN206     -0.2717
    104  NE2      -11.4880   -6.6260   17.2140 N.am  206  GLN206     -0.0878
    105  N        -12.7730   -6.5010   24.8560 N.3   208  HIS208     -0.1241
    106  CA       -11.7270   -5.7690   25.5710 C.3   208  HIS208      0.1621
    107  C        -12.4170   -4.8850   26.6040 C.2   208  HIS208      0.2264
    108  O        -12.7580   -3.7260   26.3460 O.2   208  HIS208     -0.2867
    109  CB       -10.8770   -4.9820   24.5820 C.3   208  HIS208      0.0745
    110  CG       -10.0040   -5.8640   23.7400 C.ar  208  HIS208      0.0817
    111  ND1       -9.0380   -6.6670   24.2830 N.ar  208  HIS208     -0.2268
    112  CD2       -9.9720   -6.0920   22.3970 C.ar  208  HIS208      0.1154
    113  CE1       -8.4490   -7.3660   23.3140 C.ar  208  HIS208      0.1986
    114  NE2       -8.9830   -7.0080   22.1660 N.ar  208  HIS208     -0.2212
    115  N        -11.4380  -11.9600   21.9770 N.3   238  GLU238     -0.1245
    116  CA       -10.2410  -11.3220   22.5080 C.3   238  GLU238      0.1567
    117  C        -10.4530  -10.8610   23.9410 C.2   238  GLU238      0.2260
    118  O         -9.9930   -9.7770   24.3420 O.2   238  GLU238     -0.2867
    119  CB        -9.8250  -10.1480   21.6340 C.3   238  GLU238      0.0388
    120  CG        -9.7210  -10.4720   20.1460 C.3   238  GLU238      0.1160
    121  CD        -9.2100   -9.3360   19.2990 C.2   238  GLU238      0.3649
    122  OE1       -8.7110   -8.3020   19.7990 O.co2 238  GLU238     -0.2457
    123  OE2       -9.2570   -9.5270   18.0520 O.co2 238  GLU238     -0.2457
    124  N         -7.3960  -12.8620   25.3230 N.3   288  TRP288     -0.1241
    125  CA        -6.3320  -12.2290   24.5650 C.3   288  TRP288      0.1605
    126  C         -5.0030  -12.3330   25.3090 C.2   288  TRP288      0.2264
    127  O         -4.3540  -11.3460   25.5660 O.2   288  TRP288     -0.2867
    128  CB        -6.6840  -10.8100   24.1950 C.3   288  TRP288      0.0550
    129  CG        -6.0010  -10.3570   22.8950 C.ar  288  TRP288      0.0003
    130  CD1       -5.1320   -9.3330   22.7420 C.ar  288  TRP288      0.0946
    131  CD2       -6.1390  -10.9580   21.6070 C.ar  288  TRP288      0.0152
    132  NE1       -4.7240   -9.2180   21.4300 N.ar  288  TRP288     -0.2442
    133  CE2       -5.3210  -10.2220   20.7080 C.ar  288  TRP288      0.0810
    134  CE3       -6.8780  -12.0440   21.1200 C.ar  288  TRP288      0.0012
    135  CZ2       -5.2160  -10.5430   19.3410 C.ar  288  TRP288      0.0191
    136  CZ3       -6.7550  -12.3700   19.7490 C.ar  288  TRP288      0.0001
    137  CH2       -5.9470  -11.6340   18.8970 C.ar  288  TRP288      0.0015
    138  N         -0.9200   -7.3760   25.9160 N.3   296  TRP296     -0.1241
    139  CA        -0.8300   -6.1410   25.1650 C.3   296  TRP296      0.1605
    140  C         -1.2840   -4.9420   26.0240 C.2   296  TRP296      0.2264
    141  O         -1.0200   -3.7930   25.6820 O.2   296  TRP296     -0.2867
    142  CB        -1.6880   -6.2100   23.8980 C.3   296  TRP296      0.0550
    143  CG        -3.1570   -6.0300   24.0790 C.ar  296  TRP296      0.0003
    144  CD1       -3.9880   -6.7610   24.8710 C.ar  296  TRP296      0.0946
    145  CD2       -3.9760   -5.0530   23.4270 C.ar  296  TRP296      0.0152
    146  NE1       -5.2690   -6.3080   24.7420 N.ar  296  TRP296     -0.2442
    147  CE2       -5.2970   -5.2570   23.8670 C.ar  296  TRP296      0.0810
    148  CE3       -3.7230   -4.0060   22.5300 C.ar  296  TRP296      0.0012
    149  CZ2       -6.3510   -4.4440   23.4580 C.ar  296  TRP296      0.0191
    150  CZ3       -4.7790   -3.1990   22.1260 C.ar  296  TRP296      0.0001
    151  CH2       -6.0720   -3.4290   22.5730 C.ar  296  TRP296      0.0015
@<TRIPOS>BOND
     1    48    49    1
     2    51    50    2
     3    30    29    2
     4    29    28    1
     5    50    49    1
     6    21    20    2
     7    27    28    1
     8    49    52    1
     9    20    19    1
    10    65    64    2
    11    64    63    1
    12    28    31    1
    13    52    53    1
    14    71    72    1
    15    19    18    1
    16    19    22    1
    17    63    62    1
    18    63    66    1
    19    31    32    1
    20    74    73    2
    21    22    23    1
    22    53    54   ar
    23    53    55   ar
    24    72    73    1
    25    72    75    1
    26    73    79   am
    27    82    81    2
    28    66    67    1
    29    81    80    1
    30    32    33    1
    31    54    56   ar
    32    75    76    1
    33    40    41    2
    34    40    39    1
    35    33    34    1
    36    38    39    1
    37    23    24    1
    38    55    58   ar
    39    55    57   ar
    40    79    80    1
    41    39    42    1
    42    58    60   ar
    43    80    83    1
    44    13    12    2
    45    67    68    1
    46    34    35    2
    47    56    57   ar
    48    76    78   am
    49    76    77    2
    50    57    59   ar
    51    24    25    1
    52    60    61   ar
    53    12    11    1
    54    42    43    1
    55    68    70   am
    56    68    69    2
    57    35    37    1
    58    35    36    1
    59    43    44   ar
    60    43    45   ar
    61    44    46   ar
    62    59    61   ar
    63    25    26    1
    64    45    47   ar
    65    46    47   ar
    66    11    14    1
    67    11    10    1
    68    14    15    1
    69    10     3   am
    70    16    15    2
    71    15    17   am
    72     4     3    2
    73   104   102   am
    74     3     2    1
    75    95    94    1
    76    92    94   ar
    77    92    90   ar
    78     1     2    1
    79    94    93   ar
    80   123   121   ar
    81    90    89   ar
    82     2     5    1
    83    84    85    1
    84   102   101    1
    85   102   103    2
    86   137   135   ar
    87   137   136   ar
    88   101   100    1
    89    87    86    2
    90    93    91   ar
    91   121   122   ar
    92   121   120    1
    93   135   133   ar
    94    89    91   ar
    95    89    88    1
    96     5     6    1
    97    85    86    1
    98    85    88    1
    99   136   134   ar
   100   120   119    1
   101     6     7    1
   102   100    97    1
   103    96    97    1
   104   133   132   ar
   105   133   131   ar
   106    97    98    1
   107   134   131   ar
   108     7     8   ar
   109     7     9   ar
   110   132   130   ar
   111   131   129   ar
   112   119   116    1
   113   115   116    1
   114   150   148   ar
   115   150   151   ar
   116   114   112   ar
   117   114   113   ar
   118   112   110   ar
   119   116   117    1
   120   148   145   ar
   121    98    99    2
   122   151   149   ar
   123   130   129   ar
   124   129   128    1
   125   113   111   ar
   126   145   147   ar
   127   145   143   ar
   128   149   147   ar
   129   110   111   ar
   130   110   109    1
   131   147   146   ar
   132   142   143    1
   133   142   139    1
   134   117   118    2
   135   143   144   ar
   136   128   125    1
   137   125   126    1
   138   125   124    1
   139   109   106    1
   140   146   144   ar
   141   105   106    1
   142   139   138    1
   143   139   140    1
   144   126   127    2
   145   106   107    1
   146   141   140    2
   147   108   107    2
