@<TRIPOS>MOLECULE
tmp/4pmfB00.pdb
 95 86 0 0 0
SMALL
GASTEIGER

@<TRIPOS>ATOM
      1  N         23.9180   31.4120   64.6980 N.3     5  MET5       -0.1245
      2  CA        22.7450   32.2530   64.8530 C.3     5  MET5        0.1570
      3  C         22.2110   32.5690   63.4690 C.2     5  MET5        0.2261
      4  O         22.9920   32.6780   62.5240 O.2     5  MET5       -0.2867
      5  CB        23.0960   33.5440   65.5970 C.3     5  MET5        0.0387
      6  CG        23.6130   33.3090   67.0110 C.3     5  MET5        0.0595
      7  SD        24.5590   34.6980   67.6720 S.3     5  MET5       -0.1393
      8  CE        26.1450   34.4330   66.8780 C.3     5  MET5        0.0692
      9  N         19.5170   35.2940   61.3870 N.3     7  LYS7       -0.1245
     10  CA        18.7260   36.5130   61.4560 C.3     7  LYS7        0.1561
     11  C         18.0660   36.7560   60.1130 C.2     7  LYS7        0.2260
     12  O         18.7320   36.6920   59.0750 O.2     7  LYS7       -0.2867
     13  CB        19.6060   37.7020   61.8390 C.3     7  LYS7        0.0271
     14  CG        18.9740   39.0610   61.6050 C.3     7  LYS7        0.0035
     15  CD        17.9450   39.3860   62.6660 C.3     7  LYS7        0.0206
     16  CE        18.3320   40.6610   63.3960 C.3     7  LYS7        0.1093
     17  NZ        17.4100   40.9810   64.5250 N.3     7  LYS7       -0.1314
     18  N         15.3710   39.2240   57.7870 N.3     9  LEU9       -0.1245
     19  CA        14.6830   40.5010   57.6030 C.3     9  LEU9        0.1561
     20  C         13.7960   40.4920   56.3730 C.2     9  LEU9        0.2260
     21  O         14.0800   39.8190   55.3830 O.2     9  LEU9       -0.2867
     22  CB        15.6940   41.6500   57.4840 C.3     9  LEU9        0.0270
     23  CG        16.6350   41.9350   58.6550 C.3     9  LEU9        0.0019
     24  CD1       17.5180   43.1230   58.3200 C.3     9  LEU9        0.0001
     25  CD2       15.8520   42.1930   59.9320 C.3     9  LEU9        0.0001
     26  N         32.3520   32.4500   65.8730 N.3    96  ARG96      -0.1245
     27  CA        30.8960   32.3760   65.8750 C.3    96  ARG96       0.1563
     28  C         30.3860   32.7090   64.4720 C.2    96  ARG96       0.2260
     29  O         31.0470   33.4380   63.7300 O.2    96  ARG96      -0.2867
     30  CB        30.2960   33.3270   66.9130 C.3    96  ARG96       0.0307
     31  CG        30.8890   33.1710   68.3110 C.3    96  ARG96       0.0489
     32  CD        29.8870   33.5390   69.3990 C.3    96  ARG96       0.2205
     33  NE        29.3950   34.9080   69.2700 N.pl3  96  ARG96      -0.0865
     34  CZ        28.2030   35.3170   69.6970 C.cat  96  ARG96       0.5346
     35  NH1       27.3740   34.4620   70.2830 N.pl3  96  ARG96       0.1354
     36  NH2       27.8400   36.5830   69.5390 N.pl3  96  ARG96       0.1354
     37  N         27.0270   34.1160   62.2550 N.3    98  THR98      -0.1218
     38  CA        25.6820   34.6290   62.1000 C.3    98  THR98       0.1862
     39  C         25.3380   34.5920   60.6280 C.2    98  THR98       0.2287
     40  O         26.0570   35.1630   59.8050 O.2    98  THR98      -0.2866
     41  CB        25.5360   36.0550   62.6230 C.3    98  THR98       0.1770
     42  OG1       25.7220   36.0650   64.0470 O.3    98  THR98      -0.2211
     43  CG2       24.1560   36.5790   62.3120 C.3    98  THR98       0.0375
     44  N         22.8410   35.9210   58.0940 N.3   100  ALA100     -0.1231
     45  CA        21.8130   36.9300   57.9350 C.3   100  ALA100      0.1694
     46  C         21.1900   36.7750   56.5660 C.2   100  ALA100      0.2592
     47  O         21.8930   36.5040   55.5910 O.2   100  ALA100     -0.2718
     48  CB        22.3930   38.3220   58.1170 C.3   100  ALA100      0.0304
     49  N         19.8760   36.8970   56.4940 N.am  101  ALA101     -0.1966
     50  CA        19.1720   36.8230   55.2310 C.3   101  ALA101      0.1728
     51  C         18.2200   37.9840   55.1220 C.2   101  ALA101      0.2616
     52  O         17.5500   38.3360   56.0960 O.2   101  ALA101     -0.2715
     53  CB        18.4310   35.5140   55.1190 C.3   101  ALA101      0.0334
     54  N         18.1640   38.5760   53.9390 N.am  102  LEU102     -0.1977
     55  CA        17.2830   39.6870   53.6280 C.3   102  LEU102      0.1596
     56  C         16.3510   39.2360   52.5160 C.2   102  LEU102      0.2287
     57  O         16.8110   38.8580   51.4280 O.2   102  LEU102     -0.2864
     58  CB        18.1040   40.9000   53.1880 C.3   102  LEU102      0.0297
     59  CG        17.2960   42.1120   52.7330 C.3   102  LEU102      0.0022
     60  CD1       16.4990   42.6980   53.8940 C.3   102  LEU102      0.0001
     61  CD2       18.2380   43.1580   52.1360 C.3   102  LEU102      0.0001
     62  N         19.1230   37.9460   49.7300 N.3   109  SER109     -0.1202
     63  CA        20.5310   38.1910   49.9570 C.3   109  SER109      0.2020
     64  C         20.9290   37.4990   51.2470 C.2   109  SER109      0.2619
     65  O         20.1750   37.5400   52.2290 O.2   109  SER109     -0.2717
     66  CB        20.7990   39.6910   50.0360 C.3   109  SER109      0.2103
     67  OG        22.1200   39.9770   50.4630 O.3   109  SER109     -0.2182
     68  N         22.0850   36.8460   51.2660 N.am  110  THR110     -0.1938
     69  CA        22.5210   36.2470   52.4990 C.3   110  THR110      0.2028
     70  C         23.9590   36.6070   52.7500 C.2   110  THR110      0.2642
     71  O         24.7730   36.6660   51.8340 O.2   110  THR110     -0.2714
     72  CB        22.3080   34.7560   52.5130 C.3   110  THR110      0.1808
     73  OG1       22.6550   34.2710   53.8110 O.3   110  THR110     -0.2208
     74  CG2       23.1080   34.0240   51.4530 C.3   110  THR110      0.0379
     75  N         24.2630   36.8880   54.0050 N.am  111  THR111     -0.1950
     76  CA        25.6080   37.2560   54.3770 C.3   111  THR111      0.1897
     77  C         26.0020   36.4500   55.5950 C.2   111  THR111      0.2313
     78  O         25.1510   36.0660   56.4030 O.2   111  THR111     -0.2863
     79  CB        25.7110   38.7700   54.6610 C.3   111  THR111      0.1794
     80  OG1       25.1570   39.4840   53.5460 O.3   111  THR111     -0.2208
     81  CG2       27.1710   39.1860   54.8370 C.3   111  THR111      0.0378
     82  N         28.3680   36.6990   58.9750 N.3   113  VAL113     -0.1245
     83  CA        29.1770   37.5040   59.8680 C.3   113  VAL113      0.1561
     84  C         29.8760   36.5200   60.7870 C.2   113  VAL113      0.2260
     85  O         29.2250   35.8030   61.5590 O.2   113  VAL113     -0.2867
     86  CB        28.3360   38.5050   60.6690 C.3   113  VAL113      0.0252
     87  CG1       29.2450   39.4530   61.4600 C.3   113  VAL113      0.0019
     88  CG2       27.4240   39.2910   59.7400 C.3   113  VAL113      0.0019
     89  N         32.7290   36.0160   63.6490 N.3   115  THR115     -0.1218
     90  CA        33.4250   36.8310   64.6400 C.3   115  THR115      0.1862
     91  C         33.9780   36.0110   65.7890 C.2   115  THR115      0.2287
     92  O         33.7150   34.8140   65.9060 O.2   115  THR115     -0.2866
     93  CB        32.5090   37.9100   65.2460 C.3   115  THR115      0.1770
     94  OG1       31.3530   37.2870   65.8160 O.3   115  THR115     -0.2211
     95  CG2       32.0760   38.9230   64.1870 C.3   115  THR115      0.0375
@<TRIPOS>BOND
     1    62    63    1
     2    63    66    1
     3    63    64    1
     4    66    67    1
     5    64    68   am
     6    64    65    2
     7    68    69    1
     8    57    56    2
     9    74    72    1
    10    71    70    2
    11    61    59    1
    12    69    72    1
    13    69    70    1
    14    72    73    1
    15    56    55    1
    16    59    58    1
    17    59    60    1
    18    70    75   am
    19    58    55    1
    20    80    79    1
    21    55    54    1
    22    54    51   am
    23    75    76    1
    24    76    79    1
    25    76    77    1
    26    79    81    1
    27    53    50    1
    28    51    50    1
    29    51    52    2
    30    50    49    1
    31    21    20    2
    32    47    46    2
    33    77    78    2
    34    20    19    1
    35    49    46   am
    36    46    45    1
    37    22    19    1
    38    22    23    1
    39    19    18    1
    40    45    44    1
    41    45    48    1
    42    24    23    1
    43    23    25    1
    44    82    83    1
    45    12    11    2
    46    88    86    1
    47    40    39    2
    48    83    86    1
    49    83    84    1
    50    11    10    1
    51    39    38    1
    52    86    87    1
    53    84    85    2
    54     9    10    1
    55    10    13    1
    56    14    13    1
    57    14    15    1
    58    38    37    1
    59    38    41    1
    60    43    41    1
    61     4     3    2
    62    41    42    1
    63    15    16    1
    64    16    17    1
    65     3     2    1
    66    89    90    1
    67    29    28    2
    68    95    93    1
    69    28    27    1
    70    90    93    1
    71    90    91    1
    72     1     2    1
    73     2     5    1
    74    93    94    1
    75     5     6    1
    76    91    92    2
    77    26    27    1
    78    27    30    1
    79     8     7    1
    80    30    31    1
    81     6     7    1
    82    31    32    1
    83    33    32    1
    84    33    34    2
    85    36    34    1
    86    34    35    1
