@<TRIPOS>MOLECULE
tmp/4pmmA00.pdb
 224 212 0 0 0
SMALL
GASTEIGER

@<TRIPOS>ATOM
      1  N         22.6130  -38.2330   -6.9250 N.3    16  LEU16      -0.1245
      2  CA        22.6210  -36.8910   -6.3420 C.3    16  LEU16       0.1561
      3  C         22.2930  -35.8810   -7.4450 C.2    16  LEU16       0.2260
      4  O         21.3730  -35.0820   -7.2840 O.2    16  LEU16      -0.2867
      5  CB        23.9810  -36.5560   -5.6790 C.3    16  LEU16       0.0270
      6  CG        24.3600  -37.3270   -4.3970 C.3    16  LEU16       0.0019
      7  CD1       25.8360  -37.1710   -4.0750 C.3    16  LEU16       0.0001
      8  CD2       23.5280  -36.8880   -3.2070 C.3    16  LEU16       0.0001
      9  N         26.4270  -38.0600  -10.7930 N.3    24  VAL24      -0.1245
     10  CA        27.0410  -38.1830   -9.4610 C.3    24  VAL24       0.1561
     11  C         26.0790  -38.8870   -8.4970 C.2    24  VAL24       0.2260
     12  O         24.9530  -38.4320   -8.3290 O.2    24  VAL24      -0.2867
     13  CB        27.6310  -36.8620   -8.8720 C.3    24  VAL24       0.0252
     14  CG1       28.2470  -37.1050   -7.4890 C.3    24  VAL24       0.0019
     15  CG2       28.6880  -36.2660   -9.8020 C.3    24  VAL24       0.0019
     16  N         31.2310  -40.3020   -2.8810 N.3    39  ALA39      -0.1245
     17  CA        30.4300  -39.7600   -3.9600 C.3    39  ALA39       0.1562
     18  C         31.0730  -40.3100   -5.2360 C.2    39  ALA39       0.2260
     19  O         32.2920  -40.2560   -5.3900 O.2    39  ALA39      -0.2867
     20  CB        30.4350  -38.2420   -3.9410 C.3    39  ALA39       0.0290
     21  N         31.2280  -40.4480   -9.4490 N.3    41  LYS41      -0.1245
     22  CA        30.9270  -39.7790  -10.7130 C.3    41  LYS41       0.1561
     23  C         31.0230  -40.8420  -11.8350 C.2    41  LYS41       0.2260
     24  O         32.0720  -41.4680  -12.0150 O.2    41  LYS41      -0.2867
     25  CB        31.8990  -38.6140  -10.9630 C.3    41  LYS41       0.0271
     26  CG        31.5750  -37.7500  -12.1820 C.3    41  LYS41       0.0035
     27  CD        32.7600  -36.8400  -12.5020 C.3    41  LYS41       0.0206
     28  CE        32.5610  -35.9820  -13.7250 C.3    41  LYS41       0.1093
     29  NZ        32.2550  -34.5710  -13.3620 N.3    41  LYS41      -0.1314
     30  N         39.7450  -37.6940  -21.7220 N.3    50  ASP50      -0.1239
     31  CA        39.4450  -36.5780  -20.8110 C.3    50  ASP50       0.1674
     32  C         39.3250  -37.1230  -19.3880 C.2    50  ASP50       0.2266
     33  O         39.8110  -36.4880  -18.4540 O.2    50  ASP50      -0.2867
     34  CB        38.1370  -35.8800  -21.2090 C.3    50  ASP50       0.1410
     35  CG        38.1430  -35.2190  -22.5780 C.2    50  ASP50       0.3668
     36  OD1       39.1840  -34.6160  -22.9510 O.co2  50  ASP50      -0.2456
     37  OD2       37.1030  -35.2870  -23.2710 O.co2  50  ASP50      -0.2456
     38  N         41.8150  -36.3340  -16.3250 N.3    54  GLU54      -0.1245
     39  CA        41.2310  -35.8790  -15.0530 C.3    54  GLU54       0.1567
     40  C         41.6630  -36.7560  -13.8640 C.2    54  GLU54       0.2260
     41  O         42.0830  -36.2270  -12.8340 O.2    54  GLU54      -0.2867
     42  CB        39.7030  -35.8230  -15.1510 C.3    54  GLU54       0.0388
     43  CG        39.0810  -34.9070  -14.1030 C.3    54  GLU54       0.1160
     44  CD        37.5680  -34.8860  -14.0780 C.2    54  GLU54       0.3649
     45  OE1       36.9420  -35.3200  -15.0700 O.co2  54  GLU54      -0.2457
     46  OE2       37.0030  -34.4240  -13.0640 O.co2  54  GLU54      -0.2457
     47  N         45.3010  -36.0380  -13.0660 N.3    57  LEU57      -0.1231
     48  CA        45.3740  -34.7100  -12.4570 C.3    57  LEU57       0.1693
     49  C         44.8880  -34.7450  -10.9910 C.2    57  LEU57       0.2591
     50  O         45.5480  -34.1970  -10.1070 O.2    57  LEU57      -0.2718
     51  CB        44.5320  -33.7280  -13.2790 C.3    57  LEU57       0.0284
     52  CG        44.4910  -32.2850  -12.7850 C.3    57  LEU57       0.0019
     53  CD1       45.8220  -31.5550  -13.0480 C.3    57  LEU57       0.0001
     54  CD2       43.3580  -31.5510  -13.4200 C.3    57  LEU57       0.0001
     55  N         43.7490  -35.4000  -10.7400 N.am   58  LEU58      -0.1980
     56  CA        43.1790  -35.4980   -9.3910 C.3    58  LEU58       0.1596
     57  C         43.9910  -36.3870   -8.4490 C.2    58  LEU58       0.2287
     58  O         43.8870  -36.2390   -7.2230 O.2    58  LEU58      -0.2864
     59  CB        41.7150  -35.9230   -9.4470 C.3    58  LEU58       0.0297
     60  CG        40.7420  -34.8190   -9.8490 C.3    58  LEU58       0.0022
     61  CD1       39.5170  -35.4050  -10.4680 C.3    58  LEU58       0.0001
     62  CD2       40.3740  -33.9210   -8.6520 C.3    58  LEU58       0.0001
     63  N         46.8710  -33.7140   -7.6720 N.3    61  LEU61      -0.1245
     64  CA        46.4200  -32.5970   -6.8390 C.3    61  LEU61       0.1561
     65  C         46.0840  -33.1380   -5.4580 C.2    61  LEU61       0.2260
     66  O         45.1420  -33.9150   -5.3120 O.2    61  LEU61      -0.2867
     67  CB        45.2080  -31.8680   -7.4500 C.3    61  LEU61       0.0270
     68  CG        45.3990  -31.1850   -8.7980 C.3    61  LEU61       0.0019
     69  CD1       44.1360  -30.5030   -9.2380 C.3    61  LEU61       0.0001
     70  CD2       46.5320  -30.1780   -8.7740 C.3    61  LEU61       0.0001
     71  N         41.2660  -29.0560   -1.4890 N.3    66  ILE66      -0.1231
     72  CA        40.9440  -29.5280   -2.8260 C.3    66  ILE66       0.1692
     73  C         40.1960  -30.8370   -2.5690 C.2    66  ILE66       0.2591
     74  O         40.6490  -31.6360   -1.7400 O.2    66  ILE66      -0.2718
     75  CB        42.1790  -29.7100   -3.7600 C.3    66  ILE66       0.0266
     76  CG1       42.8910  -28.3440   -4.0380 C.3    66  ILE66       0.0019
     77  CG2       41.7670  -30.4260   -5.0960 C.3    66  ILE66       0.0020
     78  CD1       41.9900  -27.1410   -4.7590 C.3    66  ILE66       0.0001
     79  N         39.0460  -31.0380   -3.2480 N.am   67  VAL67      -0.1980
     80  CA        38.2150  -32.2450   -3.1110 C.3    67  VAL67       0.1595
     81  C         39.0960  -33.5270   -3.2000 C.2    67  VAL67       0.2287
     82  O         39.9440  -33.6510   -4.0940 O.2    67  VAL67      -0.2864
     83  CB        36.9960  -32.2490   -4.0960 C.3    67  VAL67       0.0276
     84  CG1       37.4480  -32.2860   -5.5680 C.3    67  VAL67       0.0022
     85  CG2       36.0450  -33.4180   -3.7970 C.3    67  VAL67       0.0022
     86  N         35.0670  -40.0400   -5.2130 N.3    83  PHE83      -0.1227
     87  CA        35.4000  -38.8300   -4.4550 C.3    83  PHE83       0.1736
     88  C         34.8920  -38.9020   -3.0410 C.2    83  PHE83       0.2595
     89  O         34.0050  -39.7050   -2.7410 O.2    83  PHE83      -0.2718
     90  CB        34.7770  -37.5900   -5.1230 C.3    83  PHE83       0.0547
     91  CG        35.3880  -37.2300   -6.4530 C.ar   83  PHE83      -0.0202
     92  CD1       34.8320  -37.6940   -7.6410 C.ar   83  PHE83      -0.0042
     93  CD2       36.4980  -36.3960   -6.5220 C.ar   83  PHE83      -0.0042
     94  CE1       35.3980  -37.3570   -8.8740 C.ar   83  PHE83      -0.0003
     95  CE2       37.0660  -36.0680   -7.7530 C.ar   83  PHE83      -0.0003
     96  CZ        36.5230  -36.5700   -8.9180 C.ar   83  PHE83      -0.0000
     97  N         35.4320  -38.0440   -2.1580 N.am   84  GLU84      -0.1965
     98  CA        34.9230  -38.0320   -0.7880 C.3    84  GLU84       0.1733
     99  C         33.4960  -37.4800   -0.7370 C.2    84  GLU84       0.2616
    100  O         33.0540  -36.6900   -1.6130 O.2    84  GLU84      -0.2715
    101  CB        35.8450  -37.2780    0.1750 C.3    84  GLU84       0.0429
    102  CG        35.8340  -35.7890   -0.0720 C.3    84  GLU84       0.1163
    103  CD        36.8230  -34.9790    0.7310 C.2    84  GLU84       0.3649
    104  OE1       36.9600  -35.2130    1.9530 O.co2  84  GLU84      -0.2457
    105  OE2       37.4600  -34.0940    0.1210 O.co2  84  GLU84      -0.2457
    106  N         32.7710  -37.9350    0.2930 N.am   85  TYR85      -0.1960
    107  CA        31.4030  -37.5250    0.5540 C.3    85  TYR85       0.1771
    108  C         31.4990  -36.3270    1.5100 C.2    85  TYR85       0.2619
    109  O         32.2250  -36.3930    2.4990 O.2    85  TYR85      -0.2715
    110  CB        30.6200  -38.7000    1.1670 C.3    85  TYR85       0.0574
    111  CG        29.3420  -38.2910    1.8570 C.ar   85  TYR85      -0.0198
    112  CD1       28.2590  -37.7990    1.1300 C.ar   85  TYR85      -0.0009
    113  CD2       29.2100  -38.3950    3.2380 C.ar   85  TYR85      -0.0009
    114  CE1       27.0780  -37.4140    1.7640 C.ar   85  TYR85       0.0417
    115  CE2       28.0300  -38.0230    3.8830 C.ar   85  TYR85       0.0417
    116  CZ        26.9710  -37.5250    3.1430 C.ar   85  TYR85       0.1957
    117  OH        25.8190  -37.1420    3.7760 O.3    85  TYR85      -0.2866
    118  N         30.8190  -35.2220    1.1830 N.am   86  MET86      -0.1963
    119  CA        30.8530  -33.9800    1.9860 C.3    86  MET86       0.1736
    120  C         29.4200  -33.7070    2.3390 C.2    86  MET86       0.2616
    121  O         28.6450  -33.3020    1.4750 O.2    86  MET86      -0.2715
    122  CB        31.4840  -32.8480    1.1440 C.3    86  MET86       0.0427
    123  CG        32.8850  -33.1980    0.6580 C.3    86  MET86       0.0599
    124  SD        34.1020  -33.0250    1.9800 S.3    86  MET86      -0.1393
    125  CE        34.3960  -31.1960    1.8370 C.3    86  MET86       0.0692
    126  N         29.0490  -34.0510    3.5850 N.am   87  ARG87      -0.1977
    127  CA        27.6780  -34.0470    4.1480 C.3    87  ARG87       0.1597
    128  C         26.8170  -32.8410    3.7850 C.2    87  ARG87       0.2287
    129  O         25.6500  -33.0060    3.4130 O.2    87  ARG87      -0.2864
    130  CB        27.7040  -34.2120    5.6810 C.3    87  ARG87       0.0334
    131  CG        28.3890  -35.4890    6.2030 C.3    87  ARG87       0.0492
    132  CD        27.7120  -36.0650    7.4360 C.3    87  ARG87       0.2205
    133  NE        26.3320  -36.3750    7.0960 N.pl3  87  ARG87      -0.0865
    134  CZ        25.8660  -37.5880    6.8380 C.cat  87  ARG87       0.5346
    135  NH1       26.6570  -38.6500    6.9500 N.pl3  87  ARG87       0.1354
    136  NH2       24.6030  -37.7530    6.4840 N.pl3  87  ARG87       0.1354
    137  N         26.8760  -30.8410    1.1960 N.3    89  GLY89      -0.1210
    138  CA        26.7600  -30.5390   -0.2330 C.3    89  GLY89       0.1956
    139  C         27.5680  -29.3330   -0.7000 C.2    89  GLY89       0.2611
    140  O         28.5240  -28.9210   -0.0270 O.2    89  GLY89      -0.2717
    141  N         27.1710  -28.7440   -1.8340 N.am   90  ASP90      -0.1973
    142  CA        27.8890  -27.6000   -2.3910 C.3    90  ASP90       0.1709
    143  C         27.7460  -26.3320   -1.5310 C.2    90  ASP90       0.2293
    144  O         26.7220  -26.1180   -0.8580 O.2    90  ASP90      -0.2864
    145  CB        27.5360  -27.3510   -3.8800 C.3    90  ASP90       0.1436
    146  CG        26.2880  -26.5500   -4.1700 C.2    90  ASP90       0.3671
    147  OD1       25.3660  -27.1050   -4.7690 O.co2  90  ASP90      -0.2456
    148  OD2       26.2530  -25.3480   -3.8210 O.co2  90  ASP90      -0.2456
    149  N         46.6310  -24.0930   -6.0000 N.3   135  LEU135     -0.1245
    150  CA        46.5290  -24.1890   -7.4530 C.3   135  LEU135      0.1561
    151  C         47.4450  -23.1820   -8.1750 C.2   135  LEU135      0.2260
    152  O         48.0980  -23.5550   -9.1530 O.2   135  LEU135     -0.2867
    153  CB        45.0720  -24.0220   -7.8950 C.3   135  LEU135      0.0270
    154  CG        44.1040  -25.1030   -7.4020 C.3   135  LEU135      0.0019
    155  CD1       42.7010  -24.8110   -7.9180 C.3   135  LEU135      0.0001
    156  CD2       44.5720  -26.4940   -7.8450 C.3   135  LEU135      0.0001
    157  N         48.2560  -23.7660  -12.0440 N.3   140  PHE140     -0.1241
    158  CA        47.0130  -24.3740  -12.4640 C.3   140  PHE140      0.1605
    159  C         45.9010  -23.3090  -12.4540 C.2   140  PHE140      0.2264
    160  O         45.6740  -22.6700  -11.4300 O.2   140  PHE140     -0.2867
    161  CB        46.6620  -25.5540  -11.5400 C.3   140  PHE140      0.0534
    162  CG        45.4160  -26.2880  -11.9670 C.ar  140  PHE140     -0.0203
    163  CD1       45.4990  -27.4200  -12.7670 C.ar  140  PHE140     -0.0042
    164  CD2       44.1530  -25.8440  -11.5730 C.ar  140  PHE140     -0.0042
    165  CE1       44.3390  -28.0940  -13.1720 C.ar  140  PHE140     -0.0003
    166  CE2       43.0010  -26.5130  -11.9840 C.ar  140  PHE140     -0.0003
    167  CZ        43.1050  -27.6500  -12.7590 C.ar  140  PHE140     -0.0000
    168  N         41.9480  -22.6210  -12.6660 N.3   142  HIS142     -0.1241
    169  CA        40.6760  -23.3100  -12.4340 C.3   142  HIS142      0.1621
    170  C         39.6670  -22.9850  -13.5510 C.2   142  HIS142      0.2264
    171  O         39.1290  -23.9050  -14.1770 O.2   142  HIS142     -0.2867
    172  CB        40.1330  -22.9230  -11.0350 C.3   142  HIS142      0.0745
    173  CG        38.9520  -23.7300  -10.5920 C.ar  142  HIS142      0.0817
    174  ND1       37.7510  -23.6900  -11.2690 N.ar  142  HIS142     -0.2268
    175  CD2       38.8280  -24.5710   -9.5370 C.ar  142  HIS142      0.1154
    176  CE1       36.9430  -24.5170  -10.6270 C.ar  142  HIS142      0.1986
    177  NE2       37.5460  -25.0560   -9.5670 N.ar  142  HIS142     -0.2212
    178  N         32.6310  -27.7090   -1.9060 N.3   151  LEU151     -0.1245
    179  CA        31.8330  -28.6160   -1.0760 C.3   151  LEU151      0.1561
    180  C         32.0790  -28.3250    0.3830 C.2   151  LEU151      0.2260
    181  O         33.1610  -27.8690    0.7440 O.2   151  LEU151     -0.2867
    182  CB        32.1810  -30.0960   -1.3780 C.3   151  LEU151      0.0270
    183  CG        31.7640  -30.5700   -2.7750 C.3   151  LEU151      0.0019
    184  CD1       32.4390  -31.8960   -3.1160 C.3   151  LEU151      0.0001
    185  CD2       30.2520  -30.7080   -2.8870 C.3   151  LEU151      0.0001
    186  N         37.5810  -27.1780   -2.7160 N.3   160  ILE160     -0.1231
    187  CA        37.3300  -26.7930   -4.1070 C.3   160  ILE160      0.1692
    188  C         37.3580  -27.9840   -5.0520 C.2   160  ILE160      0.2593
    189  O         38.2660  -28.8180   -4.9840 O.2   160  ILE160     -0.2718
    190  CB        38.3780  -25.7300   -4.5730 C.3   160  ILE160      0.0266
    191  CG1       38.4690  -24.5470   -3.5930 C.3   160  ILE160      0.0019
    192  CG2       38.0690  -25.2210   -6.0070 C.3   160  ILE160      0.0020
    193  CD1       39.7010  -23.6130   -3.8920 C.3   160  ILE160      0.0001
    194  N         36.3910  -28.0070   -5.9610 N.am  161  GLY161     -0.1942
    195  CA        36.2860  -28.9900   -7.0440 C.3   161  GLY161      0.2014
    196  C         35.9900  -28.2620   -8.3490 C.2   161  GLY161      0.2639
    197  O         36.1610  -27.0450   -8.4320 O.2   161  GLY161     -0.2714
    198  N         35.5110  -28.9740   -9.3710 N.am  162  ASP162     -0.1957
    199  CA        35.1330  -28.3980  -10.6760 C.3   162  ASP162      0.1840
    200  C         34.1570  -29.4370  -11.1820 C.2   162  ASP162      0.2622
    201  O         34.5740  -30.4370  -11.7600 O.2   162  ASP162     -0.2715
    202  CB        36.3630  -28.2690  -11.5780 C.3   162  ASP162      0.1450
    203  CG        36.0600  -27.6390  -12.9220 C.2   162  ASP162      0.3671
    204  OD1       37.0180  -27.3770  -13.6840 O.co2 162  ASP162     -0.2456
    205  OD2       34.8770  -27.4140  -13.2130 O.co2 162  ASP162     -0.2456
    206  N         32.8690  -29.2080  -10.9300 N.am  163  PHE163     -0.1974
    207  CA        31.8060  -30.1870  -11.0860 C.3   163  PHE163      0.1639
    208  C         31.0230  -30.2700  -12.4360 C.2   163  PHE163      0.2290
    209  O         30.6370  -31.3830  -12.7770 O.2   163  PHE163     -0.2864
    210  CB        30.8250  -30.0590   -9.9100 C.3   163  PHE163      0.0560
    211  CG        31.5190  -30.0680   -8.5600 C.ar  163  PHE163     -0.0200
    212  CD1       31.0560  -29.2730   -7.5150 C.ar  163  PHE163     -0.0042
    213  CD2       32.6640  -30.8380   -8.3490 C.ar  163  PHE163     -0.0042
    214  CE1       31.7150  -29.2580   -6.2800 C.ar  163  PHE163     -0.0003
    215  CE2       33.3160  -30.8410   -7.1090 C.ar  163  PHE163     -0.0003
    216  CZ        32.8440  -30.0430   -6.0830 C.ar  163  PHE163     -0.0000
    217  N         28.2210  -30.4410  -13.3430 N.3   165  MET165     -0.1245
    218  CA        26.8730  -30.9350  -13.0490 C.3   165  MET165      0.1570
    219  C         26.2820  -29.6600  -12.4720 C.2   165  MET165      0.2261
    220  O         25.0680  -29.4980  -12.3620 O.2   165  MET165     -0.2867
    221  CB        26.8930  -32.0740  -12.0220 C.3   165  MET165      0.0387
    222  CG        26.7470  -33.4450  -12.6570 C.3   165  MET165      0.0595
    223  SD        27.9720  -33.7540  -13.9570 S.3   165  MET165     -0.1393
    224  CE        28.9820  -34.9370  -13.1670 C.3   165  MET165      0.0692
@<TRIPOS>BOND
     1    37    35   ar
     2    36    35   ar
     3    35    34    1
     4    30    31    1
     5    34    31    1
     6    31    32    1
     7    32    33    2
     8    38    39    1
     9    42    39    1
    10    42    43    1
    11    45    44   ar
    12    39    40    1
    13   171   170    2
    14    43    44    1
    15    44    46   ar
    16   223   224    1
    17   223   222    1
    18    40    41    2
    19    28    29    1
    20    28    27    1
    21   204   203   ar
    22   170   169    1
    23    54    52    1
    24   217   218    1
    25    51    52    1
    26    51    48    1
    27   205   203   ar
    28   165   163   ar
    29   165   167   ar
    30    47    48    1
    31   218   219    1
    32   218   221    1
    33    53    52    1
    34   203   202    1
    35   209   208    2
    36   163   162   ar
    37   167   166   ar
    38   168   169    1
    39   222   221    1
    40    27    26    1
    41   219   220    2
    42   158   159    1
    43   158   157    1
    44   158   161    1
    45    48    49    1
    46   159   160    2
    47   208   207    1
    48   169   172    1
    49    26    25    1
    50    24    23    2
    51   166   164   ar
    52   162   164   ar
    53   162   161    1
    54    23    22    1
    55   201   200    2
    56   202   199    1
    57   174   176   ar
    58   174   173   ar
    59   200   206   am
    60   200   199    1
    61   207   206    1
    62   207   210    1
    63   172   173    1
    64    49    55   am
    65    49    50    2
    66    25    22    1
    67     9    10    1
    68    55    56    1
    69    22    21    1
    70   199   198    1
    71   176   177   ar
    72   173   175   ar
    73    61    60    1
    74   210   211    1
    75    60    59    1
    76    60    62    1
    77    15    13    1
    78   177   175   ar
    79    10    13    1
    80    10    11    1
    81    59    56    1
    82    56    57    1
    83   198   196   am
    84    69    68    1
    85   152   151    2
    86    96    94   ar
    87    96    95   ar
    88    94    92   ar
    89    13    14    1
    90    68    70    1
    91    68    67    1
    92   211   213   ar
    93   211   212   ar
    94    11    12    2
    95    57    58    2
    96   197   196    2
    97   196   195    1
    98   213   215   ar
    99   151   150    1
   100   155   154    1
   101   153   150    1
   102   153   154    1
   103   156   154    1
   104    95    93   ar
   105    63    64    1
   106    92    91   ar
   107   212   214   ar
   108   150   149    1
   109    67    64    1
   110     3     4    2
   111     3     2    1
   112   215   216   ar
   113   195   194    1
   114     1     2    1
   115    64    65    1
   116    93    91   ar
   117    91    90    1
   118     2     5    1
   119   214   216   ar
   120   192   190    1
   121   194   188   am
   122     5     6    1
   123    84    83    1
   124    65    66    2
   125    19    18    2
   126    18    17    1
   127    86    87    1
   128    90    87    1
   129    77    75    1
   130   188   189    2
   131   188   187    1
   132   147   146   ar
   133    78    76    1
   134   190   187    1
   135   190   191    1
   136    87    88    1
   137     6     7    1
   138     6     8    1
   139   146   145    1
   140   146   148   ar
   141   187   186    1
   142    83    85    1
   143    83    80    1
   144    82    81    2
   145    76    75    1
   146    17    20    1
   147    17    16    1
   148   193   191    1
   149   145   142    1
   150    75    72    1
   151    79    80    1
   152    79    73   am
   153    81    80    1
   154   184   183    1
   155    88    89    2
   156    88    97   am
   157   185   183    1
   158    72    73    1
   159    72    71    1
   160   183   182    1
   161    73    74    2
   162   142   141    1
   163   142   143    1
   164    97    98    1
   165   178   179    1
   166   141   139   am
   167   100    99    2
   168   143   144    2
   169   182   179    1
   170   179   180    1
   171    98    99    1
   172    98   101    1
   173    99   106   am
   174   139   138    1
   175   139   140    2
   176   138   137    1
   177   102   101    1
   178   102   103    1
   179   105   103   ar
   180   106   107    1
   181   180   181    2
   182   107   110    1
   183   107   108    1
   184   123   122    1
   185   123   124    1
   186   103   104   ar
   187   112   114   ar
   188   112   111   ar
   189   122   119    1
   190   110   111    1
   191   118   108   am
   192   118   119    1
   193   121   120    2
   194   108   109    2
   195   114   116   ar
   196   125   124    1
   197   111   113   ar
   198   119   120    1
   199   120   126   am
   200   116   117    1
   201   116   115   ar
   202   113   115   ar
   203   129   128    2
   204   126   127    1
   205   128   127    1
   206   127   130    1
   207   130   131    1
   208   131   132    1
   209   136   134    1
   210   134   135    1
   211   134   133    2
   212   133   132    1
