@<TRIPOS>MOLECULE
tmp/4pmnA00.pdb
 144 136 0 0 0
SMALL
GASTEIGER

@<TRIPOS>ATOM
      1  N         15.6110   59.4430   -2.2370 N.3    13  ASP13      -0.1239
      2  CA        15.6790   60.8510   -1.8430 C.3    13  ASP13       0.1674
      3  C         14.7690   61.6150   -2.7960 C.2    13  ASP13       0.2266
      4  O         14.5590   61.2030   -3.9540 O.2    13  ASP13      -0.2867
      5  CB        17.1070   61.4170   -1.7900 C.3    13  ASP13       0.1410
      6  CG        17.7460   61.6040   -3.1400 C.2    13  ASP13       0.3668
      7  OD1       17.4300   62.6160   -3.8130 O.co2  13  ASP13      -0.2456
      8  OD2       18.6130   60.7680   -3.5100 O.co2  13  ASP13      -0.2456
      9  N         12.5550   65.7400   -3.2900 N.3    15  ALA15      -0.1245
     10  CA        12.2410   67.0770   -2.8130 C.3    15  ALA15       0.1562
     11  C         10.8090   67.4850   -3.1340 C.2    15  ALA15       0.2260
     12  O         10.3200   68.4330   -2.5130 O.2    15  ALA15      -0.2867
     13  CB        13.1900   68.0810   -3.4870 C.3    15  ALA15       0.0290
     14  N         15.2300   65.7980    3.5180 N.3    35  TYR35      -0.1241
     15  CA        15.7930   67.1180    3.6950 C.3    35  TYR35       0.1605
     16  C         15.4490   67.8140    4.9930 C.2    35  TYR35       0.2264
     17  O         14.2730   68.0090    5.3270 O.2    35  TYR35      -0.2867
     18  CB        15.2850   68.0400    2.5740 C.3    35  TYR35       0.0534
     19  CG        15.9020   67.6590    1.2540 C.ar   35  TYR35      -0.0201
     20  CD1       17.1740   68.1060    0.9020 C.ar   35  TYR35      -0.0009
     21  CD2       15.1860   66.9340    0.3220 C.ar   35  TYR35      -0.0009
     22  CE1       17.7500   67.7600   -0.3280 C.ar   35  TYR35       0.0417
     23  CE2       15.7430   66.5980   -0.9150 C.ar   35  TYR35       0.0417
     24  CZ        17.0220   67.0060   -1.2240 C.ar   35  TYR35       0.1957
     25  OH        17.5580   66.6510   -2.4350 O.3    35  TYR35      -0.2866
     26  N         14.2060   76.9600   -1.4170 N.3    40  ARG40      -0.1245
     27  CA        14.8360   78.1590   -1.9550 C.3    40  ARG40       0.1563
     28  C         13.8760   78.9280   -2.8640 C.2    40  ARG40       0.2260
     29  O         12.8560   78.3850   -3.2890 O.2    40  ARG40      -0.2867
     30  CB        16.0880   77.7580   -2.7560 C.3    40  ARG40       0.0307
     31  CG        15.8300   76.8040   -3.9150 C.3    40  ARG40       0.0489
     32  CD        17.0720   76.7740   -4.7970 C.3    40  ARG40       0.2205
     33  NE        16.9730   75.8010   -5.8860 N.pl3  40  ARG40      -0.0865
     34  CZ        17.3240   74.5180   -5.7710 C.cat  40  ARG40       0.5346
     35  NH1       17.8240   74.0520   -4.6190 N.pl3  40  ARG40       0.1354
     36  NH2       17.1780   73.6860   -6.8020 N.pl3  40  ARG40       0.1354
     37  N          7.5770   74.5120   -5.1090 N.3    45  TRP45      -0.1241
     38  CA         7.0300   73.1880   -5.4510 C.3    45  TRP45       0.1605
     39  C          7.6610   72.0820   -4.6080 C.2    45  TRP45       0.2264
     40  O          7.2220   70.9270   -4.6980 O.2    45  TRP45      -0.2867
     41  CB         7.3040   72.8750   -6.9430 C.3    45  TRP45       0.0550
     42  CG         8.7590   72.9680   -7.3300 C.ar   45  TRP45       0.0003
     43  CD1        9.4220   74.0840   -7.7620 C.ar   45  TRP45       0.0946
     44  CD2        9.7140   71.9080   -7.3330 C.ar   45  TRP45       0.0152
     45  NE1       10.7420   73.7880   -7.9950 N.ar   45  TRP45      -0.2442
     46  CE2       10.9450   72.4510   -7.7640 C.ar   45  TRP45       0.0810
     47  CE3        9.6490   70.5380   -7.0300 C.ar   45  TRP45       0.0012
     48  CZ2       12.0970   71.6720   -7.9180 C.ar   45  TRP45       0.0191
     49  CZ3       10.8190   69.7850   -7.0930 C.ar   45  TRP45       0.0001
     50  CH2       12.0210   70.3480   -7.5530 C.ar   45  TRP45       0.0015
     51  N         10.4790   69.4390    1.3220 N.3    48  LYS48      -0.1245
     52  CA        11.4350   70.1590    2.1590 C.3    48  LYS48       0.1561
     53  C         10.7180   71.0370    3.1600 C.2    48  LYS48       0.2260
     54  O          9.9460   71.9090    2.7560 O.2    48  LYS48      -0.2867
     55  CB        12.3510   71.0620    1.3270 C.3    48  LYS48       0.0271
     56  CG        13.2390   70.3300    0.3230 C.3    48  LYS48       0.0035
     57  CD        14.3640   71.2850   -0.1300 C.3    48  LYS48       0.0206
     58  CE        15.2470   70.6650   -1.2060 C.3    48  LYS48       0.1093
     59  NZ        16.3460   71.5950   -1.6040 N.3    48  LYS48      -0.1314
     60  N         20.2830   70.4830    1.6640 N.3    70  GLN70      -0.1245
     61  CA        20.6060   71.2380    0.4560 C.3    70  GLN70       0.1566
     62  C         19.6250   72.3820    0.3640 C.2    70  GLN70       0.2260
     63  O         18.4130   72.1320    0.2910 O.2    70  GLN70      -0.2867
     64  CB        20.6280   70.4060   -0.8400 C.3    70  GLN70       0.0367
     65  CG        21.1100   71.2670   -2.0240 C.3    70  GLN70       0.0905
     66  CD        21.3560   70.5110   -3.3020 C.2    70  GLN70       0.2608
     67  OE1       21.5040   69.2830   -3.3220 O.2    70  GLN70      -0.2717
     68  NE2       21.4240   71.2730   -4.3990 N.am   70  GLN70      -0.0878
     69  N         21.4870   75.9810   -5.1590 N.3    73  LYS73      -0.1245
     70  CA        22.0050   75.1250   -6.2400 C.3    73  LYS73       0.1561
     71  C         22.6660   76.0150   -7.2750 C.2    73  LYS73       0.2260
     72  O         22.2510   77.1570   -7.4780 O.2    73  LYS73      -0.2867
     73  CB        20.8480   74.3340   -6.9060 C.3    73  LYS73       0.0271
     74  CG        21.3390   73.2270   -7.8650 C.3    73  LYS73       0.0035
     75  CD        20.1940   72.3610   -8.3740 C.3    73  LYS73       0.0206
     76  CE        20.6150   71.3740   -9.4530 C.3    73  LYS73       0.1093
     77  NZ        21.7050   71.8720  -10.3440 N.3    73  LYS73      -0.1314
     78  N         26.4830   69.6930   -4.3050 N.3   113  ASP113     -0.1239
     79  CA        25.7530   69.2600   -5.5000 C.3   113  ASP113      0.1674
     80  C         26.4150   69.8950   -6.7100 C.2   113  ASP113      0.2266
     81  O         25.8220   70.6850   -7.4560 O.2   113  ASP113     -0.2867
     82  CB        24.2750   69.6450   -5.3680 C.3   113  ASP113      0.1410
     83  CG        23.4100   69.1810   -6.5050 C.2   113  ASP113      0.3668
     84  OD1       23.7850   68.1510   -7.1690 O.co2 113  ASP113     -0.2456
     85  OD2       22.4040   69.8540   -6.7900 O.co2 113  ASP113     -0.2456
     86  N         27.6610   64.8520    0.9780 N.3   144  TYR144     -0.1241
     87  CA        27.1470   64.3400   -0.2890 C.3   144  TYR144      0.1605
     88  C         27.9990   65.0180   -1.3550 C.2   144  TYR144      0.2264
     89  O         28.0120   66.2540   -1.4480 O.2   144  TYR144     -0.2867
     90  CB        25.6550   64.6750   -0.4320 C.3   144  TYR144      0.0534
     91  CG        25.0730   64.5660   -1.8180 C.ar  144  TYR144     -0.0201
     92  CD1       24.7480   63.3140   -2.3670 C.ar  144  TYR144     -0.0009
     93  CD2       24.8710   65.6980   -2.6000 C.ar  144  TYR144     -0.0009
     94  CE1       24.1580   63.2110   -3.6210 C.ar  144  TYR144      0.0417
     95  CE2       24.3230   65.6050   -3.8780 C.ar  144  TYR144      0.0417
     96  CZ        23.9930   64.3540   -4.3930 C.ar  144  TYR144      0.1957
     97  OH        23.4390   64.2690   -5.6550 O.3   144  TYR144     -0.2866
     98  N         28.3500   60.2640    1.1290 N.3   163  TRP163     -0.1241
     99  CA        27.3100   59.8360    0.2110 C.3   163  TRP163      0.1605
    100  C         27.7210   60.2730   -1.1660 C.2   163  TRP163      0.2264
    101  O         27.8410   61.4640   -1.4270 O.2   163  TRP163     -0.2867
    102  CB        25.9700   60.4600    0.6880 C.3   163  TRP163      0.0550
    103  CG        24.8000   60.2690   -0.2270 C.ar  163  TRP163      0.0003
    104  CD1       24.6430   59.3360   -1.2130 C.ar  163  TRP163      0.0946
    105  CD2       23.5870   61.0180   -0.1820 C.ar  163  TRP163      0.0152
    106  NE1       23.4260   59.5090   -1.8370 N.ar  163  TRP163     -0.2442
    107  CE2       22.7410   60.5160   -1.1970 C.ar  163  TRP163      0.0810
    108  CE3       23.1470   62.1030    0.6010 C.ar  163  TRP163      0.0012
    109  CZ2       21.5010   61.0910   -1.4940 C.ar  163  TRP163      0.0191
    110  CZ3       21.9290   62.6900    0.2990 C.ar  163  TRP163      0.0001
    111  CH2       21.1050   62.1760   -0.7200 C.ar  163  TRP163      0.0015
    112  N         24.4790   57.3140   -4.6280 N.3   182  GLN182     -0.1245
    113  CA        23.3460   57.6920   -5.4740 C.3   182  GLN182      0.1566
    114  C         23.5770   57.0600   -6.8300 C.2   182  GLN182      0.2260
    115  O         24.5800   57.3820   -7.4850 O.2   182  GLN182     -0.2867
    116  CB        23.2620   59.2340   -5.5720 C.3   182  GLN182      0.0367
    117  CG        21.9490   59.6910   -6.2050 C.3   182  GLN182      0.0905
    118  CD        21.8500   61.1730   -6.0640 C.2   182  GLN182      0.2608
    119  OE1       22.6770   61.8970   -6.6150 O.2   182  GLN182     -0.2717
    120  NE2       20.8070   61.6750   -5.3980 N.am  182  GLN182     -0.0878
    121  N         19.1240   59.1120  -10.9130 N.3   185  ILE185     -0.1231
    122  CA        18.5350   60.4100  -10.6600 C.3   185  ILE185      0.1692
    123  C         17.4540   60.7130  -11.7100 C.2   185  ILE185      0.2592
    124  O         17.6340   60.4110  -12.8910 O.2   185  ILE185     -0.2718
    125  CB        19.5760   61.5570  -10.5640 C.3   185  ILE185      0.0266
    126  CG1       20.4320   61.7000  -11.8390 C.3   185  ILE185      0.0019
    127  CG2       20.4690   61.4610   -9.3030 C.3   185  ILE185      0.0020
    128  CD1       21.1930   63.0660  -11.9270 C.3   185  ILE185      0.0001
    129  N         16.3390   61.3030  -11.2310 N.am  186  ASP186     -0.1974
    130  CA        15.1720   61.8100  -11.9920 C.3   186  ASP186      0.1709
    131  C         14.7060   60.8660  -13.1390 C.2   186  ASP186      0.2293
    132  O         14.4250   61.3130  -14.2570 O.2   186  ASP186     -0.2864
    133  CB        15.4200   63.2470  -12.5220 C.3   186  ASP186      0.1436
    134  CG        16.7910   63.5740  -13.0980 C.2   186  ASP186      0.3671
    135  OD1       17.2380   62.8550  -14.0150 O.co2 186  ASP186     -0.2456
    136  OD2       17.3620   64.6200  -12.7140 O.co2 186  ASP186     -0.2456
    137  N         15.1050   59.8820   -6.4660 N.3   196  ASP196     -0.1239
    138  CA        16.4650   59.4050   -6.7900 C.3   196  ASP196      0.1674
    139  C         16.6930   58.1470   -5.9710 C.2   196  ASP196      0.2266
    140  O         16.1400   58.0290   -4.8610 O.2   196  ASP196     -0.2867
    141  CB        17.5310   60.4560   -6.4710 C.3   196  ASP196      0.1410
    142  CG        17.2450   61.8230   -7.0620 C.2   196  ASP196      0.3668
    143  OD1       16.8450   61.8910   -8.2530 O.co2 196  ASP196     -0.2456
    144  OD2       17.3520   62.8190   -6.3170 O.co2 196  ASP196     -0.2456
@<TRIPOS>BOND
     1   132   131    2
     2   135   134   ar
     3   131   130    1
     4   134   136   ar
     5   134   133    1
     6   124   123    2
     7   133   130    1
     8   130   129    1
     9   128   126    1
    10   126   125    1
    11   123   129   am
    12   123   122    1
    13   121   122    1
    14   122   125    1
    15   125   127    1
    16    77    76    1
    17    76    75    1
    18    75    74    1
    19   143   142   ar
    20    45    46   ar
    21    45    43   ar
    22    48    46   ar
    23    48    50   ar
    24    74    73    1
    25    46    44   ar
    26    43    42   ar
    27    50    49   ar
    28   115   114    2
    29    72    71    2
    30    81    80    2
    31    44    42   ar
    32    44    47   ar
    33    42    41    1
    34    71    70    1
    35    84    83   ar
    36    49    47   ar
    37   142   141    1
    38   142   144   ar
    39    41    38    1
    40    73    70    1
    41   114   113    1
    42    36    34    1
    43    85    83   ar
    44   138   141    1
    45   138   137    1
    46   138   139    1
    47    80    79    1
    48   119   118    2
    49    83    82    1
    50    70    69    1
    51   117   118    1
    52   117   116    1
    53   118   120   am
    54   139   140    2
    55    33    34    2
    56    33    32    1
    57    34    35    1
    58    97    96    1
    59   116   113    1
    60    79    82    1
    61    79    78    1
    62   113   112    1
    63    38    37    1
    64    38    39    1
    65    32    31    1
    66    40    39    2
    67    68    66   am
    68    96    95   ar
    69    96    94   ar
    70     4     3    2
    71    31    30    1
    72    95    93   ar
    73     7     6   ar
    74    94    92   ar
    75     8     6   ar
    76    13    10    1
    77    67    66    2
    78    66    65    1
    79     9    10    1
    80    29    28    2
    81     6     5    1
    82    11    10    1
    83    11    12    2
    84    28    27    1
    85     3     2    1
    86    30    27    1
    87    93    91   ar
    88    25    24    1
    89    92    91   ar
    90     1     2    1
    91    65    64    1
    92    27    26    1
    93     2     5    1
    94   106   104   ar
    95   106   107   ar
    96    91    90    1
    97    59    58    1
    98   109   107   ar
    99   109   111   ar
   100    89    88    2
   101   101   100    2
   102    88    87    1
   103    24    23   ar
   104    24    22   ar
   105   104   103   ar
   106    58    57    1
   107   107   105   ar
   108   100    99    1
   109    23    21   ar
   110    64    61    1
   111   111   110   ar
   112    90    87    1
   113    22    20   ar
   114    87    86    1
   115   103   105   ar
   116   103   102    1
   117   105   108   ar
   118    57    56    1
   119    99   102    1
   120    99    98    1
   121    63    62    2
   122   110   108   ar
   123    21    19   ar
   124    56    55    1
   125    62    61    1
   126    61    60    1
   127    20    19   ar
   128    19    18    1
   129    51    52    1
   130    55    52    1
   131    52    53    1
   132    18    15    1
   133    54    53    2
   134    14    15    1
   135    15    16    1
   136    16    17    2
