@<TRIPOS>MOLECULE
tmp/4pmpA00.pdb
 215 206 0 0 0
SMALL
GASTEIGER

@<TRIPOS>ATOM
      1  N         22.5570  -38.4600   -6.7510 N.3    16  LEU16      -0.1245
      2  CA        22.5180  -37.1110   -6.1990 C.3    16  LEU16       0.1561
      3  C         22.0770  -36.1030   -7.2770 C.2    16  LEU16       0.2260
      4  O         21.2950  -35.1980   -6.9900 O.2    16  LEU16      -0.2867
      5  CB        23.8970  -36.7170   -5.6110 C.3    16  LEU16       0.0270
      6  CG        24.3730  -37.4660   -4.3520 C.3    16  LEU16       0.0019
      7  CD1       25.8650  -37.2980   -4.1470 C.3    16  LEU16       0.0001
      8  CD2       23.6620  -36.9690   -3.1060 C.3    16  LEU16       0.0001
      9  N         26.1370  -38.2360  -10.7240 N.3    24  VAL24      -0.1245
     10  CA        26.8250  -38.2680   -9.4250 C.3    24  VAL24       0.1561
     11  C         25.9710  -39.0410   -8.4290 C.2    24  VAL24       0.2260
     12  O         24.8000  -38.7120   -8.2550 O.2    24  VAL24      -0.2867
     13  CB        27.1930  -36.8620   -8.8660 C.3    24  VAL24       0.0252
     14  CG1       28.1170  -36.9850   -7.6530 C.3    24  VAL24       0.0019
     15  CG2       27.8340  -35.9790   -9.9390 C.3    24  VAL24       0.0019
     16  N         31.3720  -40.0390   -2.9670 N.3    38  ALA38      -0.1231
     17  CA        30.5780  -39.4780   -4.0480 C.3    38  ALA38       0.1694
     18  C         31.1930  -40.1040   -5.2900 C.2    38  ALA38       0.2592
     19  O         32.4240  -40.1250   -5.4400 O.2    38  ALA38      -0.2718
     20  CB        30.6920  -37.9640   -4.0980 C.3    38  ALA38       0.0304
     21  N         30.3520  -40.6670   -6.1510 N.am   39  VAL39      -0.1966
     22  CA        30.8510  -41.3520   -7.3410 C.3    39  VAL39       0.1727
     23  C         30.3360  -40.6760   -8.5820 C.2    39  VAL39       0.2616
     24  O         29.1330  -40.4900   -8.7110 O.2    39  VAL39      -0.2715
     25  CB        30.4660  -42.8700   -7.2900 C.3    39  VAL39       0.0290
     26  CG1       30.7850  -43.5900   -8.6000 C.3    39  VAL39       0.0023
     27  CG2       31.1320  -43.5750   -6.1070 C.3    39  VAL39       0.0023
     28  N         31.2400  -40.3140   -9.5080 N.am   40  LYS40      -0.1977
     29  CA        30.8270  -39.7430  -10.7780 C.3    40  LYS40       0.1596
     30  C         30.8710  -40.9050  -11.8050 C.2    40  LYS40       0.2287
     31  O         31.8720  -41.6280  -11.8880 O.2    40  LYS40      -0.2864
     32  CB        31.7520  -38.5960  -11.2190 C.3    40  LYS40       0.0298
     33  CG        31.2020  -37.8180  -12.4070 C.3    40  LYS40       0.0038
     34  CD        32.2390  -36.8930  -13.0190 C.3    40  LYS40       0.0206
     35  CE        32.0630  -36.7870  -14.5110 C.3    40  LYS40       0.1093
     36  NZ        33.1860  -36.0480  -15.1450 N.3    40  LYS40      -0.1314
     37  N         41.8700  -36.3810  -17.0040 N.3    52  GLU52      -0.1245
     38  CA        41.1800  -35.9150  -15.7990 C.3    52  GLU52       0.1567
     39  C         41.6750  -36.7050  -14.5740 C.2    52  GLU52       0.2260
     40  O         42.1020  -36.0920  -13.6000 O.2    52  GLU52      -0.2867
     41  CB        39.6580  -36.0680  -15.9790 C.3    52  GLU52       0.0388
     42  CG        38.8220  -35.6460  -14.7780 C.3    52  GLU52       0.1160
     43  CD        38.1980  -34.2630  -14.8230 C.2    52  GLU52       0.3649
     44  OE1       38.6700  -33.4090  -15.6080 O.co2  52  GLU52      -0.2457
     45  OE2       37.2310  -34.0330  -14.0620 O.co2  52  GLU52      -0.2457
     46  N         45.2500  -35.8040  -13.5550 N.3    55  LEU55      -0.1231
     47  CA        45.2120  -34.4640  -12.9790 C.3    55  LEU55       0.1693
     48  C         44.6700  -34.5150  -11.5410 C.2    55  LEU55       0.2591
     49  O         45.2500  -33.9010  -10.6500 O.2    55  LEU55      -0.2718
     50  CB        44.3320  -33.5510  -13.8560 C.3    55  LEU55       0.0284
     51  CG        44.0630  -32.1160  -13.3580 C.3    55  LEU55       0.0019
     52  CD1       45.3540  -31.2980  -13.2990 C.3    55  LEU55       0.0001
     53  CD2       43.0230  -31.4240  -14.2340 C.3    55  LEU55       0.0001
     54  N         43.5740  -35.2580  -11.3130 N.am   56  LEU56      -0.1980
     55  CA        42.9670  -35.3550   -9.9790 C.3    56  LEU56       0.1596
     56  C         43.8160  -36.1420   -8.9810 C.2    56  LEU56       0.2287
     57  O         43.7120  -35.9110   -7.7740 O.2    56  LEU56      -0.2864
     58  CB        41.5330  -35.8860  -10.0570 C.3    56  LEU56       0.0297
     59  CG        40.5780  -35.0300  -10.8870 C.3    56  LEU56       0.0022
     60  CD1       39.2490  -35.7020  -11.0500 C.3    56  LEU56       0.0001
     61  CD2       40.4450  -33.6320  -10.3160 C.3    56  LEU56       0.0001
     62  N         46.5510  -33.3810   -7.9810 N.3    59  LEU59      -0.1245
     63  CA        46.0130  -32.2940   -7.1400 C.3    59  LEU59       0.1561
     64  C         45.6960  -32.8870   -5.7810 C.2    59  LEU59       0.2260
     65  O         44.7380  -33.6500   -5.6490 O.2    59  LEU59      -0.2867
     66  CB        44.7480  -31.6490   -7.7530 C.3    59  LEU59       0.0270
     67  CG        44.8780  -30.9410   -9.0990 C.3    59  LEU59       0.0019
     68  CD1       43.5340  -30.3760   -9.5470 C.3    59  LEU59       0.0001
     69  CD2       45.9310  -29.8350   -9.0640 C.3    59  LEU59       0.0001
     70  N         41.1710  -29.0620   -1.3880 N.3    64  ILE64      -0.1231
     71  CA        40.7750  -29.5760   -2.6980 C.3    64  ILE64       0.1692
     72  C         40.0620  -30.8860   -2.3650 C.2    64  ILE64       0.2591
     73  O         40.6370  -31.7130   -1.6560 O.2    64  ILE64      -0.2718
     74  CB        41.9600  -29.7980   -3.6850 C.3    64  ILE64       0.0266
     75  CG1       42.7250  -28.4670   -3.9890 C.3    64  ILE64       0.0019
     76  CG2       41.4750  -30.5080   -4.9690 C.3    64  ILE64       0.0020
     77  CD1       41.9210  -27.2850   -4.7090 C.3    64  ILE64       0.0001
     78  N         38.8360  -31.0870   -2.8790 N.am   65  VAL65      -0.1980
     79  CA        38.0940  -32.3190   -2.5780 C.3    65  VAL65       0.1595
     80  C         38.9790  -33.5380   -2.9220 C.2    65  VAL65       0.2287
     81  O         39.6630  -33.5550   -3.9510 O.2    65  VAL65      -0.2864
     82  CB        36.6530  -32.3760   -3.1610 C.3    65  VAL65       0.0276
     83  CG1       36.6480  -32.5830   -4.6600 C.3    65  VAL65       0.0022
     84  CG2       35.8090  -33.4470   -2.4760 C.3    65  VAL65       0.0022
     85  N         35.2670  -39.9000   -5.2390 N.3    81  PHE81      -0.1227
     86  CA        35.6690  -38.7390   -4.4250 C.3    81  PHE81       0.1736
     87  C         35.1430  -38.8810   -3.0130 C.2    81  PHE81       0.2595
     88  O         34.1700  -39.6070   -2.7920 O.2    81  PHE81      -0.2718
     89  CB        35.0320  -37.4430   -4.9940 C.3    81  PHE81       0.0547
     90  CG        35.4220  -37.0930   -6.4060 C.ar   81  PHE81      -0.0202
     91  CD1       34.7370  -37.6360   -7.4910 C.ar   81  PHE81      -0.0042
     92  CD2       36.4640  -36.2100   -6.6570 C.ar   81  PHE81      -0.0042
     93  CE1       35.0990  -37.3100   -8.8000 C.ar   81  PHE81      -0.0003
     94  CE2       36.8210  -35.8850   -7.9700 C.ar   81  PHE81      -0.0003
     95  CZ        36.1400  -36.4430   -9.0270 C.ar   81  PHE81      -0.0000
     96  N         35.7240  -38.1300   -2.0560 N.am   82  GLU82      -0.1965
     97  CA        35.1890  -38.1550   -0.6900 C.3    82  GLU82       0.1733
     98  C         33.7750  -37.5590   -0.6930 C.2    82  GLU82       0.2616
     99  O         33.4230  -36.7620   -1.5760 O.2    82  GLU82      -0.2715
    100  CB        36.0940  -37.4070    0.3030 C.3    82  GLU82       0.0429
    101  CG        36.1320  -35.9030    0.0800 C.3    82  GLU82       0.1163
    102  CD        37.0080  -35.1150    1.0290 C.2    82  GLU82       0.3649
    103  OE1       36.9540  -35.3580    2.2560 O.co2  82  GLU82      -0.2457
    104  OE2       37.7530  -34.2410    0.5380 O.co2  82  GLU82      -0.2457
    105  N         32.9720  -37.9590    0.2870 N.am   83  TYR83      -0.1960
    106  CA        31.6130  -37.4610    0.4260 C.3    83  TYR83       0.1771
    107  C         31.6440  -36.2290    1.3210 C.2    83  TYR83       0.2619
    108  O         32.2120  -36.2790    2.4070 O.2    83  TYR83      -0.2715
    109  CB        30.7310  -38.5530    1.0290 C.3    83  TYR83       0.0574
    110  CG        29.3350  -38.0970    1.3910 C.ar   83  TYR83      -0.0198
    111  CD1       28.4870  -37.5510    0.4320 C.ar   83  TYR83      -0.0009
    112  CD2       28.8430  -38.2610    2.6820 C.ar   83  TYR83      -0.0009
    113  CE1       27.1880  -37.1560    0.7580 C.ar   83  TYR83       0.0417
    114  CE2       27.5520  -37.8620    3.0210 C.ar   83  TYR83       0.0417
    115  CZ        26.7300  -37.3090    2.0560 C.ar   83  TYR83       0.1957
    116  OH        25.4520  -36.9270    2.3910 O.3    83  TYR83      -0.2866
    117  N         31.0460  -35.1270    0.8470 N.am   84  MET84      -0.1963
    118  CA        30.9940  -33.8460    1.5770 C.3    84  MET84       0.1736
    119  C         29.5350  -33.6650    1.9340 C.2    84  MET84       0.2616
    120  O         28.7060  -33.2720    1.1190 O.2    84  MET84      -0.2715
    121  CB        31.5410  -32.7040    0.6990 C.3    84  MET84       0.0427
    122  CG        32.9700  -32.9530    0.2040 C.3    84  MET84       0.0599
    123  SD        34.1860  -32.8220    1.5360 S.3    84  MET84      -0.1393
    124  CE        34.2850  -30.9560    1.7190 C.3    84  MET84       0.0692
    125  N         29.2260  -34.0330    3.1670 N.am   85  ARG85      -0.1977
    126  CA        27.8770  -34.1500    3.7300 C.3    85  ARG85       0.1597
    127  C         27.0020  -32.9340    3.5890 C.2    85  ARG85       0.2287
    128  O         25.7930  -33.0780    3.3530 O.2    85  ARG85      -0.2864
    129  CB        27.9790  -34.5710    5.1960 C.3    85  ARG85       0.0334
    130  CG        26.6520  -34.8800    5.8640 C.3    85  ARG85       0.0492
    131  CD        26.8570  -35.5510    7.2090 C.3    85  ARG85       0.2205
    132  NE        27.2800  -36.9500    7.0860 N.pl3  85  ARG85      -0.0865
    133  CZ        26.4690  -37.9550    6.7650 C.cat  85  ARG85       0.5346
    134  NH1       25.1870  -37.7260    6.4980 N.pl3  85  ARG85       0.1354
    135  NH2       26.9380  -39.1940    6.6880 N.pl3  85  ARG85       0.1354
    136  N         26.9560  -30.7300    1.2150 N.3    87  GLY87      -0.1210
    137  CA        26.7840  -30.4000   -0.1950 C.3    87  GLY87       0.1956
    138  C         27.5510  -29.2080   -0.7360 C.2    87  GLY87       0.2611
    139  O         28.5700  -28.8050   -0.1570 O.2    87  GLY87      -0.2717
    140  N         27.0440  -28.6260   -1.8400 N.am   88  ASP88      -0.1973
    141  CA        27.7260  -27.4740   -2.4420 C.3    88  ASP88       0.1709
    142  C         27.5890  -26.2220   -1.5640 C.2    88  ASP88       0.2293
    143  O         26.5940  -26.0500   -0.8520 O.2    88  ASP88      -0.2864
    144  CB        27.3280  -27.2280   -3.9180 C.3    88  ASP88       0.1436
    145  CG        26.0500  -26.4610   -4.1320 C.2    88  ASP88       0.3671
    146  OD1       25.0840  -27.0560   -4.6090 O.co2  88  ASP88      -0.2456
    147  OD2       26.0260  -25.2500   -3.8380 O.co2  88  ASP88      -0.2456
    148  N         46.4500  -24.0590   -5.9360 N.3   133  LEU133     -0.1245
    149  CA        46.3040  -24.1620   -7.3910 C.3   133  LEU133      0.1561
    150  C         47.1940  -23.1710   -8.1100 C.2   133  LEU133      0.2260
    151  O         47.8320  -23.5610   -9.0860 O.2   133  LEU133     -0.2867
    152  CB        44.8400  -23.9930   -7.8370 C.3   133  LEU133      0.0270
    153  CG        43.8630  -25.0580   -7.3560 C.3   133  LEU133      0.0019
    154  CD1       42.4670  -24.7920   -7.9390 C.3   133  LEU133      0.0001
    155  CD2       44.3440  -26.4650   -7.7660 C.3   133  LEU133      0.0001
    156  N         47.9930  -23.7510  -12.0790 N.3   138  PHE138     -0.1241
    157  CA        46.7550  -24.3660  -12.5040 C.3   138  PHE138      0.1605
    158  C         45.6920  -23.2660  -12.4450 C.2   138  PHE138      0.2264
    159  O         45.5660  -22.6040  -11.4240 O.2   138  PHE138     -0.2867
    160  CB        46.3650  -25.4850  -11.5330 C.3   138  PHE138      0.0534
    161  CG        45.1190  -26.2290  -11.9430 C.ar  138  PHE138     -0.0203
    162  CD1       45.2000  -27.3530  -12.7570 C.ar  138  PHE138     -0.0042
    163  CD2       43.8620  -25.8080  -11.5170 C.ar  138  PHE138     -0.0042
    164  CE1       44.0450  -28.0550  -13.1150 C.ar  138  PHE138     -0.0003
    165  CE2       42.7040  -26.4920  -11.9080 C.ar  138  PHE138     -0.0003
    166  CZ        42.8100  -27.6180  -12.6920 C.ar  138  PHE138     -0.0000
    167  N         41.7460  -22.6440  -12.5790 N.3   140  HIS140     -0.1241
    168  CA        40.4780  -23.3610  -12.3630 C.3   140  HIS140      0.1621
    169  C         39.4640  -23.0760  -13.4780 C.2   140  HIS140      0.2264
    170  O         38.8850  -24.0130  -14.0380 O.2   140  HIS140     -0.2867
    171  CB        39.9060  -22.9970  -10.9670 C.3   140  HIS140      0.0745
    172  CG        38.7100  -23.8160  -10.5750 C.ar  140  HIS140      0.0817
    173  ND1       37.5060  -23.6830  -11.2250 N.ar  140  HIS140     -0.2268
    174  CD2       38.5820  -24.7500   -9.5980 C.ar  140  HIS140      0.1154
    175  CE1       36.6710  -24.5280  -10.6310 C.ar  140  HIS140      0.1986
    176  NE2       37.2780  -25.2000   -9.6440 N.ar  140  HIS140     -0.2212
    177  N         32.6260  -27.3910   -1.9330 N.3   149  LEU149     -0.1245
    178  CA        31.8690  -28.3780   -1.1510 C.3   149  LEU149      0.1561
    179  C         32.0680  -28.1720    0.3250 C.2   149  LEU149      0.2260
    180  O         33.1170  -27.7020    0.7540 O.2   149  LEU149     -0.2867
    181  CB        32.3670  -29.7780   -1.5460 C.3   149  LEU149      0.0270
    182  CG        31.9200  -30.2220   -2.9550 C.3   149  LEU149      0.0019
    183  CD1       32.5760  -31.4770   -3.3010 C.3   149  LEU149      0.0001
    184  CD2       30.4250  -30.4210   -3.0330 C.3   149  LEU149      0.0001
    185  N         37.5660  -26.9310   -2.5140 N.3   158  ILE158     -0.1231
    186  CA        37.2410  -26.6390   -3.9030 C.3   158  ILE158      0.1692
    187  C         37.0360  -27.9330   -4.6820 C.2   158  ILE158      0.2593
    188  O         37.8250  -28.8700   -4.5430 O.2   158  ILE158     -0.2718
    189  CB        38.3760  -25.7940   -4.5410 C.3   158  ILE158      0.0266
    190  CG1       38.4700  -24.3960   -3.8270 C.3   158  ILE158      0.0019
    191  CG2       38.1330  -25.6150   -6.0730 C.3   158  ILE158      0.0020
    192  CD1       39.7260  -23.6530   -4.1020 C.3   158  ILE158      0.0001
    193  N         36.0220  -27.9250   -5.5300 N.am  159  GLY159     -0.1942
    194  CA        35.7140  -28.9740   -6.5080 C.3   159  GLY159      0.2014
    195  C         35.4180  -28.3750   -7.8920 C.2   159  GLY159      0.2639
    196  O         35.8050  -27.2320   -8.2230 O.2   159  GLY159     -0.2714
    197  N         34.6860  -29.1390   -8.7210 N.am  160  ASP160     -0.1957
    198  CA        34.2710  -28.7170  -10.0680 C.3   160  ASP160      0.1840
    199  C         33.3300  -29.8250  -10.5330 C.2   160  ASP160      0.2622
    200  O         33.7940  -30.9310  -10.8380 O.2   160  ASP160     -0.2715
    201  CB        35.4860  -28.5980  -11.0120 C.3   160  ASP160      0.1450
    202  CG        35.1950  -27.9300  -12.3450 C.2   160  ASP160      0.3671
    203  OD1       36.1480  -27.6990  -13.1080 O.co2 160  ASP160     -0.2456
    204  OD2       34.0150  -27.6440  -12.6210 O.co2 160  ASP160     -0.2456
    205  N         32.0190  -29.5740  -10.5020 N.am  161  PHE161     -0.1974
    206  CA        31.0340  -30.5910  -10.9040 C.3   161  PHE161      0.1639
    207  C         31.0620  -30.8610  -12.4050 C.2   161  PHE161      0.2290
    208  O         30.7910  -31.9880  -12.8170 O.2   161  PHE161     -0.2864
    209  CB        29.6070  -30.2000  -10.4670 C.3   161  PHE161      0.0560
    210  CG        29.3230  -30.2940   -8.9810 C.ar  161  PHE161     -0.0200
    211  CD1       28.4870  -31.2850   -8.4790 C.ar  161  PHE161     -0.0042
    212  CD2       29.8760  -29.3760   -8.0870 C.ar  161  PHE161     -0.0042
    213  CE1       28.2090  -31.3620   -7.1080 C.ar  161  PHE161     -0.0003
    214  CE2       29.6000  -29.4510   -6.7180 C.ar  161  PHE161     -0.0003
    215  CZ        28.7640  -30.4450   -6.2390 C.ar  161  PHE161     -0.0000
@<TRIPOS>BOND
     1    37    38    1
     2    41    38    1
     3    41    42    1
     4    38    39    1
     5    44    43   ar
     6    36    35    1
     7    43    42    1
     8    43    45   ar
     9    39    40    2
    10    35    34    1
    11    53    51    1
    12   170   169    2
    13    50    51    1
    14    50    47    1
    15    46    47    1
    16   169   168    1
    17    51    52    1
    18   164   162   ar
    19   164   166   ar
    20   203   202   ar
    21    34    33    1
    22    47    48    1
    23   208   207    2
    24   162   161   ar
    25   166   165   ar
    26   204   202   ar
    27   167   168    1
    28   157   158    1
    29   157   156    1
    30   157   160    1
    31   158   159    2
    32    33    32    1
    33   207   206    1
    34   168   171    1
    35   202   201    1
    36   161   160    1
    37   161   163   ar
    38   165   163   ar
    39    31    30    2
    40    30    29    1
    41    48    54   am
    42    48    49    2
    43    54    55    1
    44   173   175   ar
    45   173   172   ar
    46    32    29    1
    47    60    59    1
    48   201   198    1
    49   171   172    1
    50   206   205    1
    51   206   209    1
    52    59    61    1
    53    59    58    1
    54   200   199    2
    55    29    28    1
    56     9    10    1
    57   175   176   ar
    58   172   174   ar
    59   199   205   am
    60   199   198    1
    61   209   210    1
    62   198   197    1
    63    58    55    1
    64    55    56    1
    65    15    13    1
    66   176   174   ar
    67    68    67    1
    68    28    23   am
    69    10    13    1
    70    10    11    1
    71    67    69    1
    72    67    66    1
    73   151   150    2
    74    95    93   ar
    75    95    94   ar
    76    56    57    2
    77   210   211   ar
    78   210   212   ar
    79    13    14    1
    80    93    91   ar
    81   197   195   am
    82    24    23    2
    83    26    25    1
    84    23    22    1
    85   211   213   ar
    86    11    12    2
    87   196   195    2
    88   150   149    1
    89   212   214   ar
    90    62    63    1
    91    94    92   ar
    92   154   153    1
    93   195   194    1
    94   152   149    1
    95   152   153    1
    96   155   153    1
    97    66    63    1
    98    91    90   ar
    99   149   148    1
   100    22    25    1
   101    22    21    1
   102    25    27    1
   103     3     4    2
   104     3     2    1
   105    63    64    1
   106   213   215   ar
   107     1     2    1
   108   214   215   ar
   109    92    90   ar
   110   194   193    1
   111    90    89    1
   112     2     5    1
   113    21    18   am
   114   191   189    1
   115    64    65    2
   116     5     6    1
   117   193   187   am
   118    19    18    2
   119    18    17    1
   120    85    86    1
   121    89    86    1
   122    76    74    1
   123    77    75    1
   124   187   188    2
   125   187   186    1
   126    83    82    1
   127   146   145   ar
   128   189   186    1
   129   189   190    1
   130    86    87    1
   131     6     7    1
   132     6     8    1
   133   145   144    1
   134   145   147   ar
   135   192   190    1
   136    20    17    1
   137    17    16    1
   138    75    74    1
   139    81    80    2
   140   144   141    1
   141   186   185    1
   142    74    71    1
   143   183   182    1
   144    82    79    1
   145    82    84    1
   146   184   182    1
   147    87    88    2
   148    87    96   am
   149   182   181    1
   150    80    79    1
   151    78    79    1
   152    78    72   am
   153    71    72    1
   154    71    70    1
   155   141   140    1
   156   141   142    1
   157    72    73    2
   158    96    97    1
   159   177   178    1
   160   140   138   am
   161    99    98    2
   162   142   143    2
   163   181   178    1
   164   178   179    1
   165   138   137    1
   166   138   139    2
   167    98    97    1
   168    98   105   am
   169    97   100    1
   170   137   136    1
   171   101   100    1
   172   101   102    1
   173   122   121    1
   174   122   123    1
   175   105   106    1
   176   179   180    2
   177   106   109    1
   178   106   107    1
   179   111   113   ar
   180   111   110   ar
   181   104   102   ar
   182   121   118    1
   183   113   115   ar
   184   117   107   am
   185   117   118    1
   186   109   110    1
   187   102   103   ar
   188   120   119    2
   189   107   108    2
   190   110   112   ar
   191   123   124    1
   192   118   119    1
   193   119   125   am
   194   115   116    1
   195   115   114   ar
   196   112   114   ar
   197   125   126    1
   198   128   127    2
   199   127   126    1
   200   126   129    1
   201   129   130    1
   202   130   131    1
   203   134   133    1
   204   135   133    1
   205   133   132    2
   206   132   131    1
