@<TRIPOS>MOLECULE
tmp/4pmqA00.pdb
 113 108 0 0 0
SMALL
GASTEIGER

@<TRIPOS>ATOM
      1  N        -15.8210   12.4800   -7.3030 N.3     7  ASP7       -0.1225
      2  CA       -14.7580   13.4080   -7.6890 C.3     7  ASP7        0.1805
      3  C        -14.8410   14.6320   -6.7680 C.2     7  ASP7        0.2598
      4  O        -15.9260   14.9950   -6.3120 O.2     7  ASP7       -0.2718
      5  CB       -14.7740   13.7690   -9.1790 C.3     7  ASP7        0.1424
      6  CG       -15.8870   14.7150   -9.5700 C.2     7  ASP7        0.3668
      7  OD1      -15.7520   15.9290   -9.2950 O.co2   7  ASP7       -0.2456
      8  OD2      -16.8810   14.2440  -10.1500 O.co2   7  ASP7       -0.2456
      9  N        -13.6890   15.2340   -6.4510 N.am    8  TYR8       -0.1962
     10  CA       -13.6350   16.3400   -5.4860 C.3     8  TYR8        0.1771
     11  C        -12.3260   17.0590   -5.5990 C.2     8  TYR8        0.2619
     12  O        -11.3030   16.4130   -5.8420 O.2     8  TYR8       -0.2715
     13  CB       -13.8020   15.8150   -4.0430 C.3     8  TYR8        0.0574
     14  CG       -13.1290   14.4810   -3.7850 C.ar    8  TYR8       -0.0198
     15  CD1      -13.7650   13.2840   -4.1070 C.ar    8  TYR8       -0.0009
     16  CD2      -11.8630   14.4140   -3.1980 C.ar    8  TYR8       -0.0009
     17  CE1      -13.1590   12.0540   -3.8700 C.ar    8  TYR8        0.0417
     18  CE2      -11.2550   13.1800   -2.9270 C.ar    8  TYR8        0.0417
     19  CZ       -11.9060   12.0060   -3.2840 C.ar    8  TYR8        0.1957
     20  OH       -11.3630   10.7720   -3.0650 O.3     8  TYR8       -0.2866
     21  N        -12.3560   18.3780   -5.3980 N.am    9  ALA9       -0.1977
     22  CA       -11.1530   19.2110   -5.4770 C.3     9  ALA9        0.1597
     23  C        -10.7680   19.8350   -4.1400 C.2     9  ALA9        0.2287
     24  O         -9.6030   20.2360   -3.9940 O.2     9  ALA9       -0.2864
     25  CB       -11.3820   20.3320   -6.4890 C.3     9  ALA9        0.0319
     26  N         -7.6300   14.2540   -9.4530 N.3    29  TYR29      -0.1241
     27  CA        -6.8850   15.1860  -10.2640 C.3    29  TYR29       0.1605
     28  C         -5.4060   14.9210  -10.3250 C.2    29  TYR29       0.2264
     29  O         -4.7200   14.8950   -9.2910 O.2    29  TYR29      -0.2867
     30  CB        -7.0740   16.6030   -9.7110 C.3    29  TYR29       0.0534
     31  CG        -8.4820   17.1000   -9.8700 C.ar   29  TYR29      -0.0201
     32  CD1       -8.9430   17.5560  -11.1050 C.ar   29  TYR29      -0.0009
     33  CD2       -9.3700   17.0950   -8.7960 C.ar   29  TYR29      -0.0009
     34  CE1      -10.2340   18.0390  -11.2610 C.ar   29  TYR29       0.0417
     35  CE2      -10.6770   17.5680   -8.9430 C.ar   29  TYR29       0.0417
     36  CZ       -11.0970   18.0460  -10.1790 C.ar   29  TYR29       0.1957
     37  OH       -12.3720   18.5290  -10.3580 O.3    29  TYR29      -0.2866
     38  N         -4.1970   26.0910   -9.7270 N.3    34  ARG34      -0.1245
     39  CA        -3.9830   27.3600  -10.4250 C.3    34  ARG34       0.1563
     40  C         -3.8990   28.5310   -9.4100 C.2    34  ARG34       0.2260
     41  O         -4.2930   28.3490   -8.2400 O.2    34  ARG34      -0.2867
     42  CB        -5.1350   27.5980  -11.4400 C.3    34  ARG34       0.0307
     43  CG        -6.5360   27.6680  -10.8130 C.3    34  ARG34       0.0489
     44  CD        -7.5790   28.1240  -11.8080 C.3    34  ARG34       0.2205
     45  NE        -8.9230   28.0700  -11.2430 N.pl3  34  ARG34      -0.0865
     46  CZ        -9.7200   27.0050  -11.2880 C.cat  34  ARG34       0.5346
     47  NH1       -9.3100   25.8760  -11.8770 N.pl3  34  ARG34       0.1354
     48  NH2      -10.9290   27.0540  -10.7460 N.pl3  34  ARG34       0.1354
     49  N         -6.8130   26.6280   -2.1440 N.3    39  TRP39      -0.1227
     50  CA        -7.8490   25.9000   -1.3940 C.3    39  TRP39       0.1737
     51  C         -8.1160   24.5080   -1.9810 C.2    39  TRP39       0.2595
     52  O         -8.7990   23.7100   -1.3430 O.2    39  TRP39      -0.2718
     53  CB        -9.1750   26.6890   -1.4070 C.3    39  TRP39       0.0564
     54  CG        -9.8020   26.8780   -2.7640 C.ar   39  TRP39       0.0003
     55  CD1       -9.5450   27.8920   -3.6450 C.ar   39  TRP39       0.0946
     56  CD2      -10.8110   26.0530   -3.3820 C.ar   39  TRP39       0.0152
     57  NE1      -10.3260   27.7470   -4.7750 N.ar   39  TRP39      -0.2442
     58  CE2      -11.0980   26.6190   -4.6480 C.ar   39  TRP39       0.0810
     59  CE3      -11.4730   24.8680   -3.0060 C.ar   39  TRP39       0.0012
     60  CZ2      -12.0530   26.0620   -5.5250 C.ar   39  TRP39       0.0191
     61  CZ3      -12.4040   24.3040   -3.8740 C.ar   39  TRP39       0.0001
     62  CH2      -12.6840   24.8920   -5.1220 C.ar   39  TRP39       0.0015
     63  N         -7.6440   24.2210   -3.2170 N.am   40  MET40      -0.1979
     64  CA        -7.9660   22.9140   -3.8210 C.3    40  MET40       0.1605
     65  C         -6.9570   21.8690   -3.3760 C.2    40  MET40       0.2287
     66  O         -6.1700   21.3490   -4.1710 O.2    40  MET40      -0.2864
     67  CB        -8.0780   23.0040   -5.3360 C.3    40  MET40       0.0413
     68  CG        -9.3270   23.7860   -5.7630 C.3    40  MET40       0.0598
     69  SD        -9.5970   23.8170   -7.5460 S.3    40  MET40      -0.1393
     70  CE        -8.1200   24.5700   -7.9940 C.3    40  MET40       0.0692
     71  N         -5.9400   18.6750   -5.1950 N.3    43  LYS43      -0.1245
     72  CA        -5.1170   18.6930   -6.4170 C.3    43  LYS43       0.1561
     73  C         -3.6300   18.8350   -6.0850 C.2    43  LYS43       0.2260
     74  O         -3.2690   19.8010   -5.4400 O.2    43  LYS43      -0.2867
     75  CB        -5.5060   19.8880   -7.3120 C.3    43  LYS43       0.0271
     76  CG        -6.9260   19.9280   -7.8390 C.3    43  LYS43       0.0035
     77  CD        -7.0240   21.0090   -8.9380 C.3    43  LYS43       0.0206
     78  CE        -8.4060   21.0830   -9.5180 C.3    43  LYS43       0.1093
     79  NZ        -8.4460   22.1140  -10.5990 N.3    43  LYS43      -0.1314
     80  N         -7.5930   18.8950  -14.8070 N.3    65  GLN65      -0.1245
     81  CA        -8.1820   20.2270  -14.9890 C.3    65  GLN65       0.1566
     82  C         -7.3320   21.2020  -14.2340 C.2    65  GLN65       0.2260
     83  O         -7.2460   21.1160  -13.0090 O.2    65  GLN65      -0.2867
     84  CB        -9.6430   20.3280  -14.5430 C.3    65  GLN65       0.0367
     85  CG       -10.2180   21.7070  -14.9370 C.3    65  GLN65       0.0905
     86  CD       -11.6760   21.9220  -14.6890 C.2    65  GLN65       0.2608
     87  OE1      -12.4480   20.9900  -14.4710 O.2    65  GLN65      -0.2717
     88  NE2      -12.0900   23.1780  -14.7920 N.am   65  GLN65      -0.0878
     89  N         -9.8910   27.2500  -15.6820 N.3    68  LYS68      -0.1245
     90  CA       -11.3590   27.2710  -15.7220 C.3    68  LYS68       0.1561
     91  C        -11.8490   28.5730  -16.3300 C.2    68  LYS68       0.2260
     92  O        -11.2070   29.6000  -16.1260 O.2    68  LYS68      -0.2867
     93  CB       -11.9050   27.1490  -14.2780 C.3    68  LYS68       0.0271
     94  CG       -13.3990   26.7920  -14.2030 C.3    68  LYS68       0.0035
     95  CD       -13.9310   26.9990  -12.7780 C.3    68  LYS68       0.0206
     96  CE       -15.2710   26.3450  -12.5460 C.3    68  LYS68       0.1093
     97  NZ       -15.1530   24.8650  -12.4300 N.3    68  LYS68      -0.1314
     98  N        -14.4130   21.6040  -19.3190 N.3   108  ASP108     -0.1239
     99  CA       -15.3550   22.0550  -18.3010 C.3   108  ASP108      0.1674
    100  C        -16.1270   23.2750  -18.8180 C.2   108  ASP108      0.2266
    101  O        -16.1030   24.3610  -18.2400 O.2   108  ASP108     -0.2867
    102  CB       -14.5460   22.3690  -17.0100 C.3   108  ASP108      0.1410
    103  CG       -15.4080   22.7380  -15.8220 C.2   108  ASP108      0.3668
    104  OD1      -16.5740   22.2600  -15.7580 O.co2 108  ASP108     -0.2456
    105  OD2      -14.9440   23.5440  -14.9870 O.co2 108  ASP108     -0.2456
    106  N        -18.7850   15.3040   -6.0470 N.3   191  ASP191     -0.1239
    107  CA       -19.6410   15.0430   -7.1930 C.3   191  ASP191      0.1674
    108  C        -19.7770   13.5490   -7.3380 C.2   191  ASP191      0.2266
    109  O        -18.8350   12.8010   -7.0230 O.2   191  ASP191     -0.2867
    110  CB       -19.0780   15.6630   -8.4840 C.3   191  ASP191      0.1410
    111  CG       -18.7110   17.1360   -8.3550 C.2   191  ASP191      0.3668
    112  OD1      -19.4930   17.8930   -7.7170 O.co2 191  ASP191     -0.2456
    113  OD2      -17.6920   17.5450   -8.9510 O.co2 191  ASP191     -0.2456
@<TRIPOS>BOND
     1    98    99    1
     2   100    99    1
     3   100   101    2
     4    99   102    1
     5   102   103    1
     6    91    92    2
     7    91    90    1
     8   103   104   ar
     9   103   105   ar
    10    90    89    1
    11    90    93    1
    12    81    80    1
    13    81    84    1
    14    81    82    1
    15    85    86    1
    16    85    84    1
    17    88    86   am
    18    86    87    2
    19    93    94    1
    20    82    83    2
    21    94    95    1
    22    95    96    1
    23    96    97    1
    24    47    46    1
    25    44    45    1
    26    44    43    1
    27    42    43    1
    28    42    39    1
    29    46    45    2
    30    46    48    1
    31    34    32   ar
    32    34    36   ar
    33    32    31   ar
    34    79    78    1
    35    39    38    1
    36    39    40    1
    37    37    36    1
    38    28    27    1
    39    28    29    2
    40    27    30    1
    41    27    26    1
    42    36    35   ar
    43     8     6   ar
    44    31    30    1
    45    31    33   ar
    46     6     7   ar
    47     6     5    1
    48    78    77    1
    49    40    41    2
    50     5     2    1
    51   113   111   ar
    52    35    33   ar
    53    77    76    1
    54   110   111    1
    55   110   107    1
    56   111   112   ar
    57    70    69    1
    58    76    75    1
    59     2     1    1
    60     2     3    1
    61    69    68    1
    62   108   107    1
    63   108   109    2
    64    75    72    1
    65   107   106    1
    66     3     9   am
    67     3     4    2
    68    25    22    1
    69     9    10    1
    70    72    73    1
    71    72    71    1
    72    73    74    2
    73    12    11    2
    74    68    67    1
    75    11    10    1
    76    11    21   am
    77    60    62   ar
    78    60    58   ar
    79    10    13    1
    80    22    21    1
    81    22    23    1
    82    67    64    1
    83    62    61   ar
    84    57    58   ar
    85    57    55   ar
    86    58    56   ar
    87    66    65    2
    88    23    24    2
    89    15    17   ar
    90    15    14   ar
    91    13    14    1
    92    61    59   ar
    93    17    19   ar
    94    64    65    1
    95    64    63    1
    96    14    16   ar
    97    55    54   ar
    98    56    59   ar
    99    56    54   ar
   100    19    20    1
   101    19    18   ar
   102    63    51   am
   103    16    18   ar
   104    54    53    1
   105    49    50    1
   106    51    50    1
   107    51    52    2
   108    53    50    1
