@<TRIPOS>MOLECULE
tmp/4pmrA00.pdb
 132 124 0 0 0
SMALL
GASTEIGER

@<TRIPOS>ATOM
      1  N          6.0960    0.0060    8.9920 N.3     7  ASP7       -0.1239
      2  CA         6.8840    0.6170   10.0800 C.3     7  ASP7        0.1674
      3  C          6.0960    1.8220   10.5840 C.2     7  ASP7        0.2266
      4  O          5.4280    2.4980    9.7960 O.2     7  ASP7       -0.2867
      5  CB         8.3340    0.9730    9.6890 C.3     7  ASP7        0.1410
      6  CG         8.4590    2.1840    8.7840 C.2     7  ASP7        0.3668
      7  OD1        8.4860    3.3180    9.3160 O.co2   7  ASP7       -0.2456
      8  OD2        8.4810    1.9990    7.5410 O.co2   7  ASP7       -0.2456
      9  N          5.6430    4.5550   14.4410 N.3     9  ALA9       -0.1245
     10  CA         6.0160    5.0090   15.7830 C.3     9  ALA9        0.1562
     11  C          4.8600    5.6740   16.5540 C.2     9  ALA9        0.2260
     12  O          4.9660    5.7930   17.7740 O.2     9  ALA9       -0.2867
     13  CB         7.1640    5.9970   15.6800 C.3     9  ALA9        0.0290
     14  N          9.9050   -0.0070   16.8950 N.3    29  TYR29      -0.1241
     15  CA        10.9730    0.7350   17.5660 C.3    29  TYR29       0.1605
     16  C         11.4240    0.1830   18.9040 C.2    29  TYR29       0.2264
     17  O         10.6430   -0.0160   19.8350 O.2    29  TYR29      -0.2867
     18  CB        10.6050    2.2260   17.7360 C.3    29  TYR29       0.0534
     19  CG        10.6250    2.9570   16.4130 C.ar   29  TYR29      -0.0201
     20  CD1       11.8090    3.4810   15.9040 C.ar   29  TYR29      -0.0009
     21  CD2        9.4720    3.0680   15.6370 C.ar   29  TYR29      -0.0009
     22  CE1       11.8460    4.1130   14.6620 C.ar   29  TYR29       0.0417
     23  CE2        9.5000    3.6730   14.3790 C.ar   29  TYR29       0.0417
     24  CZ        10.6890    4.2090   13.9020 C.ar   29  TYR29       0.1957
     25  OH        10.7450    4.8190   12.6770 O.3    29  TYR29      -0.2866
     26  N         11.4310   11.0030   22.3920 N.3    34  ARG34      -0.1245
     27  CA        12.2440   12.1450   22.8170 C.3    34  ARG34       0.1563
     28  C         11.3050   13.1090   23.6290 C.2    34  ARG34       0.2260
     29  O         10.0730   12.9420   23.5330 O.2    34  ARG34      -0.2867
     30  CB        13.0150   12.7970   21.6460 C.3    34  ARG34       0.0307
     31  CG        12.1700   13.2310   20.4910 C.3    34  ARG34       0.0489
     32  CD        12.9670   13.7530   19.3040 C.3    34  ARG34       0.2205
     33  NE        12.0270   13.8650   18.1910 N.pl3  34  ARG34      -0.0865
     34  CZ        11.8210   12.9270   17.2660 C.cat  34  ARG34       0.5346
     35  NH1       12.5670   11.8210   17.2450 N.pl3  34  ARG34       0.1354
     36  NH2       10.8790   13.0890   16.3520 N.pl3  34  ARG34       0.1354
     37  N          2.9750   11.9670   21.0820 N.3    39  TRP39      -0.1227
     38  CA         2.3050   11.2480   19.9970 C.3    39  TRP39       0.1737
     39  C          2.9490    9.8670   19.7270 C.2    39  TRP39       0.2595
     40  O          2.2850    9.0170   19.1410 O.2    39  TRP39      -0.2718
     41  CB         2.3070   12.0890   18.6880 C.3    39  TRP39       0.0564
     42  CG         3.6740   12.4260   18.1550 C.ar   39  TRP39       0.0003
     43  CD1        4.4510   13.4890   18.5130 C.ar   39  TRP39       0.0946
     44  CD2        4.4260   11.6910   17.1710 C.ar   39  TRP39       0.0152
     45  NE1        5.6480   13.4550   17.8300 N.ar   39  TRP39      -0.2442
     46  CE2        5.6630   12.3590   17.0040 C.ar   39  TRP39       0.0810
     47  CE3        4.1920   10.5100   16.4400 C.ar   39  TRP39       0.0012
     48  CZ2        6.6570   11.8960   16.1230 C.ar   39  TRP39       0.0191
     49  CZ3        5.1850   10.0370   15.5880 C.ar   39  TRP39       0.0001
     50  CH2        6.3950   10.7330   15.4210 C.ar   39  TRP39       0.0015
     51  N          4.2350    9.6490   20.1370 N.am   40  MET40      -0.1979
     52  CA         4.9990    8.4370   19.8200 C.3    40  MET40       0.1605
     53  C          4.6010    7.2450   20.6950 C.2    40  MET40       0.2287
     54  O          5.4560    6.6540   21.3650 O.2    40  MET40      -0.2864
     55  CB         6.5010    8.6870   19.9610 C.3    40  MET40       0.0413
     56  CG         7.0670    9.7560   19.0580 C.3    40  MET40       0.0598
     57  SD         8.8300    9.9370   19.4500 S.3    40  MET40      -0.1393
     58  CE         9.0710   11.5900   18.9570 C.3    40  MET40       0.0692
     59  N          6.5600    3.8530   20.6080 N.3    43  LYS43      -0.1245
     60  CA         7.9470    3.8220   21.0840 C.3    43  LYS43       0.1561
     61  C          8.0140    3.5980   22.6140 C.2    43  LYS43       0.2260
     62  O          7.5910    4.4630   23.3790 O.2    43  LYS43      -0.2867
     63  CB         8.7070    5.1230   20.7380 C.3    43  LYS43       0.0271
     64  CG         9.1830    5.2230   19.3080 C.3    43  LYS43       0.0035
     65  CD        10.2200    6.3050   19.1790 C.3    43  LYS43       0.0206
     66  CE        10.5320    6.5630   17.7410 C.3    43  LYS43       0.1093
     67  NZ        11.4050    7.7280   17.5760 N.3    43  LYS43      -0.1314
     68  N         15.6540    4.4610   16.4920 N.3    65  GLN65      -0.1245
     69  CA        15.7470    5.9000   16.1650 C.3    65  GLN65       0.1566
     70  C         15.2080    6.7140   17.3360 C.2    65  GLN65       0.2260
     71  O         14.0060    6.6880   17.6180 O.2    65  GLN65      -0.2867
     72  CB        15.0540    6.2900   14.8530 C.3    65  GLN65       0.0367
     73  CG        15.3240    7.7700   14.5180 C.3    65  GLN65       0.0905
     74  CD        14.6860    8.2860   13.2560 C.2    65  GLN65       0.2608
     75  OE1       14.2430    7.5240   12.3930 O.2    65  GLN65      -0.2717
     76  NE2       14.6700    9.6170   13.1030 N.am   65  GLN65      -0.0878
     77  N         16.1690   13.0940   15.6690 N.3    68  LYS68      -0.1245
     78  CA        15.7580   13.4100   14.2870 C.3    68  LYS68       0.1561
     79  C         16.3460   14.7490   13.8550 C.2    68  LYS68       0.2260
     80  O         16.4500   15.6510   14.6810 O.2    68  LYS68      -0.2867
     81  CB        14.2160   13.4810   14.2100 C.3    68  LYS68       0.0271
     82  CG        13.6640   13.8340   12.8260 C.3    68  LYS68       0.0035
     83  CD        12.1700   13.6150   12.7220 C.3    68  LYS68       0.0206
     84  CE        11.7040   13.9080   11.3130 C.3    68  LYS68       0.1093
     85  NZ        10.2960   13.4860   11.0950 N.3    68  LYS68      -0.1314
     86  N         18.2130    8.3360    9.3960 N.3   108  ASP108     -0.1239
     87  CA        17.0210    8.9650    8.8110 C.3   108  ASP108      0.1674
     88  C         17.4340   10.3320    8.2680 C.2   108  ASP108      0.2266
     89  O         16.9770   11.3630    8.7520 O.2   108  ASP108     -0.2867
     90  CB        15.9020    9.0550    9.8720 C.3   108  ASP108      0.1410
     91  CG        14.6550    9.8070    9.4380 C.2   108  ASP108      0.3668
     92  OD1       14.3690    9.8360    8.2100 O.co2 108  ASP108     -0.2456
     93  OD2       14.0140   10.4360   10.3060 O.co2 108  ASP108     -0.2456
     94  N         19.4560    1.3590    8.5220 N.3   139  TYR139     -0.1241
     95  CA        18.3200    1.9830    7.8130 C.3   139  TYR139      0.1605
     96  C         18.8750    3.2600    7.2050 C.2   139  TYR139      0.2264
     97  O         19.2890    4.1660    7.9440 O.2   139  TYR139     -0.2867
     98  CB        17.1080    2.2360    8.7380 C.3   139  TYR139      0.0534
     99  CG        16.0650    3.1680    8.1460 C.ar  139  TYR139     -0.0201
    100  CD1       15.2350    2.7530    7.1060 C.ar  139  TYR139     -0.0009
    101  CD2       15.9260    4.4710    8.6100 C.ar  139  TYR139     -0.0009
    102  CE1       14.2540    3.5970    6.5800 C.ar  139  TYR139      0.0417
    103  CE2       14.9710    5.3360    8.0710 C.ar  139  TYR139      0.0417
    104  CZ        14.1150    4.8850    7.0840 C.ar  139  TYR139      0.1957
    105  OH        13.1880    5.7610    6.5800 O.3   139  TYR139     -0.2866
    106  N         15.8870    3.4630    2.4240 N.3   160  HIS160     -0.1241
    107  CA        14.9040    4.5610    2.3750 C.3   160  HIS160      0.1621
    108  C         15.1980    5.3910    1.1180 C.2   160  HIS160      0.2264
    109  O         16.2910    5.2560    0.5540 O.2   160  HIS160     -0.2867
    110  CB        14.8120    5.3920    3.6660 C.3   160  HIS160      0.0745
    111  CG        15.9950    6.2410    4.0200 C.ar  160  HIS160      0.0817
    112  ND1       16.2970    7.3820    3.3100 N.ar  160  HIS160     -0.2268
    113  CD2       16.7740    6.2010    5.1320 C.ar  160  HIS160      0.1154
    114  CE1       17.3300    7.9310    3.9300 C.ar  160  HIS160      0.1986
    115  NE2       17.6440    7.2650    5.0390 N.ar  160  HIS160     -0.2212
    116  N         11.9340    0.5860    1.6930 N.3   177  GLN177     -0.1245
    117  CA        10.8200    1.4670    2.0220 C.3   177  GLN177      0.1566
    118  C         10.2550    2.0010    0.7290 C.2   177  GLN177      0.2260
    119  O         10.9820    2.6080   -0.0690 O.2   177  GLN177     -0.2867
    120  CB        11.2870    2.6040    2.9360 C.3   177  GLN177      0.0367
    121  CG        10.1430    3.2820    3.6700 C.3   177  GLN177      0.0905
    122  CD        10.6480    4.0680    4.8400 C.2   177  GLN177      0.2608
    123  OE1       11.4710    4.9580    4.6970 O.2   177  GLN177     -0.2717
    124  NE2       10.1140    3.8010    6.0190 N.am  177  GLN177     -0.0878
    125  N          4.3970    3.4690    7.0960 N.3   189  ASP189     -0.1239
    126  CA         5.1540    3.3800    5.8640 C.3   189  ASP189      0.1674
    127  C          5.1930    1.9060    5.4680 C.2   189  ASP189      0.2266
    128  O          5.1210    1.0310    6.3360 O.2   189  ASP189     -0.2867
    129  CB         6.5350    4.0080    5.9990 C.3   189  ASP189      0.1410
    130  CG         6.4500    5.5150    5.8910 C.2   189  ASP189      0.3668
    131  OD1        6.0370    6.0100    4.8170 O.co2 189  ASP189     -0.2456
    132  OD2        6.7290    6.1910    6.8910 O.co2 189  ASP189     -0.2456
@<TRIPOS>BOND
     1   119   118    2
     2   109   108    2
     3   118   117    1
     4   108   107    1
     5   116   117    1
     6   117   120    1
     7   107   106    1
     8   107   110    1
     9   120   121    1
    10   112   114   ar
    11   112   111   ar
    12   110   111    1
    13   121   122    1
    14   114   115   ar
    15   111   113   ar
    16   123   122    2
    17   131   130   ar
    18   122   124   am
    19   115   113   ar
    20   127   126    1
    21   127   128    2
    22   126   129    1
    23   126   125    1
    24   130   129    1
    25   130   132   ar
    26   105   104    1
    27   102   104   ar
    28   102   100   ar
    29   104   103   ar
    30   100    99   ar
    31    96    95    1
    32    96    97    2
    33     8     6   ar
    34    95    94    1
    35    95    98    1
    36   103   101   ar
    37    99   101   ar
    38    99    98    1
    39    92    91   ar
    40    88    89    2
    41    88    87    1
    42     6     7   ar
    43     6     5    1
    44    87    86    1
    45    87    90    1
    46     1     2    1
    47    91    90    1
    48    91    93   ar
    49     5     2    1
    50     4     3    2
    51     2     3    1
    52    85    84    1
    53    84    83    1
    54    75    74    2
    55    25    24    1
    56    83    82    1
    57    82    81    1
    58    76    74   am
    59    74    73    1
    60    79    78    1
    61    79    80    2
    62    24    23   ar
    63    24    22   ar
    64    81    78    1
    65    78    77    1
    66    23    21   ar
    67     9    10    1
    68    73    72    1
    69    22    20   ar
    70    72    69    1
    71    50    49   ar
    72    50    48   ar
    73    49    47   ar
    74    21    19   ar
    75    13    10    1
    76    10    11    1
    77    20    19   ar
    78    48    46   ar
    79    69    68    1
    80    69    70    1
    81    36    34    1
    82    19    18    1
    83    47    44   ar
    84    11    12    2
    85    14    15    1
    86    46    44   ar
    87    46    45   ar
    88    44    42   ar
    89    35    34    1
    90    34    33    2
    91    70    71    2
    92    15    18    1
    93    15    16    1
    94    67    66    1
    95    66    65    1
    96    45    43   ar
    97    42    43   ar
    98    42    41    1
    99    33    32    1
   100    41    38    1
   101    16    17    2
   102    58    57    1
   103    56    57    1
   104    56    55    1
   105    40    39    2
   106    65    64    1
   107    32    31    1
   108    64    63    1
   109    39    38    1
   110    39    51   am
   111    52    55    1
   112    52    51    1
   113    52    53    1
   114    38    37    1
   115    31    30    1
   116    59    60    1
   117    53    54    2
   118    63    60    1
   119    60    61    1
   120    30    27    1
   121    26    27    1
   122    61    62    2
   123    27    28    1
   124    29    28    2
