@<TRIPOS>MOLECULE
tmp/4pmsA00.pdb
 213 203 0 0 0
SMALL
GASTEIGER

@<TRIPOS>ATOM
      1  N         23.1370  -39.1210   -6.9730 N.3    16  LEU16      -0.1245
      2  CA        23.1490  -37.7750   -6.3780 C.3    16  LEU16       0.1561
      3  C         22.7920  -36.7370   -7.4380 C.2    16  LEU16       0.2260
      4  O         22.0730  -35.7860   -7.1520 O.2    16  LEU16      -0.2867
      5  CB        24.5210  -37.4630   -5.7740 C.3    16  LEU16       0.0270
      6  CG        24.9130  -38.2790   -4.5610 C.3    16  LEU16       0.0019
      7  CD1       26.4250  -38.2070   -4.3200 C.3    16  LEU16       0.0001
      8  CD2       24.1530  -37.8130   -3.3350 C.3    16  LEU16       0.0001
      9  N         25.8130  -35.1430  -14.5860 N.3    19  GLY19      -0.1225
     10  CA        26.5930  -34.1620  -15.3220 C.3    19  GLY19       0.1811
     11  C         26.3610  -34.5190  -16.7770 C.2    19  GLY19       0.2280
     12  O         25.5810  -35.4440  -17.0610 O.2    19  GLY19      -0.2866
     13  N         26.6200  -39.1910  -10.9830 N.3    24  VAL24      -0.1245
     14  CA        27.2710  -39.2520   -9.6820 C.3    24  VAL24       0.1561
     15  C         26.4090  -40.0320   -8.7210 C.2    24  VAL24       0.2260
     16  O         25.2030  -39.8300   -8.6630 O.2    24  VAL24      -0.2867
     17  CB        27.7160  -37.8800   -9.1240 C.3    24  VAL24       0.0252
     18  CG1       28.7980  -38.0480   -8.0530 C.3    24  VAL24       0.0019
     19  CG2       28.2270  -36.9870  -10.2500 C.3    24  VAL24       0.0019
     20  N         31.8140  -40.5570   -3.2210 N.3    39  ALA39      -0.1245
     21  CA        31.0870  -39.9720   -4.3390 C.3    39  ALA39       0.1562
     22  C         31.7050  -40.6410   -5.5680 C.2    39  ALA39       0.2260
     23  O         32.8940  -40.4600   -5.8270 O.2    39  ALA39      -0.2867
     24  CB        31.3140  -38.4690   -4.3770 C.3    39  ALA39       0.0290
     25  N         31.7940  -41.0670   -9.6260 N.3    41  LYS41      -0.1245
     26  CA        31.4200  -40.5280  -10.9440 C.3    41  LYS41       0.1561
     27  C         31.5310  -41.6810  -11.9470 C.2    41  LYS41       0.2260
     28  O         32.5880  -42.2950  -12.0470 O.2    41  LYS41      -0.2867
     29  CB        32.3170  -39.3430  -11.3620 C.3    41  LYS41       0.0271
     30  CG        31.8390  -38.6120  -12.6320 C.3    41  LYS41       0.0035
     31  CD        32.7600  -37.4450  -12.9960 C.3    41  LYS41       0.0206
     32  CE        32.2700  -36.5740  -14.1370 C.3    41  LYS41       0.1093
     33  NZ        31.0500  -35.7710  -13.7990 N.3    41  LYS41      -0.1314
     34  N         42.2990  -36.9760  -16.9280 N.3    54  GLU54      -0.1245
     35  CA        41.6600  -36.4250  -15.7400 C.3    54  GLU54       0.1567
     36  C         42.1200  -37.1810  -14.5150 C.2    54  GLU54       0.2260
     37  O         42.5340  -36.5330  -13.5620 O.2    54  GLU54      -0.2867
     38  CB        40.1210  -36.3870  -15.8400 C.3    54  GLU54       0.0388
     39  CG        39.4950  -35.4250  -14.8240 C.3    54  GLU54       0.1160
     40  CD        37.9810  -35.3140  -14.6950 C.2    54  GLU54       0.3649
     41  OE1       37.2580  -35.8100  -15.5910 O.co2  54  GLU54      -0.2457
     42  OE2       37.5190  -34.7160  -13.6930 O.co2  54  GLU54      -0.2457
     43  N         43.9120  -35.4320  -11.2510 N.3    58  LEU58      -0.1245
     44  CA        43.2740  -35.5830   -9.9390 C.3    58  LEU58       0.1561
     45  C         44.1910  -36.3350   -8.9510 C.2    58  LEU58       0.2260
     46  O         44.1920  -36.0440   -7.7520 O.2    58  LEU58      -0.2867
     47  CB        41.8910  -36.2750  -10.0680 C.3    58  LEU58       0.0270
     48  CG        40.8000  -35.5650  -10.8910 C.3    58  LEU58       0.0019
     49  CD1       39.6040  -36.4580  -11.1040 C.3    58  LEU58       0.0001
     50  CD2       40.3830  -34.2760  -10.2610 C.3    58  LEU58       0.0001
     51  N         46.7240  -33.4970   -7.9330 N.3    61  LEU61      -0.1245
     52  CA        46.1400  -32.4150   -7.1320 C.3    61  LEU61       0.1561
     53  C         45.6900  -32.9700   -5.7670 C.2    61  LEU61       0.2260
     54  O         44.5640  -33.4840   -5.6320 O.2    61  LEU61      -0.2867
     55  CB        44.9520  -31.7410   -7.8520 C.3    61  LEU61       0.0270
     56  CG        45.2130  -30.9810   -9.1540 C.3    61  LEU61       0.0019
     57  CD1       43.9070  -30.4950   -9.7530 C.3    61  LEU61       0.0001
     58  CD2       46.1480  -29.7980   -8.9380 C.3    61  LEU61       0.0001
     59  N         41.1780  -29.1680   -1.4150 N.3    66  ILE66      -0.1231
     60  CA        40.8520  -29.6890   -2.7290 C.3    66  ILE66       0.1692
     61  C         40.1540  -31.0090   -2.4320 C.2    66  ILE66       0.2591
     62  O         40.6860  -31.8300   -1.6720 O.2    66  ILE66      -0.2718
     63  CB        42.0880  -29.8440   -3.6860 C.3    66  ILE66       0.0266
     64  CG1       42.8750  -28.5030   -3.8820 C.3    66  ILE66       0.0019
     65  CG2       41.6930  -30.4720   -5.0450 C.3    66  ILE66       0.0020
     66  CD1       42.1240  -27.2700   -4.6620 C.3    66  ILE66       0.0001
     67  N         38.9390  -31.1860   -2.9930 N.am   67  VAL67      -0.1980
     68  CA        38.1170  -32.3910   -2.8550 C.3    67  VAL67       0.1595
     69  C         39.0110  -33.6490   -3.1110 C.2    67  VAL67       0.2287
     70  O         39.7120  -33.6980   -4.1240 O.2    67  VAL67      -0.2864
     71  CB        36.9050  -32.3010   -3.8140 C.3    67  VAL67       0.0276
     72  CG1       36.1180  -33.6120   -3.8540 C.3    67  VAL67       0.0022
     73  CG2       36.0020  -31.1370   -3.4220 C.3    67  VAL67       0.0022
     74  N         40.4110  -37.1690   -4.2280 N.3    69  PHE69      -0.1241
     75  CA        40.2370  -38.1460   -5.2900 C.3    69  PHE69       0.1605
     76  C         40.8920  -39.4190   -4.7280 C.2    69  PHE69       0.2264
     77  O         42.0180  -39.3510   -4.2140 O.2    69  PHE69      -0.2867
     78  CB        40.9270  -37.6930   -6.5890 C.3    69  PHE69       0.0534
     79  CG        40.9250  -38.7370   -7.6880 C.ar   69  PHE69      -0.0203
     80  CD1       39.7470  -39.0870   -8.3370 C.ar   69  PHE69      -0.0042
     81  CD2       42.1030  -39.3610   -8.0780 C.ar   69  PHE69      -0.0042
     82  CE1       39.7470  -40.0420   -9.3480 C.ar   69  PHE69      -0.0003
     83  CE2       42.1050  -40.3080   -9.1070 C.ar   69  PHE69      -0.0003
     84  CZ        40.9270  -40.6390   -9.7320 C.ar   69  PHE69      -0.0000
     85  N         35.6330  -40.3120   -5.2630 N.3    83  PHE83      -0.1227
     86  CA        35.9650  -39.0820   -4.5100 C.3    83  PHE83       0.1736
     87  C         35.3720  -39.1180   -3.1210 C.2    83  PHE83       0.2598
     88  O         34.4280  -39.8710   -2.8940 O.2    83  PHE83      -0.2717
     89  CB        35.4180  -37.8160   -5.2180 C.3    83  PHE83       0.0547
     90  CG        35.8110  -37.6340   -6.6620 C.ar   83  PHE83      -0.0202
     91  CD1       35.0880  -38.2510   -7.6820 C.ar   83  PHE83      -0.0042
     92  CD2       36.8770  -36.8150   -7.0120 C.ar   83  PHE83      -0.0042
     93  CE1       35.4510  -38.0840   -9.0170 C.ar   83  PHE83      -0.0003
     94  CE2       37.2240  -36.6290   -8.3590 C.ar   83  PHE83      -0.0003
     95  CZ        36.5160  -37.2750   -9.3460 C.ar   83  PHE83      -0.0000
     96  N         35.8880  -38.2580   -2.2100 N.am   84  GLU84      -0.1920
     97  CA        35.3620  -38.1320   -0.8590 C.3    84  GLU84       0.1949
     98  C         33.9080  -37.5810   -0.8490 C.2    84  GLU84       0.2659
     99  O         33.4870  -36.8480   -1.7590 O.2    84  GLU84      -0.2711
    100  CB        36.2980  -37.2900    0.0230 C.2    84  GLU84       0.0111
    101  CG        36.0800  -35.7910   -0.0520 C.2    84  GLU84       0.0838
    102  CD        37.0350  -34.9190    0.7410 C.2    84  GLU84       0.3877
    103  OE1       37.2050  -35.1320    1.9630 O.co2  84  GLU84      -0.2406
    104  OE2       37.6080  -33.9950    0.1270 O.co2  84  GLU84      -0.2406
    105  N         33.1380  -37.9580    0.1900 N.am   85  TYR85      -0.1957
    106  CA        31.7700  -37.4810    0.3280 C.3    85  TYR85       0.1771
    107  C         31.7680  -36.3560    1.3390 C.2    85  TYR85       0.2619
    108  O         32.3120  -36.4990    2.4350 O.2    85  TYR85      -0.2715
    109  CB        30.7980  -38.6000    0.7010 C.3    85  TYR85       0.0574
    110  CG        29.3670  -38.1270    0.7820 C.ar   85  TYR85      -0.0198
    111  CD1       28.7190  -37.6110   -0.3370 C.ar   85  TYR85      -0.0009
    112  CD2       28.6580  -38.1850    1.9790 C.ar   85  TYR85      -0.0009
    113  CE1       27.4060  -37.1410   -0.2640 C.ar   85  TYR85       0.0417
    114  CE2       27.3390  -37.7290    2.0630 C.ar   85  TYR85       0.0417
    115  CZ        26.7180  -37.1960    0.9390 C.ar   85  TYR85       0.1957
    116  OH        25.4100  -36.7420    0.9860 O.3    85  TYR85      -0.2866
    117  N         31.2080  -35.2090    0.9280 N.am   86  MET86      -0.1977
    118  CA        31.0680  -33.9830    1.7210 C.3    86  MET86       0.1605
    119  C         29.5590  -33.8510    2.0100 C.2    86  MET86       0.2287
    120  O         28.7710  -33.4990    1.1190 O.2    86  MET86      -0.2864
    121  CB        31.6170  -32.7700    0.9530 C.3    86  MET86       0.0413
    122  CG        33.0420  -32.9490    0.4580 C.3    86  MET86       0.0598
    123  SD        34.2610  -32.6280    1.7290 S.3    86  MET86      -0.1393
    124  CE        34.2010  -30.8920    1.7990 C.3    86  MET86       0.0692
    125  N         26.9400  -30.8970    0.9250 N.3    89  GLY89      -0.1210
    126  CA        26.8270  -30.5990   -0.4950 C.3    89  GLY89       0.1956
    127  C         27.5680  -29.3600   -0.9350 C.2    89  GLY89       0.2611
    128  O         28.5310  -28.9410   -0.2870 O.2    89  GLY89      -0.2717
    129  N         27.1120  -28.7590   -2.0370 N.am   90  ASP90      -0.1973
    130  CA        27.7730  -27.5830   -2.5720 C.3    90  ASP90       0.1709
    131  C         27.6030  -26.3740   -1.6370 C.2    90  ASP90       0.2293
    132  O         26.6000  -26.2820   -0.9190 O.2    90  ASP90      -0.2864
    133  CB        27.3510  -27.3210   -4.0260 C.3    90  ASP90       0.1436
    134  CG        26.0470  -26.5650   -4.1970 C.2    90  ASP90       0.3671
    135  OD1       26.0850  -25.3050   -4.2100 O.co2  90  ASP90      -0.2456
    136  OD2       24.9820  -27.2290   -4.3280 O.co2  90  ASP90      -0.2456
    137  N         32.6490  -27.5740   -1.9360 N.3   151  LEU151     -0.1245
    138  CA        31.9060  -28.4820   -1.0840 C.3   151  LEU151      0.1561
    139  C         32.1510  -28.2180    0.3880 C.2   151  LEU151      0.2260
    140  O         33.2270  -27.7510    0.7810 O.2   151  LEU151     -0.2867
    141  CB        32.1200  -29.9550   -1.4400 C.3   151  LEU151      0.0270
    142  CG        31.8340  -30.3800   -2.8820 C.3   151  LEU151      0.0019
    143  CD1       32.1890  -31.8310   -3.0920 C.3   151  LEU151      0.0001
    144  CD2       30.4110  -30.0690   -3.3070 C.3   151  LEU151      0.0001
    145  N         37.5210  -27.1750   -2.5430 N.3   160  ILE160     -0.1231
    146  CA        37.2830  -26.8160   -3.9550 C.3   160  ILE160      0.1692
    147  C         37.3440  -28.0130   -4.8900 C.2   160  ILE160      0.2593
    148  O         38.2800  -28.7980   -4.8110 O.2   160  ILE160     -0.2718
    149  CB        38.2830  -25.7190   -4.4740 C.3   160  ILE160      0.0266
    150  CG1       38.3640  -24.5030   -3.5460 C.3   160  ILE160      0.0019
    151  CG2       37.9650  -25.2850   -5.9490 C.3   160  ILE160      0.0020
    152  CD1       39.6430  -23.7490   -3.7300 C.3   160  ILE160      0.0001
    153  N         36.3790  -28.0890   -5.8080 N.am  161  GLY161     -0.1942
    154  CA        36.3050  -29.0820   -6.8730 C.3   161  GLY161      0.2014
    155  C         36.0080  -28.3740   -8.1830 C.2   161  GLY161      0.2639
    156  O         36.3030  -27.1890   -8.3330 O.2   161  GLY161     -0.2714
    157  N         35.4190  -29.0780   -9.1410 N.am  162  ASP162     -0.1957
    158  CA        35.0040  -28.5570  -10.4550 C.3   162  ASP162      0.1840
    159  C         33.9950  -29.5940  -10.8470 C.2   162  ASP162      0.2622
    160  O         34.3720  -30.6850  -11.2770 O.2   162  ASP162     -0.2715
    161  CB        36.1790  -28.4920  -11.4550 C.3   162  ASP162      0.1450
    162  CG        35.8440  -27.7730  -12.7430 C.2   162  ASP162      0.3671
    163  OD1       36.5470  -27.9970  -13.7460 O.co2 162  ASP162     -0.2456
    164  OD2       34.8990  -26.9740  -12.7450 O.co2 162  ASP162     -0.2456
    165  N         32.7180  -29.3010  -10.6180 N.am  163  PHE163     -0.1960
    166  CA        31.7030  -30.3140  -10.8280 C.3   163  PHE163      0.1771
    167  C         30.8560  -30.1500  -12.0350 C.2   163  PHE163      0.2620
    168  O         30.4570  -29.0280  -12.3650 O.2   163  PHE163     -0.2715
    169  CB        30.8090  -30.4120   -9.5750 C.3   163  PHE163      0.0574
    170  CG        31.6470  -30.3430   -8.3150 C.ar  163  PHE163     -0.0200
    171  CD1       32.5350  -31.3700   -7.9910 C.ar  163  PHE163     -0.0042
    172  CD2       31.5970  -29.2230   -7.4870 C.ar  163  PHE163     -0.0042
    173  CE1       33.3340  -31.2870   -6.8550 C.ar  163  PHE163     -0.0003
    174  CE2       32.4000  -29.1380   -6.3540 C.ar  163  PHE163     -0.0003
    175  CZ        33.2660  -30.1650   -6.0520 C.ar  163  PHE163     -0.0000
    176  N         30.5520  -31.2930  -12.6610 N.am  164  GLY164     -0.1940
    177  CA        29.6600  -31.4000  -13.8100 C.3   164  GLY164      0.2014
    178  C         28.2150  -31.2600  -13.3680 C.2   164  GLY164      0.2639
    179  O         27.3590  -30.8180  -14.1520 O.2   164  GLY164     -0.2714
    180  N         27.9340  -31.6340  -12.0860 N.am  165  MET165     -0.1963
    181  CA        26.6070  -31.4970  -11.4700 C.3   165  MET165      0.1736
    182  C         26.2960  -30.0000  -11.3480 C.2   165  MET165      0.2617
    183  O         25.1760  -29.6020  -11.6540 O.2   165  MET165     -0.2715
    184  CB        26.5340  -32.1810  -10.0940 C.3   165  MET165      0.0427
    185  CG        26.0540  -33.6100  -10.1690 C.3   165  MET165      0.0599
    186  SD        26.1220  -34.4900   -8.5880 S.3   165  MET165     -0.1393
    187  CE        24.8300  -33.7100   -7.7210 C.3   165  MET165      0.0692
    188  N         27.3110  -29.1700  -10.9580 N.am  166  SER166     -0.1950
    189  CA        27.2260  -27.7050  -10.8380 C.3   166  SER166      0.1924
    190  C         26.7970  -27.0250  -12.1420 C.2   166  SER166      0.2314
    191  O         26.1500  -25.9910  -12.0790 O.2   166  SER166     -0.2863
    192  CB        28.5550  -27.1170  -10.3890 C.3   166  SER166      0.2116
    193  OG        28.6830  -27.2740   -8.9900 O.3   166  SER166     -0.2180
    194  N         22.7450  -28.3730  -12.2580 N.3   169  ILE169     -0.1231
    195  CA        21.9990  -27.7900  -11.1450 C.3   169  ILE169      0.1692
    196  C         21.9770  -26.2730  -11.2600 C.2   169  ILE169      0.2592
    197  O         20.9350  -25.6700  -11.0220 O.2   169  ILE169     -0.2718
    198  CB        22.6010  -28.2410   -9.7780 C.3   169  ILE169      0.0266
    199  CG1       22.5600  -29.7750   -9.6150 C.3   169  ILE169      0.0019
    200  CG2       21.9230  -27.5240   -8.5940 C.3   169  ILE169      0.0020
    201  CD1       23.5400  -30.3090   -8.6000 C.3   169  ILE169      0.0001
    202  N         23.1150  -25.6540  -11.6210 N.am  170  TYR170     -0.1976
    203  CA        23.1990  -24.2080  -11.7380 C.3   170  TYR170      0.1639
    204  C         23.4140  -23.7760  -13.1580 C.2   170  TYR170      0.2290
    205  O         24.2310  -22.8840  -13.3740 O.2   170  TYR170     -0.2864
    206  CB        24.3240  -23.6810  -10.8440 C.3   170  TYR170      0.0560
    207  CG        24.1280  -23.9930   -9.3820 C.ar  170  TYR170     -0.0198
    208  CD1       23.3200  -23.1880   -8.5790 C.ar  170  TYR170     -0.0009
    209  CD2       24.7570  -25.0870   -8.7910 C.ar  170  TYR170     -0.0009
    210  CE1       23.1420  -23.4660   -7.2290 C.ar  170  TYR170      0.0417
    211  CE2       24.5910  -25.3700   -7.4370 C.ar  170  TYR170      0.0417
    212  CZ        23.7730  -24.5610   -6.6650 C.ar  170  TYR170      0.1957
    213  OH        23.5950  -24.8270   -5.3390 O.3   170  TYR170     -0.2866
@<TRIPOS>BOND
     1    12    11    2
     2    34    35    1
     3    11    10    1
     4    38    35    1
     5    38    39    1
     6    35    36    1
     7    41    40   ar
     8    10     9    1
     9    39    40    1
    10    40    42   ar
    11    36    37    2
    12   179   178    2
    13    32    33    1
    14    32    31    1
    15   177   178    1
    16   177   176    1
    17   163   162   ar
    18   205   204    2
    19   178   180   am
    20   204   203    1
    21    31    30    1
    22   164   162   ar
    23   162   161    1
    24   176   167   am
    25    30    29    1
    26   168   167    2
    27   194   195    1
    28   190   191    2
    29   190   189    1
    30   180   181    1
    31    28    27    2
    32   167   166    1
    33    27    26    1
    34   203   202    1
    35   203   206    1
    36   183   182    2
    37   202   196   am
    38   181   182    1
    39   181   184    1
    40   161   158    1
    41    29    26    1
    42   182   188   am
    43   160   159    2
    44   196   195    1
    45   196   197    2
    46    43    44    1
    47   195   198    1
    48    49    48    1
    49    13    14    1
    50   188   189    1
    51    26    25    1
    52    48    50    1
    53    48    47    1
    54   159   165   am
    55   159   158    1
    56   206   207    1
    57   189   192    1
    58   166   165    1
    59   166   169    1
    60   158   157    1
    61   192   193    1
    62    19    17    1
    63   185   184    1
    64   185   186    1
    65    47    44    1
    66    44    45    1
    67   198   199    1
    68   198   200    1
    69    57    56    1
    70    84    82   ar
    71    84    83   ar
    72    14    17    1
    73    14    15    1
    74   199   201    1
    75   169   170    1
    76   207   209   ar
    77   207   208   ar
    78    82    80   ar
    79    95    93   ar
    80    95    94   ar
    81    56    58    1
    82    56    55    1
    83   157   155   am
    84    17    18    1
    85    83    81   ar
    86    93    91   ar
    87    45    46    2
    88   209   211   ar
    89    15    16    2
    90   186   187    1
    91   208   210   ar
    92    94    92   ar
    93    80    79   ar
    94   156   155    2
    95   170   171   ar
    96   170   172   ar
    97   155   154    1
    98    81    79   ar
    99   171   173   ar
   100    51    52    1
   101    55    52    1
   102    79    78    1
   103    91    90   ar
   104   172   174   ar
   105     3     4    2
   106     3     2    1
   107   211   212   ar
   108   210   212   ar
   109    52    53    1
   110    92    90   ar
   111     1     2    1
   112   154   153    1
   113   173   175   ar
   114   212   213    1
   115    90    89    1
   116    78    75    1
   117     2     5    1
   118   174   175   ar
   119   151   149    1
   120    23    22    2
   121   153   147   am
   122     5     6    1
   123    53    54    2
   124    22    21    1
   125    75    76    1
   126    75    74    1
   127    85    86    1
   128    89    86    1
   129    65    63    1
   130   147   148    2
   131   147   146    1
   132    76    77    2
   133    66    64    1
   134     6     7    1
   135     6     8    1
   136    86    87    1
   137   149   146    1
   138   149   150    1
   139    24    21    1
   140    21    20    1
   141   136   134   ar
   142   135   134   ar
   143   134   133    1
   144    70    69    2
   145   133   130    1
   146   146   145    1
   147    64    63    1
   148    72    71    1
   149    71    73    1
   150    71    68    1
   151   152   150    1
   152    63    60    1
   153   144   142    1
   154    87    88    2
   155    87    96   am
   156    69    68    1
   157   143   142    1
   158    67    68    1
   159    67    61   am
   160   142   141    1
   161    60    61    1
   162    60    59    1
   163   130   129    1
   164   130   131    1
   165    61    62    2
   166    96    97    1
   167   129   127   am
   168   137   138    1
   169    99    98    2
   170   131   132    2
   171   141   138    1
   172   138   139    1
   173   127   126    1
   174   127   128    2
   175    97    98    1
   176    97   100    1
   177    98   105   am
   178   126   125    1
   179   111   113   ar
   180   111   110   ar
   181   113   115   ar
   182   101   100    2
   183   101   102    1
   184   104   102   ar
   185   105   106    1
   186   106   109    1
   187   106   107    1
   188   139   140    2
   189   122   121    1
   190   122   123    1
   191   109   110    1
   192   102   103   ar
   193   110   112   ar
   194   117   107   am
   195   117   118    1
   196   115   116    1
   197   115   114   ar
   198   121   118    1
   199   120   119    2
   200   107   108    2
   201   118   119    1
   202   123   124    1
   203   112   114   ar
