@<TRIPOS>MOLECULE
tmp/4pmtA00.pdb
 168 159 0 0 0
SMALL
GASTEIGER

@<TRIPOS>ATOM
      1  N         21.8180  -38.2100   -3.1580 N.3    16  LEU16      -0.1231
      2  CA        22.0910  -37.0340   -2.3130 C.3    16  LEU16       0.1693
      3  C         21.5380  -35.7830   -3.0200 C.2    16  LEU16       0.2593
      4  O         21.0510  -34.8450   -2.3680 O.2    16  LEU16      -0.2718
      5  CB        23.6030  -36.8760   -2.0760 C.3    16  LEU16       0.0284
      6  CG        24.2940  -37.9310   -1.2130 C.3    16  LEU16       0.0019
      7  CD1       25.7900  -37.7380   -1.2470 C.3    16  LEU16       0.0001
      8  CD2       23.7840  -37.9150    0.2310 C.3    16  LEU16       0.0001
      9  N         21.6100  -35.8230   -4.3470 N.am   17  GLY17      -0.1942
     10  CA        21.1360  -34.7820   -5.2410 C.3    17  GLY17       0.2014
     11  C         21.4310  -35.1230   -6.6830 C.2    17  GLY17       0.2641
     12  O         22.1320  -36.0970   -6.9520 O.2    17  GLY17      -0.2714
     13  N         20.8970  -34.3260   -7.6200 N.am   18  GLU18      -0.1931
     14  CA        21.1000  -34.5090   -9.0630 C.3    18  GLU18       0.1818
     15  C         21.3390  -33.1550   -9.7110 C.2    18  GLU18       0.2332
     16  O         20.6710  -32.1750   -9.3670 O.2    18  GLU18      -0.2860
     17  CB        19.8840  -35.2120   -9.7010 C.2    18  GLU18       0.0097
     18  CG        19.9960  -35.4830  -11.1980 C.2    18  GLU18       0.0837
     19  CD        18.8290  -36.2290  -11.8220 C.2    18  GLU18       0.3877
     20  OE1       18.0650  -36.8880  -11.0760 O.co2  18  GLU18      -0.2406
     21  OE2       18.6870  -36.1620  -13.0660 O.co2  18  GLU18      -0.2406
     22  N         24.3270  -37.7040   -8.0800 N.3    24  VAL24      -0.1245
     23  CA        25.2640  -37.8920   -6.9650 C.3    24  VAL24       0.1561
     24  C         24.6080  -38.7620   -5.9290 C.2    24  VAL24       0.2260
     25  O         23.5520  -38.4150   -5.3710 O.2    24  VAL24      -0.2867
     26  CB        25.8610  -36.5740   -6.3550 C.3    24  VAL24       0.0252
     27  CG1       26.7740  -36.8750   -5.1640 C.3    24  VAL24       0.0019
     28  CG2       26.6130  -35.7570   -7.4050 C.3    24  VAL24       0.0019
     29  N         30.9280  -40.6340   -1.9790 N.3    38  ALA38      -0.1245
     30  CA        29.9790  -39.9570   -2.8390 C.3    38  ALA38       0.1562
     31  C         30.3650  -40.3830   -4.2430 C.2    38  ALA38       0.2260
     32  O         31.5440  -40.3910   -4.5820 O.2    38  ALA38      -0.2867
     33  CB        30.0750  -38.4530   -2.6810 C.3    38  ALA38       0.0290
     34  N         29.5890  -39.9010   -8.3670 N.3    40  LYS40      -0.1245
     35  CA        29.0080  -39.1080   -9.4310 C.3    40  LYS40       0.1561
     36  C         28.8330  -40.0290  -10.6590 C.2    40  LYS40       0.2260
     37  O         29.8050  -40.6160  -11.1340 O.2    40  LYS40      -0.2867
     38  CB        29.8960  -37.8770   -9.7310 C.3    40  LYS40       0.0271
     39  CG        29.2850  -36.8750  -10.7210 C.3    40  LYS40       0.0035
     40  CD        29.8890  -35.4600  -10.6170 C.3    40  LYS40       0.0206
     41  CE        31.3770  -35.3910  -10.8930 C.3    40  LYS40       0.1093
     42  NZ        31.8470  -34.0050  -11.1390 N.3    40  LYS40      -0.1314
     43  N         38.5370  -31.5700   -2.9390 N.3    60  VAL60      -0.1245
     44  CA        37.8320  -32.8290   -2.6040 C.3    60  VAL60       0.1561
     45  C         38.6940  -34.0790   -2.9160 C.2    60  VAL60       0.2260
     46  O         39.2500  -34.2040   -4.0160 O.2    60  VAL60      -0.2867
     47  CB        36.4040  -32.9250   -3.2400 C.3    60  VAL60       0.0252
     48  CG1       36.4680  -33.1180   -4.7560 C.3    60  VAL60       0.0019
     49  CG2       35.5660  -34.0360   -2.6090 C.3    60  VAL60       0.0019
     50  N         34.3440  -40.0780   -4.8790 N.3    76  PHE76      -0.1227
     51  CA        34.9280  -39.0190   -4.0480 C.3    76  PHE76       0.1736
     52  C         34.6410  -39.2820   -2.6020 C.2    76  PHE76       0.2595
     53  O         33.7940  -40.1170   -2.2840 O.2    76  PHE76      -0.2718
     54  CB        34.2480  -37.6660   -4.3590 C.3    76  PHE76       0.0547
     55  CG        34.2750  -37.1880   -5.7800 C.ar   76  PHE76      -0.0202
     56  CD1       33.2810  -37.5690   -6.6790 C.ar   76  PHE76      -0.0042
     57  CD2       35.2710  -36.3260   -6.2180 C.ar   76  PHE76      -0.0042
     58  CE1       33.3040  -37.1220   -8.0020 C.ar   76  PHE76      -0.0003
     59  CE2       35.2920  -35.8750   -7.5410 C.ar   76  PHE76      -0.0003
     60  CZ        34.3130  -36.2850   -8.4280 C.ar   76  PHE76      -0.0000
     61  N         35.2900  -38.5200   -1.7190 N.am   77  GLU77      -0.1965
     62  CA        34.9910  -38.5820   -0.3040 C.3    77  GLU77       0.1733
     63  C         33.6010  -37.9050   -0.1880 C.2    77  GLU77       0.2616
     64  O         33.2500  -37.0350   -1.0130 O.2    77  GLU77      -0.2715
     65  CB        36.0360  -37.8210    0.5320 C.3    77  GLU77       0.0429
     66  CG        36.0020  -36.3080    0.3530 C.3    77  GLU77       0.1163
     67  CD        36.9620  -35.5220    1.2080 C.2    77  GLU77       0.3649
     68  OE1       36.9960  -35.7540    2.4350 O.co2  77  GLU77      -0.2457
     69  OE2       37.6850  -34.6680    0.6500 O.co2  77  GLU77      -0.2457
     70  N         32.8200  -38.3230    0.8030 N.am   78  TYR78      -0.1960
     71  CA        31.4960  -37.7870    1.0440 C.3    78  TYR78       0.1771
     72  C         31.5940  -36.4520    1.8380 C.2    78  TYR78       0.2619
     73  O         32.2320  -36.3970    2.8890 O.2    78  TYR78      -0.2715
     74  CB        30.6420  -38.8630    1.7440 C.3    78  TYR78       0.0574
     75  CG        29.3340  -38.3850    2.3340 C.ar   78  TYR78      -0.0198
     76  CD1       28.3710  -37.7700    1.5410 C.ar   78  TYR78      -0.0009
     77  CD2       29.0330  -38.6060    3.6770 C.ar   78  TYR78      -0.0009
     78  CE1       27.1580  -37.3410    2.0810 C.ar   78  TYR78       0.0417
     79  CE2       27.8190  -38.1930    4.2220 C.ar   78  TYR78       0.0417
     80  CZ        26.8840  -37.5620    3.4200 C.ar   78  TYR78       0.1957
     81  OH        25.6960  -37.1440    3.9520 O.3    78  TYR78      -0.2866
     82  N         30.9740  -35.3810    1.3150 N.am   79  MET79      -0.1977
     83  CA        30.9870  -34.0550    1.9650 C.3    79  MET79       0.1605
     84  C         29.5350  -33.8300    2.4090 C.2    79  MET79       0.2287
     85  O         28.6900  -33.4310    1.6150 O.2    79  MET79      -0.2864
     86  CB        31.4740  -32.9580    0.9880 C.3    79  MET79       0.0413
     87  CG        32.9180  -33.1560    0.4830 C.3    79  MET79       0.0598
     88  SD        34.1830  -33.0930    1.7720 S.3    79  MET79      -0.1393
     89  CE        34.3230  -31.3600    2.0530 C.3    79  MET79       0.0692
     90  N         26.9270  -30.8580    1.6830 N.3    82  GLY82      -0.1210
     91  CA        26.6970  -30.5620    0.2660 C.3    82  GLY82       0.1956
     92  C         27.3920  -29.3570   -0.3680 C.2    82  GLY82       0.2611
     93  O         28.4550  -28.9390    0.0890 O.2    82  GLY82      -0.2717
     94  N         26.8030  -28.7990   -1.4510 N.am   83  ASP83      -0.1973
     95  CA        27.4230  -27.6580   -2.1370 C.3    83  ASP83       0.1709
     96  C         27.3900  -26.3820   -1.2780 C.2    83  ASP83       0.2293
     97  O         26.4180  -26.1280   -0.5560 O.2    83  ASP83      -0.2864
     98  CB        26.8720  -27.4350   -3.5560 C.3    83  ASP83       0.1436
     99  CG        25.6050  -26.6140   -3.6480 C.2    83  ASP83       0.3671
    100  OD1       25.7070  -25.3670   -3.7390 O.co2  83  ASP83      -0.2456
    101  OD2       24.5130  -27.2140   -3.6360 O.co2  83  ASP83      -0.2456
    102  N         24.2320  -23.6970   -1.5900 N.3    86  ARG86      -0.1245
    103  CA        23.0380  -24.1060   -0.8430 C.3    86  ARG86       0.1563
    104  C         23.3200  -24.0110    0.6380 C.2    86  ARG86       0.2260
    105  O         22.4590  -23.5630    1.3890 O.2    86  ARG86      -0.2867
    106  CB        22.5920  -25.5310   -1.2420 C.3    86  ARG86       0.0307
    107  CG        21.2240  -25.9350   -0.6780 C.3    86  ARG86       0.0489
    108  CD        21.2660  -27.3570   -0.1530 C.3    86  ARG86       0.2205
    109  NE        19.9290  -27.9010    0.0890 N.pl3  86  ARG86      -0.0865
    110  CZ        19.3030  -27.8780    1.2620 C.cat  86  ARG86       0.5346
    111  NH1       19.8870  -27.3340    2.3250 N.pl3  86  ARG86       0.1354
    112  NH2       18.0890  -28.3990    1.3830 N.pl3  86  ARG86       0.1354
    113  N         28.9450  -22.7050   -5.9720 N.3   141  ARG141     -0.1231
    114  CA        28.2350  -23.9040   -6.4740 C.3   141  ARG141      0.1694
    115  C         29.2580  -25.0530   -6.7750 C.2   141  ARG141      0.2592
    116  O         28.8710  -26.2170   -6.7910 O.2   141  ARG141     -0.2718
    117  CB        27.3890  -23.5780   -7.7360 C.3   141  ARG141      0.0321
    118  CG        28.2380  -23.2840   -8.9910 C.3   141  ARG141      0.0489
    119  CD        27.4580  -23.0070  -10.2790 C.3   141  ARG141      0.2205
    120  NE        28.3680  -22.4290  -11.2760 N.pl3 141  ARG141     -0.0865
    121  CZ        28.6450  -21.1310  -11.3560 C.cat 141  ARG141      0.5346
    122  NH1       28.0570  -20.2690  -10.5390 N.pl3 141  ARG141      0.1354
    123  NH2       29.5190  -20.6860  -12.2480 N.pl3 141  ARG141      0.1354
    124  N         30.5430  -24.7200   -7.0170 N.am  142  ASN142     -0.1960
    125  CA        31.5690  -25.7260   -7.3290 C.3   142  ASN142      0.1819
    126  C         32.4120  -26.1060   -6.1360 C.2   142  ASN142      0.2621
    127  O         33.4110  -26.8100   -6.2930 O.2   142  ASN142     -0.2715
    128  CB        32.4350  -25.3100   -8.5380 C.3   142  ASN142      0.1195
    129  CG        31.6370  -25.3030   -9.8250 C.2   142  ASN142      0.2630
    130  OD1       30.6670  -26.0410   -9.9940 O.2   142  ASN142     -0.2716
    131  ND2       32.0060  -24.4610  -10.7590 N.am  142  ASN142     -0.0877
    132  N         31.9900  -25.6640   -4.9320 N.am  143  CYS143     -0.1954
    133  CA        32.6590  -25.9740   -3.6690 C.3   143  CYS143      0.1843
    134  C         31.7410  -26.8830   -2.8390 C.2   143  CYS143      0.2625
    135  O         30.5200  -26.8340   -2.9900 O.2   143  CYS143     -0.2714
    136  CB        32.9990  -24.6970   -2.8970 C.3   143  CYS143      0.0997
    137  SG        34.2020  -23.6230   -3.7270 S.3   143  CYS143     -0.0797
    138  N         32.3410  -27.6540   -1.9130 N.am  144  LEU144     -0.1977
    139  CA        31.6230  -28.5690   -1.0310 C.3   144  LEU144      0.1596
    140  C         31.9210  -28.2920    0.4290 C.2   144  LEU144      0.2287
    141  O         32.9860  -27.7570    0.7600 O.2   144  LEU144     -0.2864
    142  CB        31.9490  -30.0230   -1.4140 C.3   144  LEU144      0.0297
    143  CG        31.4980  -30.4320   -2.8130 C.3   144  LEU144      0.0022
    144  CD1       32.3710  -31.5860   -3.3470 C.3   144  LEU144      0.0001
    145  CD2       30.0110  -30.7530   -2.8490 C.3   144  LEU144      0.0001
    146  N         35.3870  -28.6810   -5.1640 N.3   154  GLY154     -0.1210
    147  CA        35.0240  -30.0380   -5.5370 C.3   154  GLY154      0.1956
    148  C         34.9060  -30.3800   -7.0030 C.2   154  GLY154      0.2611
    149  O         34.9050  -31.5630   -7.3510 O.2   154  GLY154     -0.2717
    150  N         34.7970  -29.3630   -7.8610 N.am  155  ASP155     -0.1973
    151  CA        34.5910  -29.5280   -9.2950 C.3   155  ASP155      0.1709
    152  C         35.4490  -28.5660  -10.1100 C.2   155  ASP155      0.2293
    153  O         35.6580  -27.4270   -9.6960 O.2   155  ASP155     -0.2864
    154  CB        33.1090  -29.2390   -9.6000 C.3   155  ASP155      0.1436
    155  CG        32.4400  -30.1650  -10.5790 C.2   155  ASP155      0.3671
    156  OD1       32.4500  -31.4010  -10.3360 O.co2 155  ASP155     -0.2456
    157  OD2       31.8680  -29.6620  -11.5710 O.co2 155  ASP155     -0.2456
    158  N         27.1980  -27.8750  -13.1260 N.3   158  ARG158     -0.1245
    159  CA        25.8550  -27.6660  -12.5930 C.3   158  ARG158      0.1563
    160  C         25.6360  -26.1730  -12.2780 C.2   158  ARG158      0.2260
    161  O         26.5860  -25.3970  -12.3450 O.2   158  ARG158     -0.2867
    162  CB        25.6690  -28.5410  -11.3240 C.3   158  ARG158      0.0307
    163  CG        26.1440  -27.9560   -9.9630 C.3   158  ARG158      0.0489
    164  CD        27.6440  -27.6620   -9.7420 C.3   158  ARG158      0.2205
    165  NE        28.6150  -28.7070  -10.1190 N.pl3 158  ARG158     -0.0865
    166  CZ        28.5050  -30.0130   -9.8800 C.cat 158  ARG158      0.5346
    167  NH1       27.4280  -30.4980   -9.2750 N.pl3 158  ARG158      0.1354
    168  NH2       29.4620  -30.8470  -10.2670 N.pl3 158  ARG158      0.1354
@<TRIPOS>BOND
     1   158   159    1
     2    21    19   ar
     3   159   160    1
     4   159   162    1
     5   161   160    2
     6   123   121    1
     7    19    18    1
     8    19    20   ar
     9   157   155   ar
    10   121   120    2
    11   121   122    1
    12   162   163    1
    13   120   119    1
    14    18    17    2
    15    42    41    1
    16    37    36    2
    17    41    40    1
    18   131   129   am
    19    39    40    1
    20    39    38    1
    21    36    35    1
    22   155   156   ar
    23   155   154    1
    24   119   118    1
    25   168   166    1
    26   165   166    2
    27   165   164    1
    28   152   153    2
    29   152   151    1
    30   130   129    2
    31   163   164    1
    32   166   167    1
    33   129   128    1
    34    38    35    1
    35    15    16    2
    36    15    14    1
    37    17    14    1
    38   154   151    1
    39    35    34    1
    40   151   150    1
    41    14    13    1
    42   118   117    1
    43   128   125    1
    44    60    58   ar
    45    60    59   ar
    46    22    23    1
    47    58    56   ar
    48   150   148   am
    49   117   114    1
    50    13    11   am
    51    59    57   ar
    52    28    26    1
    53   149   148    2
    54   125   124    1
    55   125   126    1
    56   124   115   am
    57   148   147    1
    58    23    26    1
    59    23    24    1
    60    12    11    2
    61   116   115    2
    62   115   114    1
    63    11    10    1
    64    56    55   ar
    65   114   113    1
    66    26    27    1
    67   127   126    2
    68    57    55   ar
    69   126   132   am
    70    24    25    2
    71    55    54    1
    72   147   146    1
    73    10     9    1
    74   132   133    1
    75    50    51    1
    76    48    47    1
    77    32    31    2
    78    54    51    1
    79     9     3   am
    80    31    30    1
    81    51    52    1
    82    46    45    2
    83   100    99   ar
    84   137   136    1
    85   133   136    1
    86   133   134    1
    87    99   101   ar
    88    99    98    1
    89    98    95    1
    90   144   143    1
    91    47    49    1
    92    47    44    1
    93     1     2    1
    94     3     4    2
    95     3     2    1
    96   135   134    2
    97    43    44    1
    98    45    44    1
    99   145   143    1
   100   134   138   am
   101    30    33    1
   102    30    29    1
   103   143   142    1
   104    52    53    2
   105    52    61   am
   106     2     5    1
   107    95    94    1
   108    95    96    1
   109     5     6    1
   110   138   139    1
   111    61    62    1
   112   102   103    1
   113    94    92   am
   114   142   139    1
   115    96    97    2
   116     7     6    1
   117   106   103    1
   118   106   107    1
   119     6     8    1
   120   139   140    1
   121    64    63    2
   122   103   104    1
   123   107   108    1
   124    92    93    2
   125    92    91    1
   126    62    63    1
   127    62    65    1
   128    63    70   am
   129   108   109    1
   130   109   110    2
   131    91    90    1
   132    66    65    1
   133    66    67    1
   134   140   141    2
   135    87    86    1
   136    87    88    1
   137   104   105    2
   138    69    67   ar
   139    70    71    1
   140    86    83    1
   141    71    74    1
   142    71    72    1
   143    67    68   ar
   144   110   112    1
   145   110   111    1
   146    82    72   am
   147    82    83    1
   148    76    78   ar
   149    76    75   ar
   150    85    84    2
   151    74    75    1
   152    88    89    1
   153    72    73    2
   154    83    84    1
   155    78    80   ar
   156    75    77   ar
   157    80    81    1
   158    80    79   ar
   159    77    79   ar
