@<TRIPOS>MOLECULE
tmp/4pmzB00.pdb
 144 141 0 0 0
SMALL
GASTEIGER

@<TRIPOS>ATOM
      1  N         27.8600   14.8110   22.0740 N.3    33  GLU33      -0.1231
      2  CA        27.5920   16.0330   22.8250 C.3    33  GLU33       0.1699
      3  C         27.6230   15.8260   24.3430 C.2    33  GLU33       0.2592
      4  O         28.1810   16.6510   25.0640 O.2    33  GLU33      -0.2718
      5  CB        26.2700   16.6760   22.3960 C.3    33  GLU33       0.0402
      6  CG        26.1090   18.0930   22.9250 C.3    33  GLU33       0.1161
      7  CD        24.8260   18.7680   22.4890 C.2    33  GLU33       0.3649
      8  OE1       23.9670   18.1060   21.8710 O.co2  33  GLU33      -0.2457
      9  OE2       24.6820   19.9740   22.7720 O.co2  33  GLU33      -0.2457
     10  N         27.0380   14.7230   24.8100 N.am   34  ASN34      -0.1974
     11  CA        26.9060   14.4590   26.2500 C.3    34  ASN34       0.1688
     12  C         27.1850   13.0240   26.6890 C.2    34  ASN34       0.2292
     13  O         27.6030   12.7920   27.8240 O.2    34  ASN34      -0.2864
     14  CB        25.5140   14.8710   26.7370 C.3    34  ASN34       0.1181
     15  CG        25.3490   16.3730   26.8090 C.2    34  ASN34       0.2629
     16  OD1       26.0580   17.0500   27.5530 O.2    34  ASN34      -0.2716
     17  ND2       24.4110   16.9040   26.0320 N.am   34  ASN34      -0.0877
     18  N         30.5320   11.8240   28.5290 N.3    37  LYS37      -0.1245
     19  CA        30.8880   12.3660   29.8340 C.3    37  LYS37       0.1561
     20  C         30.6410   11.2950   30.8900 C.2    37  LYS37       0.2260
     21  O         29.6630   10.5490   30.8120 O.2    37  LYS37      -0.2867
     22  CB        30.0900   13.6390   30.1130 C.3    37  LYS37       0.0271
     23  CG        30.4490   14.7690   29.1580 C.3    37  LYS37       0.0035
     24  CD        29.3340   15.7890   29.0230 C.3    37  LYS37       0.0206
     25  CE        29.7080   16.8510   28.0050 C.3    37  LYS37       0.1093
     26  NZ        28.7080   17.9510   27.9260 N.3    37  LYS37      -0.1314
     27  N         34.7170   12.4870   23.8700 N.3    70  HIS70      -0.1241
     28  CA        34.5290   13.6450   24.7380 C.3    70  HIS70       0.1621
     29  C         33.6870   13.1290   25.9050 C.2    70  HIS70       0.2264
     30  O         32.5430   12.7390   25.6880 O.2    70  HIS70      -0.2867
     31  CB        33.7810   14.7190   23.9340 C.3    70  HIS70       0.0745
     32  CG        33.3890   15.9420   24.7090 C.ar   70  HIS70       0.0817
     33  ND1       34.2730   16.9620   24.9900 N.ar   70  HIS70      -0.2268
     34  CD2       32.1900   16.3420   25.1950 C.ar   70  HIS70       0.1154
     35  CE1       33.6450   17.9190   25.6490 C.ar   70  HIS70       0.1986
     36  NE2       32.3780   17.5690   25.7850 N.ar   70  HIS70      -0.2212
     37  N         36.8180   16.0070   33.3830 N.3    74  TRP74      -0.1241
     38  CA        36.2260   17.3420   33.2950 C.3    74  TRP74       0.1605
     39  C         35.5540   17.6800   34.6280 C.2    74  TRP74       0.2264
     40  O         35.2940   16.7850   35.4300 O.2    74  TRP74      -0.2867
     41  CB        35.2370   17.3990   32.1180 C.3    74  TRP74       0.0550
     42  CG        34.6690   18.7600   31.8140 C.ar   74  TRP74       0.0003
     43  CD1       35.3320   19.9570   31.8350 C.ar   74  TRP74       0.0946
     44  CD2       33.3260   19.0540   31.4050 C.ar   74  TRP74       0.0152
     45  NE1       34.4790   20.9770   31.4920 N.ar   74  TRP74      -0.2442
     46  CE2       33.2420   20.4520   31.2200 C.ar   74  TRP74       0.0810
     47  CE3       32.1810   18.2730   31.1890 C.ar   74  TRP74       0.0012
     48  CZ2       32.0580   21.0880   30.8270 C.ar   74  TRP74       0.0191
     49  CZ3       31.0020   18.9070   30.8010 C.ar   74  TRP74       0.0001
     50  CH2       30.9530   20.3000   30.6220 C.ar   74  TRP74       0.0015
     51  N         29.3680   17.3860   34.8550 N.3    77  GLN77      -0.1245
     52  CA        28.7260   16.1420   34.4150 C.3    77  GLN77       0.1566
     53  C         29.5480   14.8930   34.7460 C.2    77  GLN77       0.2260
     54  O         29.6710   13.9760   33.9340 O.2    77  GLN77      -0.2867
     55  CB        28.3630   16.2140   32.9260 C.3    77  GLN77       0.0367
     56  CG        27.2660   17.2240   32.6310 C.3    77  GLN77       0.0905
     57  CD        27.0550   17.4360   31.1490 C.2    77  GLN77       0.2608
     58  OE1       27.5780   18.3860   30.5720 O.2    77  GLN77      -0.2717
     59  NE2       26.2990   16.5430   30.5220 N.am   77  GLN77      -0.0878
     60  N         39.4220   18.2040   29.5800 N.3   115  ASN115     -0.1225
     61  CA        38.7960   19.4140   29.0740 C.3   115  ASN115      0.1785
     62  C         38.8330   20.5050   30.1380 C.2   115  ASN115      0.2597
     63  O         38.5890   20.2370   31.3150 O.2   115  ASN115     -0.2718
     64  CB        37.3510   19.1230   28.6600 C.3   115  ASN115      0.1169
     65  CG        36.6820   20.2980   27.9670 C.2   115  ASN115      0.2627
     66  OD1       37.3150   21.0540   27.2300 O.2   115  ASN115     -0.2716
     67  ND2       35.3850   20.4480   28.1970 N.am  115  ASN115     -0.0877
     68  N         39.1610   21.7220   29.7100 N.am  116  GLU116     -0.1979
     69  CA        39.0770   22.9340   30.5360 C.3   116  GLU116      0.1602
     70  C         39.9340   22.9630   31.8130 C.2   116  GLU116      0.2287
     71  O         39.4390   23.3380   32.8770 O.2   116  GLU116     -0.2864
     72  CB        37.6120   23.2720   30.8470 C.3   116  GLU116      0.0415
     73  CG        36.7960   23.5510   29.5990 C.3   116  GLU116      0.1163
     74  CD        35.3130   23.7130   29.8630 C.2   116  GLU116      0.3649
     75  OE1       34.8960   23.7720   31.0420 O.co2 116  GLU116     -0.2457
     76  OE2       34.5600   23.7890   28.8720 O.co2 116  GLU116     -0.2457
     77  N         38.8470   26.5020   26.6500 N.3   168  TYR168     -0.1241
     78  CA        38.2670   27.6900   26.0320 C.3   168  TYR168      0.1605
     79  C         38.9380   28.9860   26.4870 C.2   168  TYR168      0.2264
     80  O         39.7110   28.9910   27.4500 O.2   168  TYR168     -0.2867
     81  CB        36.7450   27.7330   26.2370 C.3   168  TYR168      0.0534
     82  CG        36.2390   27.9580   27.6520 C.ar  168  TYR168     -0.0201
     83  CD1       36.2370   29.2320   28.2230 C.ar  168  TYR168     -0.0009
     84  CD2       35.7020   26.9050   28.3920 C.ar  168  TYR168     -0.0009
     85  CE1       35.7480   29.4430   29.5010 C.ar  168  TYR168      0.0417
     86  CE2       35.2080   27.1100   29.6710 C.ar  168  TYR168      0.0417
     87  CZ        35.2330   28.3790   30.2170 C.ar  168  TYR168      0.1957
     88  OH        34.7410   28.5880   31.4830 O.3   168  TYR168     -0.2866
     89  N         38.1760   25.4510   22.0530 N.3   199  GLN199     -0.1245
     90  CA        36.7440   25.3610   21.7690 C.3   199  GLN199      0.1566
     91  C         36.2540   26.3800   20.7400 C.2   199  GLN199      0.2260
     92  O         35.6450   26.0000   19.7400 O.2   199  GLN199     -0.2867
     93  CB        35.9390   25.4550   23.0670 C.3   199  GLN199      0.0367
     94  CG        36.1070   24.2300   23.9550 C.3   199  GLN199      0.0905
     95  CD        35.4010   24.3540   25.2920 C.2   199  GLN199      0.2608
     96  OE1       34.5040   25.1780   25.4620 O.2   199  GLN199     -0.2717
     97  NE2       35.8080   23.5310   26.2520 N.am  199  GLN199     -0.0878
     98  N         33.9230   28.8710   21.1550 N.3   201  HIS201     -0.1241
     99  CA        32.5160   29.2500   21.2300 C.3   201  HIS201      0.1621
    100  C         32.3670   30.7400   20.9320 C.2   201  HIS201      0.2264
    101  O         33.3530   31.4820   20.9250 O.2   201  HIS201     -0.2867
    102  CB        31.9370   28.9450   22.6120 C.3   201  HIS201      0.0745
    103  CG        31.7790   27.4860   22.8950 C.ar  201  HIS201      0.0817
    104  ND1       30.7290   26.7410   22.4030 N.ar  201  HIS201     -0.2268
    105  CD2       32.5330   26.6350   23.6290 C.ar  201  HIS201      0.1154
    106  CE1       30.8460   25.4920   22.8170 C.ar  201  HIS201      0.1986
    107  NE2       31.9320   25.4020   23.5640 N.ar  201  HIS201     -0.2212
    108  N         34.7470   23.1830   19.4270 N.3   232  GLU232     -0.1245
    109  CA        33.3550   23.4600   19.8010 C.3   232  GLU232      0.1567
    110  C         32.9070   24.8220   19.2790 C.2   232  GLU232      0.2260
    111  O         32.4480   25.6800   20.0380 O.2   232  GLU232     -0.2867
    112  CB        33.1790   23.3650   21.3300 C.3   232  GLU232      0.0388
    113  CG        33.6460   22.0480   21.9450 C.3   232  GLU232      0.1160
    114  CD        33.4020   21.9370   23.4400 C.2   232  GLU232      0.3649
    115  OE1       32.7300   22.8150   24.0230 O.co2 232  GLU232     -0.2457
    116  OE2       33.8910   20.9540   24.0340 O.co2 232  GLU232     -0.2457
    117  N         29.8060   23.2210   17.4310 N.3   266  TRP266     -0.1241
    118  CA        29.0720   22.7280   18.5880 C.3   266  TRP266      0.1605
    119  C         27.5630   22.7790   18.3320 C.2   266  TRP266      0.2264
    120  O         26.8250   23.5360   18.9680 O.2   266  TRP266     -0.2867
    121  CB        29.4860   23.4430   19.8830 C.3   266  TRP266      0.0550
    122  CG        29.2460   22.5690   21.0830 C.ar  266  TRP266      0.0003
    123  CD1       28.3700   22.7980   22.1010 C.ar  266  TRP266      0.0946
    124  CD2       29.8580   21.2990   21.3570 C.ar  266  TRP266      0.0152
    125  NE1       28.4110   21.7620   23.0080 N.ar  266  TRP266     -0.2442
    126  CE2       29.3140   20.8270   22.5730 C.ar  266  TRP266      0.0810
    127  CE3       30.8190   20.5160   20.6950 C.ar  266  TRP266      0.0012
    128  CZ2       29.6950   19.6070   23.1420 C.ar  266  TRP266      0.0191
    129  CZ3       31.2000   19.3030   21.2640 C.ar  266  TRP266      0.0001
    130  CH2       30.6370   18.8630   22.4780 C.ar  266  TRP266      0.0015
    131  N         23.7320   23.8880   22.2660 N.3   273  TRP273     -0.1241
    132  CA        24.0420   24.5350   23.5420 C.3   273  TRP273      0.1605
    133  C         23.6590   26.0130   23.5750 C.2   273  TRP273      0.2264
    134  O         23.0460   26.4760   24.5400 O.2   273  TRP273     -0.2867
    135  CB        25.5210   24.3520   23.8810 C.3   273  TRP273      0.0550
    136  CG        25.9010   24.7510   25.2850 C.ar  273  TRP273      0.0003
    137  CD1       25.2050   24.4970   26.4370 C.ar  273  TRP273      0.0946
    138  CD2       27.0870   25.4500   25.6790 C.ar  273  TRP273      0.0152
    139  NE1       25.8820   25.0060   27.5210 N.ar  273  TRP273     -0.2442
    140  CE2       27.0400   25.5950   27.0860 C.ar  273  TRP273      0.0810
    141  CE3       28.1860   25.9710   24.9810 C.ar  273  TRP273      0.0012
    142  CZ2       28.0490   26.2440   27.8070 C.ar  273  TRP273      0.0191
    143  CZ3       29.1900   26.6150   25.6960 C.ar  273  TRP273      0.0001
    144  CH2       29.1150   26.7430   27.0960 C.ar  273  TRP273      0.0015
@<TRIPOS>BOND
     1   117   118    1
     2   119   118    1
     3   119   120    2
     4   118   121    1
     5   110   109    1
     6   110   111    2
     7   108   109    1
     8    92    91    2
     9   109   112    1
    10   121   122    1
    11   127   129   ar
    12   127   124   ar
    13    91    90    1
    14   101   100    2
    15   100    99    1
    16   122   124   ar
    17   122   123   ar
    18    98    99    1
    19    99   102    1
    20   129   130   ar
    21   112   113    1
    22   124   126   ar
    23    90    89    1
    24    90    93    1
    25     8     7   ar
    26   113   114    1
    27     1     2    1
    28   123   125   ar
    29   131   132    1
    30     5     2    1
    31     5     6    1
    32   104   106   ar
    33   104   103   ar
    34   130   128   ar
    35     7     9   ar
    36     7     6    1
    37   126   125   ar
    38   126   128   ar
    39   102   103    1
    40   106   107   ar
    41     2     3    1
    42   103   105   ar
    43    93    94    1
    44   114   115   ar
    45   114   116   ar
    46   132   133    1
    47   132   135    1
    48   107   105   ar
    49   133   134    2
    50    27    28    1
    51   135   136    1
    52    31    32    1
    53    31    28    1
    54    94    95    1
    55     3    10   am
    56     3     4    2
    57    32    33   ar
    58    32    34   ar
    59    28    29    1
    60    10    11    1
    61   141   138   ar
    62   141   143   ar
    63    33    35   ar
    64    34    36   ar
    65   136   138   ar
    66   136   137   ar
    67    95    96    2
    68    95    97   am
    69    35    36   ar
    70   138   140   ar
    71    30    29    2
    72   143   144   ar
    73    78    81    1
    74    78    79    1
    75    78    77    1
    76    17    15   am
    77    81    82    1
    78    11    12    1
    79    11    14    1
    80   137   139   ar
    81    79    80    2
    82    12    13    2
    83    14    15    1
    84    15    16    2
    85   140   139   ar
    86   140   142   ar
    87   144   142   ar
    88    66    65    2
    89    82    83   ar
    90    82    84   ar
    91    26    25    1
    92    65    67   am
    93    65    64    1
    94    25    24    1
    95    83    85   ar
    96    84    86   ar
    97    18    19    1
    98    64    61    1
    99    76    74   ar
   100    24    23    1
   101    61    60    1
   102    61    62    1
   103    23    22    1
   104    85    87   ar
   105    73    74    1
   106    73    72    1
   107    86    87   ar
   108    68    62   am
   109    68    69    1
   110    19    22    1
   111    19    20    1
   112    74    75   ar
   113    62    63    2
   114    87    88    1
   115    59    57   am
   116    69    72    1
   117    69    70    1
   118    58    57    2
   119    50    49   ar
   120    50    48   ar
   121    49    47   ar
   122    21    20    2
   123    48    46   ar
   124    57    56    1
   125    47    44   ar
   126    46    44   ar
   127    46    45   ar
   128    44    42   ar
   129    45    43   ar
   130    70    71    2
   131    42    43   ar
   132    42    41    1
   133    41    38    1
   134    56    55    1
   135    55    52    1
   136    38    37    1
   137    38    39    1
   138    54    53    2
   139    52    53    1
   140    52    51    1
   141    39    40    2
