@<TRIPOS>MOLECULE
tmp/4pn1A00.pdb
 107 106 0 0 0
SMALL
GASTEIGER

@<TRIPOS>ATOM
      1  N        111.2690   47.4580  179.0420 N.3    18  VAL18      -0.1245
      2  CA       111.3930   48.7640  178.4000 C.3    18  VAL18       0.1561
      3  C        112.3090   48.7250  177.1780 C.2    18  VAL18       0.2260
      4  O        111.9540   49.2260  176.1100 O.2    18  VAL18      -0.2867
      5  CB       111.9030   49.8270  179.3860 C.3    18  VAL18       0.0252
      6  CG1      112.1590   51.1360  178.6640 C.3    18  VAL18       0.0019
      7  CG2      110.9030   50.0190  180.5150 C.3    18  VAL18       0.0019
      8  N        110.6300   46.9840  174.3370 N.3    21  ASN21      -0.1225
      9  CA       109.7170   47.8910  173.6480 C.3    21  ASN21       0.1785
     10  C        110.4830   48.7770  172.6790 C.2    21  ASN21       0.2597
     11  O        110.0580   48.9970  171.5440 O.2    21  ASN21      -0.2718
     12  CB       108.9630   48.7710  174.6480 C.3    21  ASN21       0.1169
     13  CG       107.9810   47.9860  175.4970 C.2    21  ASN21       0.2627
     14  OD1      107.4790   46.9410  175.0850 O.2    21  ASN21      -0.2716
     15  ND2      107.6970   48.4940  176.6910 N.am   21  ASN21      -0.0877
     16  N        111.6200   49.2780  173.1510 N.am   22  PHE22      -0.1976
     17  CA       112.4940   50.1460  172.3740 C.3    22  PHE22       0.1639
     18  C        112.9730   49.4570  171.0970 C.2    22  PHE22       0.2290
     19  O        112.9640   50.0520  170.0170 O.2    22  PHE22      -0.2864
     20  CB       113.6820   50.5710  173.2430 C.3    22  PHE22       0.0560
     21  CG       114.6810   51.4440  172.5400 C.ar   22  PHE22      -0.0200
     22  CD1      114.3240   52.6990  172.0790 C.ar   22  PHE22      -0.0042
     23  CD2      115.9880   51.0180  172.3690 C.ar   22  PHE22      -0.0042
     24  CE1      115.2480   53.5050  171.4430 C.ar   22  PHE22      -0.0003
     25  CE2      116.9150   51.8210  171.7370 C.ar   22  PHE22      -0.0003
     26  CZ       116.5440   53.0660  171.2730 C.ar   22  PHE22      -0.0000
     27  N        110.0770   48.6210  168.5360 N.3    25  HIS25      -0.1226
     28  CA       109.6420   49.7950  167.7870 C.3    25  HIS25       0.1752
     29  C        110.4030   49.9580  166.4780 C.2    25  HIS25       0.2596
     30  O        109.8060   50.1930  165.4290 O.2    25  HIS25      -0.2718
     31  CB       109.8080   51.0580  168.6290 C.3    25  HIS25       0.0759
     32  CG       109.3680   52.3080  167.9350 C.ar   25  HIS25       0.0818
     33  ND1      108.0400   52.6190  167.7310 N.ar   25  HIS25      -0.2268
     34  CD2      110.0790   53.3250  167.3920 C.ar   25  HIS25       0.1154
     35  CE1      107.9540   53.7740  167.0960 C.ar   25  HIS25       0.1986
     36  NE2      109.1740   54.2230  166.8780 N.ar   25  HIS25      -0.2212
     37  N        111.7240   49.8330  166.5440 N.am   26  TYR26      -0.1976
     38  CA       112.5670   50.0820  165.3810 C.3    26  TYR26       0.1639
     39  C        112.8610   48.8180  164.5820 C.2    26  TYR26       0.2290
     40  O        113.4490   48.8780  163.5030 O.2    26  TYR26      -0.2864
     41  CB       113.8590   50.7850  165.7990 C.3    26  TYR26       0.0560
     42  CG       113.6170   52.1580  166.3790 C.ar   26  TYR26      -0.0198
     43  CD1      113.2940   53.2290  165.5590 C.ar   26  TYR26      -0.0009
     44  CD2      113.6970   52.3810  167.7460 C.ar   26  TYR26      -0.0009
     45  CE1      113.0670   54.4860  166.0840 C.ar   26  TYR26       0.0417
     46  CE2      113.4750   53.6350  168.2790 C.ar   26  TYR26       0.0417
     47  CZ       113.1600   54.6830  167.4440 C.ar   26  TYR26       0.1957
     48  OH       112.9340   55.9320  167.9720 O.3    26  TYR26      -0.2866
     49  N        117.4110   53.5190  183.3180 N.3    62  ILE62      -0.1245
     50  CA       117.2300   54.1110  182.0010 C.3    62  ILE62       0.1561
     51  C        116.7780   55.5600  182.1500 C.2    62  ILE62       0.2260
     52  O        115.9150   55.8630  182.9710 O.2    62  ILE62      -0.2867
     53  CB       116.1710   53.3390  181.1880 C.3    62  ILE62       0.0252
     54  CG1      116.4930   51.8450  181.1710 C.3    62  ILE62       0.0019
     55  CG2      116.0750   53.8840  179.7720 C.3    62  ILE62       0.0019
     56  CD1      115.4390   51.0070  180.4860 C.3    62  ILE62       0.0001
     57  N        114.8530   58.8690  180.6980 N.3    64  ASN64      -0.1226
     58  CA       113.7690   59.2010  179.7810 C.3    64  ASN64       0.1770
     59  C        114.2440   60.1890  178.7190 C.2    64  ASN64       0.2439
     60  O        114.5750   61.3300  179.0330 O.2    64  ASN64      -0.2733
     61  CB       112.5750   59.7730  180.5500 C.3    64  ASN64       0.1168
     62  CG       111.2920   59.7730  179.7340 C.2    64  ASN64       0.2627
     63  OD1      111.3170   59.8650  178.5070 O.2    64  ASN64      -0.2716
     64  ND2      110.1580   59.6710  180.4200 N.am   64  ASN64      -0.0877
     65  N        114.2730   59.7480  177.4530 N.am   65  PRO65      -0.2718
     66  CA       114.7840   60.5680  176.3500 C.3    65  PRO65       0.1535
     67  C        113.9080   61.7800  176.0320 C.2    65  PRO65       0.2598
     68  O        114.3520   62.6720  175.3080 O.2    65  PRO65      -0.2715
     69  CB       114.7920   59.5920  175.1680 C.3    65  PRO65       0.0310
     70  CG       113.7620   58.5760  175.5090 C.3    65  PRO65       0.0237
     71  CD       113.8320   58.4190  176.9960 C.3    65  PRO65       0.0939
     72  N        112.6890   61.8150  176.5640 N.am   66  GLU66      -0.1964
     73  CA       111.7720   62.9200  176.2910 C.3    66  GLU66       0.1733
     74  C        112.0910   64.1590  177.1260 C.2    66  GLU66       0.2616
     75  O        111.5610   65.2410  176.8770 O.2    66  GLU66      -0.2715
     76  CB       110.3200   62.4890  176.5090 C.3    66  GLU66       0.0429
     77  CG       109.8370   61.4440  175.5180 C.3    66  GLU66       0.1163
     78  CD       109.8770   61.9390  174.0840 C.2    66  GLU66       0.3649
     79  OE1      109.3600   63.0460  173.8220 O.co2  66  GLU66      -0.2457
     80  OE2      110.4290   61.2250  173.2200 O.co2  66  GLU66      -0.2457
     81  N        112.9600   63.9940  178.1170 N.am   67  PHE67      -0.1974
     82  CA       113.4040   65.1120  178.9370 C.3    67  PHE67       0.1639
     83  C        114.7410   65.6400  178.4270 C.2    67  PHE67       0.2290
     84  O        115.5250   64.8990  177.8320 O.2    67  PHE67      -0.2864
     85  CB       113.5380   64.6870  180.4000 C.3    67  PHE67       0.0560
     86  CG       112.2250   64.4970  181.1070 C.ar   67  PHE67      -0.0200
     87  CD1      111.7910   65.4170  182.0480 C.ar   67  PHE67      -0.0042
     88  CD2      111.4260   63.3960  180.8370 C.ar   67  PHE67      -0.0042
     89  CE1      110.5840   65.2460  182.7040 C.ar   67  PHE67      -0.0003
     90  CE2      110.2160   63.2200  181.4880 C.ar   67  PHE67      -0.0003
     91  CZ       109.7950   64.1460  182.4230 C.ar   67  PHE67      -0.0000
     92  N        118.7540   56.7350  170.4190 N.3   146  ASP146     -0.1225
     93  CA       119.6630   56.4600  171.5230 C.3   146  ASP146      0.1805
     94  C        118.9000   56.2330  172.8210 C.2   146  ASP146      0.2597
     95  O        117.7820   56.7160  172.9890 O.2   146  ASP146     -0.2718
     96  CB       120.6700   57.6000  171.6890 C.3   146  ASP146      0.1424
     97  CG       121.6670   57.6680  170.5470 C.2   146  ASP146      0.3668
     98  OD1      121.9680   56.6080  169.9570 O.co2 146  ASP146     -0.2456
     99  OD2      122.1510   58.7780  170.2410 O.co2 146  ASP146     -0.2456
    100  N        119.5130   55.4880  173.7320 N.am  147  LEU147     -0.1979
    101  CA       118.9150   55.1990  175.0260 C.3   147  LEU147      0.1596
    102  C        120.0290   54.9970  176.0440 C.2   147  LEU147      0.2287
    103  O        120.7890   54.0320  175.9600 O.2   147  LEU147     -0.2864
    104  CB       118.0390   53.9500  174.9410 C.3   147  LEU147      0.0297
    105  CG       117.1120   53.7030  176.1300 C.3   147  LEU147      0.0022
    106  CD1      116.0620   54.7980  176.2050 C.3   147  LEU147      0.0001
    107  CD2      116.4620   52.3350  176.0280 C.3   147  LEU147      0.0001
@<TRIPOS>BOND
     1    40    39    2
     2    39    38    1
     3    38    41    1
     4    38    37    1
     5    30    29    2
     6    43    45   ar
     7    43    42   ar
     8    41    42    1
     9    45    47   ar
    10    42    44   ar
    11    29    37   am
    12    29    28    1
    13    36    35   ar
    14    36    34   ar
    15    35    33   ar
    16    34    32   ar
    17    47    48    1
    18    47    46   ar
    19    33    32   ar
    20    44    46   ar
    21    28    27    1
    22    28    31    1
    23    32    31    1
    24    98    97   ar
    25    19    18    2
    26    99    97   ar
    27    92    93    1
    28    97    96    1
    29    18    17    1
    30    26    24   ar
    31    26    25   ar
    32    24    22   ar
    33    93    96    1
    34    93    94    1
    35    11    10    2
    36    25    23   ar
    37    22    21   ar
    38    23    21   ar
    39    17    16    1
    40    17    20    1
    41    21    20    1
    42    10    16   am
    43    10     9    1
    44    94    95    2
    45    94   100   am
    46    80    78   ar
    47     9     8    1
    48     9    12    1
    49   100   101    1
    50    79    78   ar
    51    78    77    1
    52    12    13    1
    53   104   101    1
    54   104   105    1
    55   101   102    1
    56    14    13    2
    57    69    70    1
    58    69    66    1
    59    68    67    2
    60    13    15   am
    61    70    71    1
    62    77    76    1
    63   103   102    2
    64   107   105    1
    65    67    66    1
    66    67    72   am
    67     4     3    2
    68   105   106    1
    69    73    76    1
    70    73    72    1
    71    73    74    1
    72    66    65    1
    73    75    74    2
    74    71    65    1
    75    74    81   am
    76     3     2    1
    77    65    59   am
    78    84    83    2
    79    81    82    1
    80     2     1    1
    81     2     5    1
    82    83    82    1
    83    63    62    2
    84     6     5    1
    85    59    60    2
    86    59    58    1
    87    82    85    1
    88     5     7    1
    89    62    64   am
    90    62    61    1
    91    55    53    1
    92    58    61    1
    93    58    57    1
    94    85    86    1
    95    56    54    1
    96    88    86   ar
    97    88    90   ar
    98    86    87   ar
    99    54    53    1
   100    53    50    1
   101    90    91   ar
   102    50    51    1
   103    50    49    1
   104    87    89   ar
   105    51    52    2
   106    91    89   ar
