@<TRIPOS>MOLECULE
tmp/4pncA00.pdb
 118 117 0 0 0
SMALL
GASTEIGER

@<TRIPOS>ATOM
      1  N         25.2140   -6.6500    9.1210 N.3    58  CYS58      -0.1235
      2  CA        25.8170   -5.4330    9.6110 C.3    58  CYS58       0.1677
      3  C         27.3730   -5.6970    9.9260 C.2    58  CYS58       0.2270
      4  O         28.1980   -4.8220    9.7750 O.2    58  CYS58      -0.2867
      5  CB        24.9170   -4.8650   10.7720 C.3    58  CYS58       0.0956
      6  SG        25.1230   -3.0760   11.1080 S.3    58  CYS58      -0.0801
      7  N         30.2400   -4.7830    7.3400 N.3    61  TYR61      -0.1227
      8  CA        29.6850   -4.0450    6.2600 C.3    61  TYR61       0.1736
      9  C         30.3520   -2.6980    6.1870 C.2    61  TYR61       0.2595
     10  O         30.3100   -1.8570    7.0770 O.2    61  TYR61      -0.2718
     11  CB        28.1970   -3.9960    6.4190 C.3    61  TYR61       0.0548
     12  CG        27.4100   -3.5320    5.2470 C.ar   61  TYR61      -0.0200
     13  CD1       27.3480   -4.2560    4.0760 C.ar   61  TYR61      -0.0009
     14  CD2       26.6770   -2.3970    5.3590 C.ar   61  TYR61      -0.0009
     15  CE1       26.6000   -3.8110    2.9890 C.ar   61  TYR61       0.0417
     16  CE2       25.9230   -1.9150    4.2960 C.ar   61  TYR61       0.0417
     17  CZ        25.8680   -2.6620    3.1110 C.ar   61  TYR61       0.1957
     18  OH        25.0690   -2.2360    2.0530 O.3    61  TYR61      -0.2866
     19  N         31.0730   -2.5430    5.0820 N.am   62  HIS62      -0.1975
     20  CA        31.9280   -1.3740    4.8960 C.3    62  HIS62       0.1656
     21  C         32.8600   -1.1920    6.1050 C.2    62  HIS62       0.2291
     22  O         33.2670   -0.0690    6.4220 O.2    62  HIS62      -0.2864
     23  CB        31.1500   -0.0880    4.6160 C.3    62  HIS62       0.0771
     24  CG        30.2670   -0.1650    3.4190 C.ar   62  HIS62       0.0820
     25  ND1       30.5370    0.4680    2.2160 N.ar   62  HIS62      -0.2267
     26  CD2       29.1990   -0.9490    3.1640 C.ar   62  HIS62       0.1154
     27  CE1       29.5960    0.2080    1.3450 C.ar   62  HIS62       0.1986
     28  NE2       28.7520   -0.6400    1.8930 N.ar   62  HIS62      -0.2212
     29  N         32.1840   -2.0710    9.3080 N.3    64  TYR64      -0.1241
     30  CA        31.5060   -1.8950   10.6190 C.3    64  TYR64       0.1605
     31  C         31.8300   -3.0330   11.5460 C.2    64  TYR64       0.2264
     32  O         31.8230   -4.1730   11.1380 O.2    64  TYR64      -0.2867
     33  CB        29.9890   -1.7640   10.3820 C.3    64  TYR64       0.0534
     34  CG        29.2060   -1.4240   11.6410 C.ar   64  TYR64      -0.0201
     35  CD1       29.1070   -0.1030   12.0850 C.ar   64  TYR64      -0.0009
     36  CD2       28.5590   -2.3900   12.3090 C.ar   64  TYR64      -0.0009
     37  CE1       28.3820    0.2120   13.2820 C.ar   64  TYR64       0.0417
     38  CE2       27.8100   -2.1210   13.4560 C.ar   64  TYR64       0.0417
     39  CZ        27.7050   -0.8680   13.8960 C.ar   64  TYR64       0.1957
     40  OH        27.0220   -0.6590   15.0770 O.3    64  TYR64      -0.2866
     41  N         23.2190   -2.2100   15.2310 N.3    69  CYS69      -0.1235
     42  CA        23.4280   -0.8110   15.6070 C.3    69  CYS69       0.1677
     43  C         22.5100   -0.5110   16.7820 C.2    69  CYS69       0.2270
     44  O         21.3040   -0.8910   16.8110 O.2    69  CYS69      -0.2867
     45  CB        23.0900    0.1300   14.5010 C.3    69  CYS69       0.0956
     46  SG        24.2340    0.0110   13.1210 S.3    69  CYS69      -0.0801
     47  N         23.1140    4.2970   13.6980 N.3    78  HIS78      -0.1241
     48  CA        24.4400    3.7320   13.5380 C.3    78  HIS78       0.1621
     49  C         25.2200    3.8070   14.7400 C.2    78  HIS78       0.2264
     50  O         26.4620    3.7160   14.7230 O.2    78  HIS78      -0.2867
     51  CB        25.1780    4.4290   12.2840 C.3    78  HIS78       0.0745
     52  CG        24.4090    4.3000   11.0310 C.ar   78  HIS78       0.0817
     53  ND1       24.6310    5.0800    9.9060 N.ar   78  HIS78      -0.2268
     54  CD2       23.3810    3.4760   10.7160 C.ar   78  HIS78       0.1154
     55  CE1       23.7420    4.7670    8.9770 C.ar   78  HIS78       0.1986
     56  NE2       23.0200    3.7460    9.4210 N.ar   78  HIS78      -0.2212
     57  N         18.7330   -1.8330   15.6590 N.3    96  ASP96      -0.1239
     58  CA        18.5250   -2.1140   14.2430 C.3    96  ASP96       0.1674
     59  C         19.2470   -3.3560   13.8460 C.2    96  ASP96       0.2266
     60  O         20.4480   -3.4270   14.0790 O.2    96  ASP96      -0.2867
     61  CB        18.9260   -0.8890   13.4050 C.3    96  ASP96       0.1410
     62  CG        18.5390   -1.0060   11.9220 C.2    96  ASP96       0.3668
     63  OD1       17.9430   -1.9790   11.4800 O.co2  96  ASP96      -0.2456
     64  OD2       18.7760    0.0040   11.1820 O.co2  96  ASP96      -0.2456
     65  N         19.8540   -6.5470   10.9510 N.3    98  THR98      -0.1218
     66  CA        19.6370   -7.1420    9.6230 C.3    98  THR98       0.1862
     67  C         20.3260   -8.4770    9.5640 C.2    98  THR98       0.2287
     68  O         21.5300   -8.6110    9.8560 O.2    98  THR98      -0.2866
     69  CB        20.1440   -6.2310    8.4880 C.3    98  THR98       0.1770
     70  OG1       19.4630   -4.9750    8.6070 O.3    98  THR98      -0.2211
     71  CG2       19.8740   -6.7890    7.1390 C.3    98  THR98       0.0375
     72  N         19.6030    8.7900    5.2040 N.3   167  TYR167     -0.1241
     73  CA        19.4460    7.4900    5.7550 C.3   167  TYR167      0.1605
     74  C         18.0740    6.9130    5.4400 C.2   167  TYR167      0.2264
     75  O         17.4460    6.4360    6.3600 O.2   167  TYR167     -0.2867
     76  CB        19.5350    7.6510    7.2760 C.3   167  TYR167      0.0534
     77  CG        20.7100    8.4930    7.6640 C.ar  167  TYR167     -0.0201
     78  CD1       21.9530    7.9970    7.4360 C.ar  167  TYR167     -0.0009
     79  CD2       20.5860    9.7600    8.2320 C.ar  167  TYR167     -0.0009
     80  CE1       23.0740    8.6960    7.7260 C.ar  167  TYR167      0.0417
     81  CE2       21.7330   10.5000    8.5240 C.ar  167  TYR167      0.0417
     82  CZ        22.9900    9.9220    8.2660 C.ar  167  TYR167      0.1957
     83  OH        24.2070   10.5050    8.5120 O.3   167  TYR167     -0.2866
     84  N         21.6700   -5.8110    0.4980 N.3   176  PHE176     -0.1227
     85  CA        21.1890   -5.1600    1.7350 C.3   176  PHE176      0.1736
     86  C         20.5080   -3.8580    1.3540 C.2   176  PHE176      0.2592
     87  O         19.3860   -3.5860    1.7390 O.2   176  PHE176     -0.2718
     88  CB        22.4210   -4.9580    2.6070 C.3   176  PHE176      0.0547
     89  CG        22.2170   -4.4470    4.0240 C.ar  176  PHE176     -0.0202
     90  CD1       21.0300   -4.0730    4.5280 C.ar  176  PHE176     -0.0042
     91  CD2       23.3350   -4.4280    4.8960 C.ar  176  PHE176     -0.0042
     92  CE1       20.9040   -3.6130    5.8120 C.ar  176  PHE176     -0.0003
     93  CE2       23.1850   -4.0360    6.2260 C.ar  176  PHE176     -0.0003
     94  CZ        21.9560   -3.6440    6.6550 C.ar  176  PHE176     -0.0000
     95  N         21.1620   -2.9530    0.6090 N.am  177  HIS177     -0.2029
     96  CA        20.5750   -1.6660    0.2610 C.3   177  HIS177      0.1342
     97  C         20.4820   -1.6340   -1.2350 C.3   177  HIS177      0.2040
     98  O         21.5150   -1.3430   -1.9570 O.3   177  HIS177     -0.2185
     99  CB        21.4530   -0.5230    0.8070 C.3   177  HIS177      0.0718
    100  CG        21.5750   -0.5400    2.3020 C.ar  177  HIS177      0.0817
    101  ND1       22.6360   -1.1500    2.9460 N.ar  177  HIS177     -0.2268
    102  CD2       20.8000   -0.0310    3.2880 C.ar  177  HIS177      0.1154
    103  CE1       22.4480   -1.0910    4.2530 C.ar  177  HIS177      0.1986
    104  NE2       21.3620   -0.3850    4.4830 N.ar  177  HIS177     -0.2212
    105  N         30.9470    6.5980   12.2330 N.3   220  TRP220     -0.1241
    106  CA        29.6730    5.8860   12.1690 C.3   220  TRP220      0.1605
    107  C         28.4890    6.6000   12.8670 C.2   220  TRP220      0.2264
    108  O         27.4370    6.7190   12.2990 O.2   220  TRP220     -0.2867
    109  CB        29.8990    4.4860   12.7710 C.3   220  TRP220      0.0550
    110  CG        30.9070    3.5810   12.0490 C.ar  220  TRP220      0.0003
    111  CD1       32.0860    3.1060   12.5440 C.ar  220  TRP220      0.0946
    112  CD2       30.7210    2.9820   10.8210 C.ar  220  TRP220      0.0152
    113  NE1       32.6730    2.2650   11.6550 N.ar  220  TRP220     -0.2442
    114  CE2       31.8430    2.1420   10.5880 C.ar  220  TRP220      0.0810
    115  CE3       29.7060    3.0060    9.8920 C.ar  220  TRP220      0.0012
    116  CZ2       31.9470    1.4220    9.4180 C.ar  220  TRP220      0.0191
    117  CZ3       29.7970    2.2320    8.7620 C.ar  220  TRP220      0.0001
    118  CH2       30.9410    1.5070    8.5370 C.ar  220  TRP220      0.0015
@<TRIPOS>BOND
     1    98    97    1
     2    97    96    1
     3    96    95    1
     4    96    99    1
     5    84    85    1
     6    95    86   am
     7    99   100    1
     8    27    28   ar
     9    27    25   ar
    10    86    85    1
    11    86    87    2
    12    85    88    1
    13    28    26   ar
    14    18    17    1
    15    25    24   ar
    16   100   101   ar
    17   100   102   ar
    18    88    89    1
    19   101   103   ar
    20    15    17   ar
    21    15    13   ar
    22    17    16   ar
    23    26    24   ar
    24   102   104   ar
    25    24    23    1
    26    89    90   ar
    27    89    91   ar
    28    13    12   ar
    29   103   104   ar
    30    16    14   ar
    31    90    92   ar
    32    23    20    1
    33    91    93   ar
    34    20    19    1
    35    20    21    1
    36    19     9   am
    37    72    73    1
    38    12    14   ar
    39    12    11    1
    40    74    73    1
    41    74    75    2
    42    73    76    1
    43    92    94   ar
    44    21    22    2
    45     9     8    1
    46     9    10    2
    47    93    94   ar
    48     8    11    1
    49     8     7    1
    50    71    69    1
    51    76    77    1
    52    78    77   ar
    53    78    80   ar
    54    77    79   ar
    55    80    82   ar
    56    79    81   ar
    57    82    83    1
    58    82    81   ar
    59    69    70    1
    60    69    66    1
    61   118   117   ar
    62   118   116   ar
    63   117   115   ar
    64    55    56   ar
    65    55    53   ar
    66     1     2    1
    67    29    30    1
    68   116   114   ar
    69    56    54   ar
    70    67    66    1
    71    67    68    2
    72     2     3    1
    73     2     5    1
    74    66    65    1
    75     4     3    2
    76   115   112   ar
    77    53    52   ar
    78    33    30    1
    79    33    34    1
    80   114   112   ar
    81   114   113   ar
    82    30    31    1
    83    54    52   ar
    84     5     6    1
    85   112   110   ar
    86    52    51    1
    87    32    31    2
    88    64    62   ar
    89    63    62   ar
    90    34    35   ar
    91    34    36   ar
    92   113   111   ar
    93    62    61    1
    94   110   111   ar
    95   110   109    1
    96    35    37   ar
    97   106   105    1
    98   106   109    1
    99   106   107    1
   100    51    48    1
   101   108   107    2
   102    36    38   ar
   103    46    45    1
   104    37    39   ar
   105    61    58    1
   106    38    39   ar
   107    48    47    1
   108    48    49    1
   109    59    60    2
   110    59    58    1
   111    39    40    1
   112    58    57    1
   113    45    42    1
   114    50    49    2
   115    41    42    1
   116    42    43    1
   117    43    44    2
