@<TRIPOS>MOLECULE
tmp/4pneB01.pdb
 115 115 0 0 0
SMALL
GASTEIGER

@<TRIPOS>ATOM
      1  N         13.4080   28.9940   17.7100 N.3    22  LEU22      -0.1245
      2  CA        14.0730   29.5040   18.9050 C.3    22  LEU22       0.1561
      3  C         15.4660   28.9180   19.0450 C.2    22  LEU22       0.2260
      4  O         16.4170   29.6290   19.3510 O.2    22  LEU22      -0.2867
      5  CB        13.2500   29.2060   20.1680 C.3    22  LEU22       0.0270
      6  CG        11.8380   29.8170   20.2020 C.3    22  LEU22       0.0019
      7  CD1       11.1400   29.5330   21.5380 C.3    22  LEU22       0.0001
      8  CD2       11.8740   31.3150   19.9550 C.3    22  LEU22       0.0001
      9  N         17.3750   29.0650   27.0650 N.3    31  ALA31      -0.1231
     10  CA        16.4500   29.7200   27.9850 C.3    31  ALA31       0.1694
     11  C         15.3560   30.4370   27.1960 C.2    31  ALA31       0.2592
     12  O         15.6470   31.1270   26.2220 O.2    31  ALA31      -0.2718
     13  CB        17.2130   30.7120   28.8630 C.3    31  ALA31       0.0304
     14  N         14.1050   30.2910   27.6140 N.am   32  ILE32      -0.1966
     15  CA        12.9950   31.0200   27.0390 C.3    32  ILE32       0.1727
     16  C         12.4320   31.9580   28.1120 C.2    32  ILE32       0.2616
     17  O         11.2700   31.8480   28.4970 O.2    32  ILE32      -0.2715
     18  CB        11.9030   30.0910   26.5150 C.3    32  ILE32       0.0290
     19  CG1       12.5330   28.8730   25.7980 C.3    32  ILE32       0.0022
     20  CG2       10.9720   30.8750   25.5760 C.3    32  ILE32       0.0023
     21  CD1       11.5120   27.8210   25.3070 C.3    32  ILE32       0.0001
     22  N         13.2960   32.8390   28.6000 N.am   33  HIS33      -0.1959
     23  CA        12.8910   33.9030   29.5150 C.3    33  HIS33       0.1787
     24  C         13.7880   35.1040   29.2940 C.2    33  HIS33       0.2620
     25  O         14.8210   34.9820   28.6560 O.2    33  HIS33      -0.2715
     26  CB        12.9080   33.4360   30.9710 C.3    33  HIS33       0.0785
     27  CG        14.2330   32.9500   31.4610 C.ar   33  HIS33       0.0821
     28  ND1       14.4170   31.6490   31.8830 N.ar   33  HIS33      -0.2267
     29  CD2       15.4060   33.5870   31.6770 C.ar   33  HIS33       0.1154
     30  CE1       15.6680   31.4980   32.2970 C.ar   33  HIS33       0.1986
     31  NE2       16.2750   32.6650   32.2200 N.ar   33  HIS33      -0.2212
     32  N         13.3620   36.2610   29.8130 N.am   34  HIS34      -0.1973
     33  CA        14.0680   37.5080   29.6570 C.3    34  HIS34       0.1656
     34  C         15.4110   37.4510   30.3530 C.2    34  HIS34       0.2291
     35  O         15.5440   36.8140   31.3940 O.2    34  HIS34      -0.2864
     36  CB        13.2810   38.6640   30.2380 C.3    34  HIS34       0.0771
     37  CG        12.2180   39.2020   29.3340 C.ar   34  HIS34       0.0820
     38  ND1       11.4350   38.4010   28.5240 N.ar   34  HIS34      -0.2267
     39  CD2       11.7970   40.4670   29.1270 C.ar   34  HIS34       0.1154
     40  CE1       10.6020   39.1610   27.8360 C.ar   34  HIS34       0.1986
     41  NE2       10.7750   40.4170   28.2060 N.ar   34  HIS34      -0.2212
     42  N         21.8340   38.2720   25.3390 N.3    45  TRP45      -0.1241
     43  CA        20.5950   37.9150   26.0150 C.3    45  TRP45       0.1605
     44  C         20.7210   36.5210   26.6240 C.2    45  TRP45       0.2264
     45  O         20.1650   36.2830   27.6840 O.2    45  TRP45      -0.2867
     46  CB        19.3600   37.9900   25.0990 C.3    45  TRP45       0.0550
     47  CG        19.2610   36.9630   24.0220 C.ar   45  TRP45       0.0003
     48  CD1       19.6930   37.0860   22.7530 C.ar   45  TRP45       0.0946
     49  CD2       18.6420   35.6740   24.1180 C.ar   45  TRP45       0.0152
     50  NE1       19.4010   35.9430   22.0360 N.ar   45  TRP45      -0.2442
     51  CE2       18.7480   35.0650   22.8600 C.ar   45  TRP45       0.0810
     52  CE3       18.0250   34.9800   25.1510 C.ar   45  TRP45       0.0012
     53  CZ2       18.2580   33.7800   22.6090 C.ar   45  TRP45       0.0191
     54  CZ3       17.5460   33.7170   24.8960 C.ar   45  TRP45       0.0001
     55  CH2       17.6570   33.1380   23.6440 C.ar   45  TRP45       0.0015
     56  N          8.0630   32.5030   33.7390 N.3   140  GLN140     -0.1245
     57  CA         7.2950   32.9170   32.5740 C.3   140  GLN140      0.1566
     58  C          6.4290   31.7920   32.0200 C.2   140  GLN140      0.2260
     59  O          6.3260   31.6420   30.8030 O.2   140  GLN140     -0.2867
     60  CB         8.2300   33.4580   31.4660 C.3   140  GLN140      0.0367
     61  CG         8.7520   34.8650   31.7490 C.3   140  GLN140      0.0905
     62  CD         9.7290   35.3790   30.7030 C.2   140  GLN140      0.2608
     63  OE1       10.8780   35.7980   31.0080 O.2   140  GLN140     -0.2717
     64  NE2        9.2940   35.3310   29.4460 N.am  140  GLN140     -0.0878
     65  N          6.9440   38.5790   32.7210 N.3   170  VAL170     -0.1245
     66  CA         6.7930   39.8690   32.0530 C.3   170  VAL170      0.1561
     67  C          5.4280   40.4900   32.4570 C.2   170  VAL170      0.2260
     68  O          4.3670   39.8580   32.3750 O.2   170  VAL170     -0.2867
     69  CB         6.8620   39.7130   30.4940 C.3   170  VAL170      0.0252
     70  CG1        6.7350   41.0790   29.8060 C.3   170  VAL170      0.0019
     71  CG2        8.1080   39.0120   30.0630 C.3   170  VAL170      0.0019
     72  N         16.2140   43.2190   26.9230 N.3   220  PHE220     -0.1227
     73  CA        15.8660   41.9570   26.2720 C.3   220  PHE220      0.1736
     74  C         15.1360   42.1270   24.9290 C.2   220  PHE220      0.2595
     75  O         15.5930   41.5920   23.8970 O.2   220  PHE220     -0.2718
     76  CB        15.0130   41.0400   27.1700 C.3   220  PHE220      0.0547
     77  CG        14.6730   39.7650   26.4820 C.ar  220  PHE220     -0.0202
     78  CD1       13.4540   39.6250   25.8810 C.ar  220  PHE220     -0.0042
     79  CD2       15.6090   38.7640   26.3510 C.ar  220  PHE220     -0.0042
     80  CE1       13.1490   38.4900   25.1730 C.ar  220  PHE220     -0.0003
     81  CE2       15.3160   37.6210   25.6550 C.ar  220  PHE220     -0.0003
     82  CZ        14.0780   37.4940   25.0660 C.ar  220  PHE220     -0.0000
     83  N         13.9990   42.8210   24.9010 N.am  221  MET221     -0.1979
     84  CA        13.2310   42.8490   23.6610 C.3   221  MET221      0.1605
     85  C         14.0390   43.4520   22.5000 C.2   221  MET221      0.2287
     86  O         14.0840   42.8800   21.4340 O.2   221  MET221     -0.2864
     87  CB        11.9020   43.5960   23.8280 C.3   221  MET221      0.0413
     88  CG        10.8570   42.8500   24.6600 C.3   221  MET221      0.0598
     89  SD        10.4010   41.2470   23.9940 S.3   221  MET221     -0.1393
     90  CE         9.6610   41.7510   22.4360 C.3   221  MET221      0.0692
     91  N         16.8340   40.7040   21.5910 N.3   224  PHE224     -0.1241
     92  CA        16.2890   39.4820   21.0030 C.3   224  PHE224      0.1605
     93  C         15.6940   39.7600   19.6040 C.2   224  PHE224      0.2264
     94  O         15.7810   38.9200   18.6850 O.2   224  PHE224     -0.2867
     95  CB        15.2570   38.8590   21.9160 C.3   224  PHE224      0.0534
     96  CG        14.7550   37.5470   21.4080 C.ar  224  PHE224     -0.0203
     97  CD1       15.5270   36.4180   21.5550 C.ar  224  PHE224     -0.0042
     98  CD2       13.5460   37.4470   20.7800 C.ar  224  PHE224     -0.0042
     99  CE1       15.1000   35.2020   21.0490 C.ar  224  PHE224     -0.0003
    100  CE2       13.1130   36.2260   20.2730 C.ar  224  PHE224     -0.0003
    101  CZ        13.8850   35.1090   20.4460 C.ar  224  PHE224     -0.0000
    102  N          4.0560   36.5740   14.7500 N.3   246  TRP246     -0.1241
    103  CA         4.6250   36.6520   16.0950 C.3   246  TRP246      0.1605
    104  C          6.0070   37.2740   15.9900 C.2   246  TRP246      0.2264
    105  O          6.3630   38.1680   16.7700 O.2   246  TRP246     -0.2867
    106  CB         4.7060   35.2800   16.7660 C.3   246  TRP246      0.0550
    107  CG         5.6400   35.2680   17.9250 C.ar  246  TRP246      0.0003
    108  CD1        5.3820   35.6950   19.1980 C.ar  246  TRP246      0.0946
    109  CD2        7.0070   34.8250   17.9210 C.ar  246  TRP246      0.0152
    110  NE1        6.5060   35.5460   19.9840 N.ar  246  TRP246     -0.2442
    111  CE2        7.5140   35.0160   19.2290 C.ar  246  TRP246      0.0810
    112  CE3        7.8490   34.2840   16.9490 C.ar  246  TRP246      0.0012
    113  CZ2        8.8250   34.7010   19.5780 C.ar  246  TRP246      0.0191
    114  CZ3        9.1570   33.9600   17.3080 C.ar  246  TRP246      0.0001
    115  CH2        9.6240   34.1750   18.6070 C.ar  246  TRP246      0.0015
@<TRIPOS>BOND
     1   102   103    1
     2   104   103    1
     3   104   105    2
     4   103   106    1
     5   106   107    1
     6   112   114   ar
     7   112   109   ar
     8   114   115   ar
     9     1     2    1
    10   109   107   ar
    11   109   111   ar
    12   107   108   ar
    13   115   113   ar
    14    94    93    2
    15     2     3    1
    16     2     5    1
    17     3     4    2
    18   108   110   ar
    19   111   113   ar
    20   111   110   ar
    21    93    92    1
    22     8     6    1
    23     5     6    1
    24     6     7    1
    25   100   101   ar
    26   100    98   ar
    27   101    99   ar
    28    98    96   ar
    29    92    91    1
    30    92    95    1
    31    99    97   ar
    32    96    97   ar
    33    96    95    1
    34    86    85    2
    35    50    48   ar
    36    50    51   ar
    37    90    89    1
    38    85    84    1
    39    53    51   ar
    40    53    55   ar
    41    48    47   ar
    42    51    49   ar
    43    55    54   ar
    44    84    87    1
    45    84    83    1
    46    87    88    1
    47    75    74    2
    48    89    88    1
    49    47    49   ar
    50    47    46    1
    51    49    52   ar
    52    54    52   ar
    53    83    74   am
    54    74    73    1
    55    82    80   ar
    56    82    81   ar
    57    46    43    1
    58    80    78   ar
    59    21    19    1
    60    42    43    1
    61    20    18    1
    62    81    79   ar
    63    19    18    1
    64    78    77   ar
    65    43    44    1
    66    12    11    2
    67    73    72    1
    68    73    76    1
    69    79    77   ar
    70    77    76    1
    71    18    15    1
    72    44    45    2
    73    15    14    1
    74    15    16    1
    75     9    10    1
    76    11    14   am
    77    11    10    1
    78    40    41   ar
    79    40    38   ar
    80    10    13    1
    81    16    17    2
    82    16    22   am
    83    41    39   ar
    84    38    37   ar
    85    22    23    1
    86    25    24    2
    87    39    37   ar
    88    24    23    1
    89    24    32   am
    90    37    36    1
    91    64    62   am
    92    23    26    1
    93    33    32    1
    94    33    36    1
    95    33    34    1
    96    70    69    1
    97    71    69    1
    98    34    35    2
    99    69    66    1
   100    62    63    2
   101    62    61    1
   102    59    58    2
   103    26    27    1
   104    27    29   ar
   105    27    28   ar
   106    60    61    1
   107    60    57    1
   108    29    31   ar
   109    28    30   ar
   110    58    57    1
   111    66    67    1
   112    66    65    1
   113    31    30   ar
   114    68    67    2
   115    57    56    1
