@<TRIPOS>MOLECULE
tmp/4pneB00.pdb
 188 179 0 0 0
SMALL
GASTEIGER

@<TRIPOS>ATOM
      1  N         -4.1150   24.5120   26.8410 N.3     8  SER8       -0.1217
      2  CA        -2.8030   23.9380   27.1020 C.3     8  SER8        0.1889
      3  C         -2.3330   23.1120   25.8930 C.2     8  SER8        0.2288
      4  O         -1.1670   23.1630   25.5380 O.2     8  SER8       -0.2866
      5  CB        -2.8190   23.1000   28.3810 C.3     8  SER8        0.2089
      6  OG        -3.5090   21.8890   28.1960 O.3     8  SER8       -0.2183
      7  N         -1.1390   25.7190   23.3910 N.3    11  VAL11      -0.1245
      8  CA         0.1580   26.2470   23.7650 C.3    11  VAL11       0.1561
      9  C          1.2600   25.2180   23.4670 C.2    11  VAL11       0.2260
     10  O          2.3510   25.5570   22.9700 O.2    11  VAL11      -0.2867
     11  CB         0.1780   26.6640   25.2590 C.3    11  VAL11       0.0252
     12  CG1        1.5910   26.9800   25.7150 C.3    11  VAL11       0.0019
     13  CG2       -0.7560   27.8570   25.4830 C.3    11  VAL11       0.0019
     14  N          4.5560   25.7540   20.8760 N.3    15  TYR15      -0.1241
     15  CA         5.9720   25.5450   21.1560 C.3    15  TYR15       0.1605
     16  C          6.5330   24.4000   20.3280 C.2    15  TYR15       0.2264
     17  O          7.7070   24.4200   19.9730 O.2    15  TYR15      -0.2867
     18  CB         6.1920   25.3110   22.6560 C.3    15  TYR15       0.0534
     19  CG         6.2860   26.5970   23.4260 C.ar   15  TYR15      -0.0201
     20  CD1        7.4140   27.3950   23.3460 C.ar   15  TYR15      -0.0009
     21  CD2        5.2510   27.0140   24.2640 C.ar   15  TYR15      -0.0009
     22  CE1        7.5060   28.5640   24.0620 C.ar   15  TYR15       0.0417
     23  CE2        5.3360   28.1700   24.9730 C.ar   15  TYR15       0.0417
     24  CZ         6.4630   28.9520   24.8650 C.ar   15  TYR15       0.1957
     25  OH         6.5590   30.1340   25.5840 O.3    15  TYR15      -0.2866
     26  N         17.7120   26.5680   24.4180 N.3    30  CYS30      -0.1221
     27  CA        17.9410   27.8410   25.1030 C.3    30  CYS30       0.1808
     28  C         16.9760   28.1250   26.2280 C.2    30  CYS30       0.2601
     29  O         15.9200   27.5070   26.3420 O.2    30  CYS30      -0.2717
     30  CB        17.8680   29.0120   24.0950 C.3    30  CYS30       0.0970
     31  SG        16.2320   29.2970   23.3180 S.3    30  CYS30      -0.0800
     32  N         17.3750   29.0650   27.0650 N.am   31  ALA31      -0.1965
     33  CA        16.4500   29.7200   27.9850 C.3    31  ALA31       0.1728
     34  C         15.3560   30.4370   27.1960 C.2    31  ALA31       0.2616
     35  O         15.6470   31.1270   26.2220 O.2    31  ALA31      -0.2715
     36  CB        17.2130   30.7120   28.8630 C.3    31  ALA31       0.0334
     37  N         14.1050   30.2910   27.6140 N.am   32  ILE32      -0.1963
     38  CA        12.9950   31.0200   27.0390 C.3    32  ILE32       0.1727
     39  C         12.4320   31.9580   28.1120 C.2    32  ILE32       0.2616
     40  O         11.2700   31.8480   28.4970 O.2    32  ILE32      -0.2715
     41  CB        11.9030   30.0910   26.5150 C.3    32  ILE32       0.0290
     42  CG1       12.5330   28.8730   25.7980 C.3    32  ILE32       0.0022
     43  CG2       10.9720   30.8750   25.5760 C.3    32  ILE32       0.0023
     44  CD1       11.5120   27.8210   25.3070 C.3    32  ILE32       0.0001
     45  N         13.2960   32.8390   28.6000 N.am   33  HIS33      -0.1973
     46  CA        12.8910   33.9030   29.5150 C.3    33  HIS33       0.1656
     47  C         13.7880   35.1040   29.2940 C.2    33  HIS33       0.2291
     48  O         14.8210   34.9820   28.6560 O.2    33  HIS33      -0.2864
     49  CB        12.9080   33.4360   30.9710 C.3    33  HIS33       0.0771
     50  CG        14.2330   32.9500   31.4610 C.ar   33  HIS33       0.0820
     51  ND1       14.4170   31.6490   31.8830 N.ar   33  HIS33      -0.2267
     52  CD2       15.4060   33.5870   31.6770 C.ar   33  HIS33       0.1154
     53  CE1       15.6680   31.4980   32.2970 C.ar   33  HIS33       0.1986
     54  NE2       16.2750   32.6650   32.2200 N.ar   33  HIS33      -0.2212
     55  N          9.9020   22.2430   38.2070 N.3    70  ASP70      -0.1239
     56  CA        10.0640   23.3080   37.2120 C.3    70  ASP70       0.1674
     57  C          8.8150   23.3450   36.3410 C.2    70  ASP70       0.2266
     58  O          8.6610   22.5340   35.4340 O.2    70  ASP70      -0.2867
     59  CB        11.3550   23.0350   36.4300 C.3    70  ASP70       0.1410
     60  CG        11.6640   24.0890   35.4360 C.2    70  ASP70       0.3668
     61  OD1       10.9090   25.0940   35.4110 O.co2  70  ASP70      -0.2456
     62  OD2       12.6870   23.8910   34.7170 O.co2  70  ASP70      -0.2456
     63  N          6.5810   24.4460   33.6880 N.3    72  GLY72      -0.1210
     64  CA         6.7380   25.0550   32.3840 C.3    72  GLY72       0.1956
     65  C          8.1940   25.2300   32.0200 C.2    72  GLY72       0.2612
     66  O          8.6910   26.3470   31.8970 O.2    72  GLY72      -0.2717
     67  N          8.8690   24.1040   31.8200 N.am   73  CYS73      -0.1956
     68  CA        10.3180   24.0550   31.8840 C.3    73  CYS73       0.1843
     69  C         11.0360   24.3910   30.5830 C.2    73  CYS73       0.2626
     70  O         12.2700   24.3560   30.5380 O.2    73  CYS73      -0.2714
     71  CB        10.7430   22.6540   32.3520 C.3    73  CYS73       0.0997
     72  SG        10.2380   21.3340   31.1970 S.3    73  CYS73      -0.0797
     73  N         10.2870   24.7240   29.5430 N.am   74  GLY74      -0.1954
     74  CA        10.8820   24.9990   28.2440 C.3    74  GLY74       0.1869
     75  C         11.6940   23.8040   27.7410 C.2    74  GLY74       0.2309
     76  O         11.3000   22.6420   27.9260 O.2    74  GLY74      -0.2863
     77  N         17.3430   26.0550   31.7710 N.3    78  PRO78      -0.2116
     78  CA        17.5370   26.5910   33.1200 C.3    78  PRO78       0.1372
     79  C         17.6750   25.4890   34.1900 C.2    78  PRO78       0.2244
     80  O         18.6440   25.5170   34.9520 O.2    78  PRO78      -0.2868
     81  CB        16.2810   27.4550   33.3320 C.3    78  PRO78       0.0268
     82  CG        15.9510   27.9040   31.9500 C.3    78  PRO78       0.0207
     83  CD        16.1610   26.6790   31.1300 C.3    78  PRO78       0.0892
     84  N          8.2370   20.0620   33.8730 N.3    93  ILE93      -0.1231
     85  CA         7.0300   19.7550   33.1260 C.3    93  ILE93       0.1692
     86  C          6.7370   20.8220   32.1030 C.2    93  ILE93       0.2593
     87  O          6.9680   21.9930   32.3350 O.2    93  ILE93      -0.2718
     88  CB         5.8350   19.5650   34.0330 C.3    93  ILE93       0.0266
     89  CG1        5.4980   20.8310   34.8110 C.3    93  ILE93       0.0019
     90  CG2        6.1170   18.3950   34.9450 C.3    93  ILE93       0.0020
     91  CD1        4.1470   20.7010   35.5590 C.3    93  ILE93       0.0001
     92  N          6.2660   20.3730   30.9510 N.am   94  THR94      -0.1939
     93  CA         5.8250   21.2720   29.9070 C.3    94  THR94       0.2028
     94  C          4.6910   20.6160   29.0970 C.2    94  THR94       0.2642
     95  O          4.5870   19.4020   29.0790 O.2    94  THR94      -0.2714
     96  CB         7.0060   21.6830   29.0250 C.3    94  THR94       0.1808
     97  OG1        6.5020   22.4150   27.8970 O.3    94  THR94      -0.2208
     98  CG2        7.8250   20.4900   28.5540 C.3    94  THR94       0.0379
     99  N          3.8830   21.4060   28.3960 N.am   95  VAL95      -0.1963
    100  CA         2.8110   20.8260   27.5880 C.3    95  VAL95       0.1727
    101  C          3.2800   20.6160   26.1410 C.2    95  VAL95       0.2616
    102  O          2.5310   20.1390   25.3090 O.2    95  VAL95      -0.2715
    103  CB         1.5360   21.6930   27.6280 C.3    95  VAL95       0.0290
    104  CG1        0.8670   21.5790   29.0160 C.3    95  VAL95       0.0023
    105  CG2        1.8180   23.1690   27.3180 C.3    95  VAL95       0.0023
    106  N          4.5310   20.9400   25.8700 N.am   96  SER96      -0.1950
    107  CA         5.1100   20.7200   24.5540 C.3    96  SER96       0.1924
    108  C          5.8980   19.4180   24.5240 C.2    96  SER96       0.2314
    109  O          6.9330   19.3360   25.1820 O.2    96  SER96      -0.2863
    110  CB         6.0280   21.8930   24.1900 C.3    96  SER96       0.2116
    111  OG         6.8130   21.5640   23.0470 O.3    96  SER96      -0.2180
    112  N          9.4820   19.9760   23.4360 N.3    99  GLN99      -0.1245
    113  CA        10.3550   20.4160   24.5190 C.3    99  GLN99       0.1566
    114  C         10.7580   19.2590   25.4560 C.2    99  GLN99       0.2260
    115  O         11.8770   19.2100   25.9360 O.2    99  GLN99      -0.2867
    116  CB         9.6850   21.5500   25.3200 C.3    99  GLN99       0.0367
    117  CG         9.5850   22.8290   24.5200 C.3    99  GLN99       0.0905
    118  CD         9.0110   24.0200   25.3100 C.2    99  GLN99       0.2608
    119  OE1        8.2540   23.8450   26.2400 O.2    99  GLN99      -0.2717
    120  NE2        9.3530   25.2240   24.8910 N.am   99  GLN99      -0.0878
    121  N          3.1950   17.3380   31.0640 N.3   121  VAL121     -0.1231
    122  CA         2.2190   17.4400   32.1460 C.3   121  VAL121      0.1692
    123  C          1.6190   18.8240   32.1240 C.2   121  VAL121      0.2592
    124  O          2.3320   19.7850   31.9750 O.2   121  VAL121     -0.2718
    125  CB         2.8540   17.1680   33.5530 C.3   121  VAL121      0.0266
    126  CG1        1.9260   17.6340   34.6940 C.3   121  VAL121      0.0020
    127  CG2        3.2430   15.7160   33.7030 C.3   121  VAL121      0.0020
    128  N          0.3060   18.9130   32.2660 N.am  122  ASP122     -0.1960
    129  CA        -0.4030   20.1840   32.3940 C.3   122  ASP122      0.1840
    130  C         -0.3940   20.6580   33.8640 C.2   122  ASP122      0.2622
    131  O         -0.8580   19.9400   34.7430 O.2   122  ASP122     -0.2715
    132  CB        -1.8390   19.9910   31.8990 C.3   122  ASP122      0.1450
    133  CG        -2.6020   21.2660   31.7800 C.2   122  ASP122      0.3671
    134  OD1       -2.2320   22.2740   32.4300 O.co2 122  ASP122     -0.2456
    135  OD2       -3.6040   21.2330   31.0400 O.co2 122  ASP122     -0.2456
    136  N          0.1440   21.8510   34.1300 N.am  123  ALA123     -0.1963
    137  CA         0.2620   22.3700   35.4920 C.3   123  ALA123      0.1728
    138  C         -1.1010   22.6040   36.1220 C.2   123  ALA123      0.2616
    139  O         -1.2290   22.6950   37.3320 O.2   123  ALA123     -0.2715
    140  CB         1.0580   23.6630   35.4880 C.3   123  ALA123      0.0334
    141  N         -2.1390   22.6880   35.3110 N.am  124  MET124     -0.1977
    142  CA        -3.4540   22.9200   35.8620 C.3   124  MET124      0.1605
    143  C         -4.0780   21.6540   36.4660 C.2   124  MET124      0.2287
    144  O         -5.1090   21.7260   37.1130 O.2   124  MET124     -0.2864
    145  CB        -4.3470   23.5280   34.7840 C.3   124  MET124      0.0413
    146  CG        -3.9720   24.9860   34.5140 C.3   124  MET124      0.0598
    147  SD        -4.8970   25.7860   33.1920 S.3   124  MET124     -0.1393
    148  CE        -4.0360   25.1680   31.7390 C.3   124  MET124      0.0692
    149  N          8.9580   30.1900   35.8260 N.3   139  MET139     -0.1230
    150  CA         9.6350   31.2410   35.0770 C.3   139  MET139      0.1702
    151  C          8.9110   31.4690   33.7610 C.2   139  MET139      0.2592
    152  O          9.0700   30.6780   32.8240 O.2   139  MET139     -0.2718
    153  CB        11.0970   30.8640   34.8480 C.3   139  MET139      0.0401
    154  CG        11.9530   30.9810   36.1070 C.3   139  MET139      0.0596
    155  SD        13.7450   30.7980   35.8780 S.3   139  MET139     -0.1393
    156  CE        13.8240   29.0420   36.0150 C.3   139  MET139      0.0692
    157  N          8.0630   32.5030   33.7390 N.am  140  GLN140     -0.1966
    158  CA         7.2950   32.9170   32.5740 C.3   140  GLN140      0.1733
    159  C          6.4290   31.7920   32.0200 C.2   140  GLN140      0.2617
    160  O          6.3260   31.6420   30.8030 O.2   140  GLN140     -0.2715
    161  CB         8.2300   33.4580   31.4660 C.3   140  GLN140      0.0408
    162  CG         8.7520   34.8650   31.7490 C.3   140  GLN140      0.0908
    163  CD         9.7290   35.3790   30.7030 C.2   140  GLN140      0.2608
    164  OE1       10.8780   35.7980   31.0080 O.2   140  GLN140     -0.2717
    165  NE2        9.2940   35.3310   29.4460 N.am  140  GLN140     -0.0878
    166  N          5.7990   31.0180   32.9020 N.am  141  SER141     -0.1950
    167  CA         4.8560   29.9920   32.4640 C.3   141  SER141      0.1924
    168  C          3.4120   30.2940   32.8770 C.2   141  SER141      0.2314
    169  O          2.4890   29.9780   32.1390 O.2   141  SER141     -0.2863
    170  CB         5.2700   28.6340   32.9900 C.3   141  SER141      0.2116
    171  OG         5.2880   28.6340   34.4070 O.3   141  SER141     -0.2180
    172  N          0.9100   32.0850   30.5390 N.3   144  GLU144     -0.1231
    173  CA         0.5280   31.3500   29.3430 C.3   144  GLU144      0.1699
    174  C         -0.6610   30.4050   29.5350 C.2   144  GLU144      0.2592
    175  O         -1.2060   29.8740   28.5660 O.2   144  GLU144     -0.2718
    176  CB         1.6990   30.5280   28.8150 C.3   144  GLU144      0.0402
    177  CG         2.8110   31.3410   28.2860 C.3   144  GLU144      0.1161
    178  CD         3.8540   30.5190   27.5800 C.2   144  GLU144      0.3649
    179  OE1        3.7960   29.2580   27.6510 O.co2 144  GLU144     -0.2457
    180  OE2        4.7250   31.1290   26.9420 O.co2 144  GLU144     -0.2457
    181  N         -1.0610   30.1650   30.7840 N.am  145  MET145     -0.1979
    182  CA        -2.0770   29.1880   31.0780 C.3   145  MET145      0.1605
    183  C         -3.4770   29.7540   31.0270 C.2   145  MET145      0.2287
    184  O         -3.7280   30.8880   31.4320 O.2   145  MET145     -0.2864
    185  CB        -1.8260   28.6090   32.4600 C.3   145  MET145      0.0413
    186  CG        -0.3830   28.0790   32.5920 C.3   145  MET145      0.0598
    187  SD        -0.0870   27.3730   34.2150 S.3   145  MET145     -0.1393
    188  CE         1.6410   26.9550   34.0810 C.3   145  MET145      0.0692
@<TRIPOS>BOND
     1    17    16    2
     2    16    15    1
     3    14    15    1
     4    15    18    1
     5    18    19    1
     6    10     9    2
     7   111   110    1
     8    31    30    1
     9    20    19   ar
    10    20    22   ar
    11     7     8    1
    12    19    21   ar
    13   112   113    1
    14     9     8    1
    15     8    11    1
    16    22    24   ar
    17    30    27    1
    18   110   107    1
    19    21    23   ar
    20    26    27    1
    21   113   116    1
    22   113   114    1
    23   117   118    1
    24   117   116    1
    25   108   107    1
    26   108   109    2
    27   107   106    1
    28    24    23   ar
    29    24    25    1
    30   120   118   am
    31    27    28    1
    32    11    13    1
    33    11    12    1
    34    44    42    1
    35   102   101    2
    36   118   119    2
    37   114   115    2
    38     4     3    2
    39    43    41    1
    40    42    41    1
    41   106   101   am
    42     3     2    1
    43   101   100    1
    44    35    34    2
    45    28    29    2
    46    28    32   am
    47    41    38    1
    48     1     2    1
    49   180   178   ar
    50    38    37    1
    51    38    39    1
    52    32    33    1
    53     2     5    1
    54    34    37   am
    55    34    33    1
    56   105   103    1
    57   178   179   ar
    58   178   177    1
    59   100   103    1
    60   100    99    1
    61   103   104    1
    62    75    76    2
    63    75    74    1
    64    97    96    1
    65    33    36    1
    66    39    40    2
    67    39    45   am
    68     6     5    1
    69    74    73    1
    70   177   176    1
    71    99    94   am
    72    98    96    1
    73   175   174    2
    74    45    46    1
    75    48    47    2
    76   176   173    1
    77    96    93    1
    78    95    94    2
    79    94    93    1
    80    47    46    1
    81   173   174    1
    82   173   172    1
    83   165   163   am
    84    46    49    1
    85   174   181   am
    86    73    69   am
    87    93    92    1
    88    70    69    2
    89    69    68    1
    90   163   164    2
    91   163   162    1
    92   181   182    1
    93   160   159    2
    94    92    86   am
    95    49    50    1
    96   183   182    1
    97   183   184    2
    98   135   133   ar
    99   121   122    1
   100   182   185    1
   101    83    77    1
   102    83    82    1
   103    72    71    1
   104    50    52   ar
   105    50    51   ar
   106   161   162    1
   107   161   158    1
   108    52    54   ar
   109   148   147    1
   110    77    78    1
   111   133   132    1
   112   133   134   ar
   113    67    68    1
   114    67    65   am
   115    51    53   ar
   116    68    71    1
   117    66    65    2
   118   132   129    1
   119    82    81    1
   120   124   123    2
   121   159   158    1
   122   159   166   am
   123    65    64    1
   124    86    87    2
   125    86    85    1
   126   123   122    1
   127   123   128   am
   128   169   168    2
   129   122   125    1
   130    54    53   ar
   131   128   129    1
   132    64    63    1
   133   129   130    1
   134   185   186    1
   135   167   168    1
   136   167   166    1
   137   167   170    1
   138   158   157    1
   139   186   187    1
   140   152   151    2
   141   170   171    1
   142    78    81    1
   143    78    79    1
   144    85    84    1
   145    85    88    1
   146   147   146    1
   147   125   127    1
   148   125   126    1
   149   157   151   am
   150   151   150    1
   151   130   136   am
   152   130   131    2
   153    88    89    1
   154    88    90    1
   155   188   187    1
   156   136   137    1
   157    79    80    2
   158   146   145    1
   159    62    60   ar
   160   145   142    1
   161    89    91    1
   162   153   150    1
   163   153   154    1
   164   150   149    1
   165   141   142    1
   166   141   138   am
   167    61    60   ar
   168    58    57    2
   169    60    59    1
   170   140   137    1
   171   137   138    1
   172   142   143    1
   173   155   156    1
   174   155   154    1
   175   138   139    2
   176    57    56    1
   177    59    56    1
   178   143   144    2
   179    56    55    1
