@<TRIPOS>MOLECULE
tmp/4pngB00.pdb
 195 193 0 0 0
SMALL
GASTEIGER

@<TRIPOS>ATOM
      1  N        -28.0950    3.4350   25.3660 N.3    12  SER12      -0.1203
      2  CA       -26.7120    3.7050   25.0140 C.3    12  SER12       0.2005
      3  C        -26.5550    4.2530   23.5830 C.2    12  SER12       0.2461
      4  O        -26.9520    3.5940   22.6250 O.2    12  SER12      -0.2732
      5  CB       -25.9020    2.4090   25.0990 C.3    12  SER12       0.2103
      6  OG       -24.6520    2.5680   24.4650 O.3    12  SER12      -0.2182
      7  N        -25.9660    5.4580   23.4270 N.am   13  PRO13      -0.2718
      8  CA       -25.8180    6.0500   22.0880 C.3    13  PRO13       0.1520
      9  C        -25.1590    5.1240   21.0550 C.2    13  PRO13       0.2440
     10  O        -25.7080    4.9320   19.9960 O.2    13  PRO13      -0.2731
     11  CB       -25.0030    7.3240   22.3400 C.3    13  PRO13       0.0310
     12  CG       -25.2670    7.6640   23.7550 C.3    13  PRO13       0.0237
     13  CD       -25.5590    6.3940   24.4960 C.3    13  PRO13       0.0939
     14  N        -24.0120    4.4990   21.3810 N.am   14  PRO14      -0.2727
     15  CA       -23.3890    3.6930   20.3210 C.3    14  PRO14       0.1402
     16  C        -24.2030    2.4470   19.9640 C.2    14  PRO14       0.2269
     17  O        -24.1190    1.9470   18.8430 O.2    14  PRO14      -0.2865
     18  CB       -22.0110    3.3570   20.8940 C.3    14  PRO14       0.0296
     19  CG       -22.1770    3.4970   22.3760 C.3    14  PRO14       0.0237
     20  CD       -23.0900    4.6990   22.5120 C.3    14  PRO14       0.0939
     21  N        -25.5350   -2.1120   31.4010 N.3    36  THR36      -0.1203
     22  CA       -24.2430   -1.6640   31.8880 C.3    36  THR36       0.1994
     23  C        -24.3910   -0.9520   33.2330 C.2    36  THR36       0.2617
     24  O        -23.4690   -0.9380   34.0180 O.2    36  THR36      -0.2717
     25  CB       -23.5130   -0.7540   30.8760 C.3    36  THR36       0.1784
     26  OG1      -24.3440    0.3550   30.5290 O.3    36  THR36      -0.2211
     27  CG2      -23.1560   -1.5210   29.6070 C.3    36  THR36       0.0376
     28  N        -25.5710   -0.4110   33.5090 N.am   37  ARG37      -0.1979
     29  CA       -25.7870    0.3060   34.7680 C.3    37  ARG37       0.1597
     30  C        -25.7930   -0.6820   35.9270 C.2    37  ARG37       0.2287
     31  O        -25.4410   -0.3010   37.0500 O.2    37  ARG37      -0.2864
     32  CB       -27.0910    1.1010   34.7130 C.3    37  ARG37       0.0334
     33  CG       -26.9560    2.4220   34.0090 C.3    37  ARG37       0.0492
     34  CD       -26.7550    2.2450   32.4920 C.3    37  ARG37       0.2205
     35  NE       -27.3140    3.4210   31.8110 N.pl3  37  ARG37      -0.0865
     36  CZ       -26.9290    3.8060   30.6120 C.cat  37  ARG37       0.5346
     37  NH1      -26.0810    3.1070   29.8860 N.pl3  37  ARG37       0.1354
     38  NH2      -27.4630    4.9040   30.1580 N.pl3  37  ARG37       0.1354
     39  N        -22.2830   -6.1460   31.8650 N.3    41  ASN41      -0.1225
     40  CA       -21.1520   -6.2160   30.9680 C.3    41  ASN41       0.1785
     41  C        -19.8840   -6.8040   31.6000 C.2    41  ASN41       0.2597
     42  O        -18.8920   -7.0240   30.9080 O.2    41  ASN41      -0.2718
     43  CB       -20.8700   -4.8290   30.3630 C.3    41  ASN41       0.1169
     44  CG       -20.7200   -3.7370   31.4100 C.2    41  ASN41       0.2627
     45  OD1      -21.5230   -3.6480   32.3600 O.2    41  ASN41      -0.2716
     46  ND2      -19.7080   -2.9080   31.2570 N.am   41  ASN41      -0.0877
     47  N        -19.9110   -7.0490   32.9120 N.am   42  PHE42      -0.1976
     48  CA       -18.7560   -7.6340   33.6070 C.3    42  PHE42       0.1639
     49  C        -18.9790   -9.1200   33.8690 C.2    42  PHE42       0.2290
     50  O        -18.1490   -9.7650   34.4920 O.2    42  PHE42      -0.2864
     51  CB       -18.4650   -6.8620   34.9030 C.3    42  PHE42       0.0560
     52  CG       -17.8950   -5.4920   34.6770 C.ar   42  PHE42      -0.0200
     53  CD1      -18.7250   -4.4050   34.5100 C.ar   42  PHE42      -0.0042
     54  CD2      -16.5140   -5.2850   34.6240 C.ar   42  PHE42      -0.0042
     55  CE1      -18.2020   -3.1310   34.3070 C.ar   42  PHE42      -0.0003
     56  CE2      -15.9920   -4.0140   34.4170 C.ar   42  PHE42      -0.0003
     57  CZ       -16.8400   -2.9490   34.2480 C.ar   42  PHE42      -0.0000
     58  N        -13.0960   -5.6670   26.4060 N.3    52  GLN52      -0.1231
     59  CA       -13.2710   -4.2540   26.7560 C.3    52  GLN52       0.1698
     60  C        -14.5510   -3.9880   27.5370 C.2    52  GLN52       0.2592
     61  O        -14.7620   -2.8750   28.0100 O.2    52  GLN52      -0.2718
     62  CB       -13.2250   -3.3780   25.4950 C.3    52  GLN52       0.0381
     63  CG       -12.7490   -1.9700   25.7620 C.3    52  GLN52       0.0905
     64  CD       -12.8040   -1.0910   24.5430 C.2    52  GLN52       0.2608
     65  OE1      -12.5980   -1.5700   23.4210 O.2    52  GLN52      -0.2717
     66  NE2      -13.1200    0.1920   24.7360 N.am   52  GLN52      -0.0878
     67  N        -15.4330   -4.9830   27.6220 N.am   53  HIS53      -0.1962
     68  CA       -16.7140   -4.8830   28.3230 C.3    53  HIS53       0.1787
     69  C        -17.5200   -3.6350   27.9880 C.2    53  HIS53       0.2621
     70  O        -18.0120   -2.9040   28.8660 O.2    53  HIS53      -0.2715
     71  CB       -16.5790   -5.0680   29.8710 C.3    53  HIS53       0.0785
     72  CG       -15.5760   -4.1840   30.5450 C.ar   53  HIS53       0.0821
     73  ND1      -15.8500   -2.8850   30.9290 N.ar   53  HIS53      -0.2267
     74  CD2      -14.3220   -4.4500   30.9970 C.ar   53  HIS53       0.1154
     75  CE1      -14.7880   -2.3750   31.5310 C.ar   53  HIS53       0.1986
     76  NE2      -13.8490   -3.3060   31.5810 N.ar   53  HIS53      -0.2212
     77  N        -17.6290   -3.3780   26.7000 N.am   54  THR54      -0.1937
     78  CA       -18.4830   -2.2840   26.2330 C.3    54  THR54       0.2028
     79  C        -19.6770   -2.7820   25.4500 C.2    54  THR54       0.2642
     80  O        -19.6360   -3.8780   24.8650 O.2    54  THR54      -0.2714
     81  CB       -17.7140   -1.2940   25.3350 C.3    54  THR54       0.1808
     82  OG1      -17.1380   -1.9730   24.1960 O.3    54  THR54      -0.2208
     83  CG2      -16.6060   -0.6250   26.1150 C.3    54  THR54       0.0379
     84  N        -20.7360   -1.9840   25.4740 N.am   55  VAL55      -0.1963
     85  CA       -21.8410   -2.1530   24.5230 C.3    55  VAL55       0.1712
     86  C        -21.7900   -0.9960   23.5260 C.2    55  VAL55       0.2458
     87  O        -21.4700    0.1170   23.9090 O.2    55  VAL55      -0.2730
     88  CB       -23.2130   -2.3000   25.2260 C.3    55  VAL55       0.0289
     89  CG1      -23.1960   -3.5090   26.1350 C.3    55  VAL55       0.0023
     90  CG2      -23.6090   -1.0410   25.9760 C.3    55  VAL55       0.0023
     91  N        -22.1000   -1.2380   22.2390 N.am   56  PRO56      -0.2727
     92  CA       -22.5790   -2.4860   21.6790 C.3    56  PRO56       0.1402
     93  C        -21.5010   -3.5140   21.4400 C.2    56  PRO56       0.2269
     94  O        -20.3590   -3.1860   21.1660 O.2    56  PRO56      -0.2865
     95  CB       -23.0970   -2.0730   20.2890 C.3    56  PRO56       0.0296
     96  CG       -22.2550   -0.9000   19.9360 C.3    56  PRO56       0.0237
     97  CD       -22.0710   -0.1690   21.2260 C.3    56  PRO56       0.0939
     98  N        -17.2000   -2.0990   19.3430 N.3    67  ASP67      -0.1225
     99  CA       -17.0760   -0.6990   18.9190 C.3    67  ASP67       0.1805
    100  C        -18.1080   -0.4390   17.8310 C.2    67  ASP67       0.2598
    101  O        -18.0800   -1.0370   16.7320 O.2    67  ASP67      -0.2718
    102  CB       -15.6690   -0.3130   18.4720 C.3    67  ASP67       0.1424
    103  CG       -15.5080    1.1620   18.3270 C.2    67  ASP67       0.3668
    104  OD1      -16.1820    1.7620   17.4280 O.co2  67  ASP67      -0.2456
    105  OD2      -14.7150    1.7430   19.1180 O.co2  67  ASP67      -0.2456
    106  N        -19.0380    0.4660   18.1170 N.am   68  SER68      -0.1938
    107  CA       -20.1340    0.7210   17.1870 C.3    68  SER68       0.2055
    108  C        -19.6550    1.0680   15.7990 C.2    68  SER68       0.2643
    109  O        -20.2980    0.7440   14.8100 O.2    68  SER68      -0.2714
    110  CB       -21.0510    1.8250   17.7020 C.3    68  SER68       0.2130
    111  OG       -20.3580    3.0570   17.7460 O.3    68  SER68      -0.2179
    112  N        -18.4970    1.7300   15.7170 N.am   69  HIS69      -0.1973
    113  CA       -17.9860    2.1840   14.4300 C.3    69  HIS69       0.1656
    114  C        -17.4650    1.0160   13.6140 C.2    69  HIS69       0.2291
    115  O        -17.6880    0.9420   12.4010 O.2    69  HIS69      -0.2864
    116  CB       -16.9020    3.2610   14.5960 C.3    69  HIS69       0.0771
    117  CG       -17.3060    4.3330   15.5590 C.ar   69  HIS69       0.0820
    118  ND1      -17.1240    4.2030   16.9150 N.ar   69  HIS69      -0.2267
    119  CD2      -17.8960    5.5320   15.3710 C.ar   69  HIS69       0.1154
    120  CE1      -17.6030    5.2690   17.5200 C.ar   69  HIS69       0.1986
    121  NE2      -18.0920    6.0830   16.6090 N.ar   69  HIS69      -0.2212
    122  N        -16.3400   11.1480   15.9340 N.3   103  GLU103     -0.1231
    123  CA       -17.3690   10.7560   16.8940 C.3   103  GLU103      0.1699
    124  C        -16.7390    9.9460   18.0410 C.2   103  GLU103      0.2592
    125  O        -17.0410   10.1730   19.2080 O.2   103  GLU103     -0.2718
    126  CB       -18.5200   10.0060   16.1980 C.3   103  GLU103      0.0402
    127  CG       -19.8030    9.9200   17.0230 C.3   103  GLU103      0.1161
    128  CD       -19.7990    8.9180   18.1640 C.2   103  GLU103      0.3649
    129  OE1      -19.0090    7.9720   18.1580 O.co2 103  GLU103     -0.2457
    130  OE2      -20.6360    9.0470   19.0870 O.co2 103  GLU103     -0.2457
    131  N        -15.8580    8.9970   17.7240 N.am  104  SER104     -0.1952
    132  CA       -15.2250    8.1980   18.7770 C.3   104  SER104      0.1924
    133  C        -14.5090    9.0420   19.8380 C.2   104  SER104      0.2314
    134  O        -14.6330    8.7820   21.0380 O.2   104  SER104     -0.2863
    135  CB       -14.2210    7.2470   18.1510 C.3   104  SER104      0.2116
    136  OG       -14.8910    6.1800   17.4960 O.3   104  SER104     -0.2180
    137  N        -17.8430   11.2240   21.6240 N.3   108  PHE108     -0.1241
    138  CA       -18.2080   10.2750   22.6690 C.3   108  PHE108      0.1605
    139  C        -17.2560   10.3270   23.8520 C.2   108  PHE108      0.2264
    140  O        -17.6770   10.5310   25.0000 O.2   108  PHE108     -0.2867
    141  CB       -18.2860    8.8320   22.1510 C.3   108  PHE108      0.0534
    142  CG       -18.7590    7.8690   23.2000 C.ar  108  PHE108     -0.0203
    143  CD1      -17.8550    7.2020   24.0360 C.ar  108  PHE108     -0.0042
    144  CD2      -20.1180    7.6600   23.3930 C.ar  108  PHE108     -0.0042
    145  CE1      -18.3080    6.3080   24.9940 C.ar  108  PHE108     -0.0003
    146  CE2      -20.5710    6.8060   24.3870 C.ar  108  PHE108     -0.0003
    147  CZ       -19.6750    6.1300   25.1830 C.ar  108  PHE108     -0.0000
    148  N        -19.1930   13.3440   25.8740 N.3   112  LEU112     -0.1231
    149  CA       -20.2460   12.6100   26.5510 C.3   112  LEU112      0.1693
    150  C        -19.7830   11.7730   27.7400 C.2   112  LEU112      0.2591
    151  O        -20.2050   12.0440   28.8760 O.2   112  LEU112     -0.2718
    152  CB       -21.0090   11.7280   25.5860 C.3   112  LEU112      0.0284
    153  CG       -22.3760   11.1500   26.0370 C.3   112  LEU112      0.0019
    154  CD1      -22.4330    9.6250   26.1110 C.3   112  LEU112      0.0001
    155  CD2      -23.0430   11.8350   27.2200 C.3   112  LEU112      0.0001
    156  N        -18.9180   10.7830   27.4990 N.am  113  ARG113     -0.1980
    157  CA       -18.4910    9.8570   28.5600 C.3   113  ARG113      0.1597
    158  C        -17.6990   10.5640   29.6670 C.2   113  ARG113      0.2287
    159  O        -17.7310   10.1370   30.8320 O.2   113  ARG113     -0.2864
    160  CB       -17.7130    8.6650   27.9660 C.3   113  ARG113      0.0334
    161  CG       -17.2870    7.6380   29.0130 C.3   113  ARG113      0.0492
    162  CD       -16.9190    6.3130   28.3770 C.3   113  ARG113      0.2205
    163  NE       -16.1750    5.4500   29.3100 N.pl3 113  ARG113     -0.0865
    164  CZ       -16.2710    4.1190   29.3810 C.cat 113  ARG113      0.5346
    165  NH1      -15.5030    3.4760   30.2650 N.pl3 113  ARG113      0.1354
    166  NH2      -17.1270    3.4270   28.6170 N.pl3 113  ARG113      0.1354
    167  N        -20.6870   11.5070   31.7690 N.3   116  THR116     -0.1218
    168  CA       -21.5480   10.4370   32.2980 C.3   116  THR116      0.1862
    169  C        -20.7840    9.5330   33.2670 C.2   116  THR116      0.2287
    170  O        -21.3610    9.0790   34.2500 O.2   116  THR116     -0.2866
    171  CB       -22.2410    9.5780   31.2220 C.3   116  THR116      0.1770
    172  OG1      -21.2620    8.9030   30.4130 O.3   116  THR116     -0.2211
    173  CG2      -23.1410   10.4100   30.3420 C.3   116  THR116      0.0375
    174  N        -22.3080    8.9600   36.9750 N.3   120  PHE120     -0.1241
    175  CA       -22.6710    7.6170   37.4510 C.3   120  PHE120      0.1605
    176  C        -21.7660    7.1450   38.5890 C.2   120  PHE120      0.2264
    177  O        -22.1510    6.2670   39.3540 O.2   120  PHE120     -0.2867
    178  CB       -22.6260    6.5870   36.3120 C.3   120  PHE120      0.0534
    179  CG       -23.5120    6.9140   35.1360 C.ar  120  PHE120     -0.0203
    180  CD1      -24.6480    7.7120   35.2730 C.ar  120  PHE120     -0.0042
    181  CD2      -23.2230    6.3850   33.8790 C.ar  120  PHE120     -0.0042
    182  CE1      -25.4540    7.9940   34.1800 C.ar  120  PHE120     -0.0003
    183  CE2      -24.0360    6.6580   32.7840 C.ar  120  PHE120     -0.0003
    184  CZ       -25.1500    7.4640   32.9340 C.ar  120  PHE120     -0.0000
    185  N        -32.4380    7.4650   27.6490 N.3   209  PHE209     -0.1241
    186  CA       -31.2100    8.0670   28.1420 C.3   209  PHE209      0.1605
    187  C        -31.4690    9.3830   28.8620 C.2   209  PHE209      0.2264
    188  O        -30.9620    9.6050   29.9660 O.2   209  PHE209     -0.2867
    189  CB       -30.2380    8.2950   26.9770 C.3   209  PHE209      0.0534
    190  CG       -28.9070    8.9000   27.3860 C.ar  209  PHE209     -0.0203
    191  CD1      -27.8720    8.0900   27.7520 C.ar  209  PHE209     -0.0042
    192  CD2      -28.7050   10.2750   27.3720 C.ar  209  PHE209     -0.0042
    193  CE1      -26.6340    8.6190   28.1030 C.ar  209  PHE209     -0.0003
    194  CE2      -27.4760   10.8150   27.7420 C.ar  209  PHE209     -0.0003
    195  CZ       -26.4410    9.9810   28.1080 C.ar  209  PHE209     -0.0000
@<TRIPOS>BOND
     1   115   114    2
     2   114   113    1
     3   113   116    1
     4   113   112    1
     5   116   117    1
     6   109   108    2
     7   119   117   ar
     8   119   121   ar
     9   117   118   ar
    10   112   108   am
    11   108   107    1
    12   122   123    1
    13   126   123    1
    14   126   127    1
    15   121   120   ar
    16   101   100    2
    17   123   124    1
    18   118   120   ar
    19   127   128    1
    20   107   110    1
    21   107   106    1
    22   104   103   ar
    23   136   135    1
    24   110   111    1
    25   131   124   am
    26   131   132    1
    27   100   106   am
    28   100    99    1
    29   124   125    2
    30   135   132    1
    31   129   128   ar
    32   128   130   ar
    33   103   102    1
    34   103   105   ar
    35   102    99    1
    36   132   133    1
    37    17    16    2
    38    99    98    1
    39   133   134    2
    40    96    95    1
    41    96    97    1
    42    16    15    1
    43    10     9    2
    44    95    92    1
    45    15    18    1
    46    15    14    1
    47    18    19    1
    48     9    14   am
    49     9     8    1
    50    94    93    2
    51    97    91    1
    52    14    20    1
    53    93    92    1
    54   137   138    1
    55    92    91    1
    56     8    11    1
    57     8     7    1
    58   141   138    1
    59   141   142    1
    60    91    86   am
    61    11    12    1
    62    19    20    1
    63     4     3    2
    64   138   139    1
    65   142   144   ar
    66   142   143   ar
    67   144   146   ar
    68    65    64    2
    69     7     3   am
    70     7    13    1
    71    86    87    2
    72    86    85    1
    73     3     2    1
    74    12    13    1
    75   139   140    2
    76   143   145   ar
    77    82    81    1
    78   146   147   ar
    79     6     5    1
    80    85    88    1
    81    85    84    1
    82    64    66   am
    83    64    63    1
    84    80    79    2
    85   145   147   ar
    86     2     5    1
    87     2     1    1
    88    88    90    1
    89    88    89    1
    90    81    83    1
    91    81    78    1
    92    79    84   am
    93    79    78    1
    94    62    63    1
    95    62    59    1
    96   152   153    1
    97   152   149    1
    98   148   149    1
    99   153   154    1
   100   153   155    1
   101    78    77    1
   102    58    59    1
   103   149   150    1
   104    77    69   am
   105    59    60    1
   106   189   190    1
   107   189   186    1
   108   192   190   ar
   109   192   194   ar
   110   190   191   ar
   111   156   150   am
   112   156   157    1
   113    60    67   am
   114    60    61    2
   115    67    68    1
   116   185   186    1
   117   150   151    2
   118   194   195   ar
   119   191   193   ar
   120   160   157    1
   121   160   161    1
   122    69    68    1
   123    69    70    2
   124   193   195   ar
   125   186   187    1
   126    68    71    1
   127   162   161    1
   128   162   163    1
   129   157   158    1
   130   166   164    1
   131   187   188    2
   132   163   164    2
   133   164   165    1
   134    27    25    1
   135   158   159    2
   136    71    72    1
   137    37    36    1
   138    38    36    1
   139   173   171    1
   140    43    40    1
   141    43    44    1
   142   172   171    1
   143    26    25    1
   144    72    73   ar
   145    72    74   ar
   146    36    35    2
   147    25    22    1
   148    42    41    2
   149    73    75   ar
   150    40    41    1
   151    40    39    1
   152    74    76   ar
   153   171   168    1
   154    46    44   am
   155    21    22    1
   156    44    45    2
   157    75    76   ar
   158    41    47   am
   159   167   168    1
   160    35    34    1
   161    22    23    1
   162   168   169    1
   163    34    33    1
   164   183   184   ar
   165   183   181   ar
   166    47    48    1
   167   184   182   ar
   168    23    28   am
   169    23    24    2
   170   169   170    2
   171    28    29    1
   172    48    49    1
   173    48    51    1
   174    49    50    2
   175   181   179   ar
   176    33    32    1
   177   182   180   ar
   178    57    55   ar
   179    57    56   ar
   180    55    53   ar
   181    56    54   ar
   182    53    52   ar
   183    54    52   ar
   184    52    51    1
   185    32    29    1
   186    29    30    1
   187   179   180   ar
   188   179   178    1
   189    30    31    2
   190   178   175    1
   191   174   175    1
   192   175   176    1
   193   176   177    2
