@<TRIPOS>MOLECULE
tmp/4pniA00.pdb
 175 164 0 0 0
SMALL
GASTEIGER

@<TRIPOS>ATOM
      1  N        -17.6020   -4.5860  -16.3560 N.3   163  VAL163     -0.1231
      2  CA       -16.7470   -5.0070  -17.4330 C.3   163  VAL163      0.1692
      3  C        -17.4010   -4.5630  -18.7400 C.2   163  VAL163      0.2592
      4  O        -18.5820   -4.8420  -18.9970 O.2   163  VAL163     -0.2718
      5  CB       -16.5890   -6.5290  -17.5080 C.3   163  VAL163      0.0266
      6  CG1      -15.7540   -6.8920  -18.7410 C.3   163  VAL163      0.0020
      7  CG2      -16.0030   -7.0600  -16.1980 C.3   163  VAL163      0.0020
      8  N        -16.6590   -3.7640  -19.5100 N.am  164  LEU164     -0.1966
      9  CA       -17.1710   -3.3040  -20.8040 C.3   164  LEU164      0.1728
     10  C        -16.7560   -4.2530  -21.8920 C.2   164  LEU164      0.2616
     11  O        -17.5270   -4.5080  -22.8330 O.2   164  LEU164     -0.2715
     12  CB       -16.6850   -1.8850  -21.0910 C.3   164  LEU164      0.0311
     13  CG       -16.9670   -0.8860  -19.9560 C.3   164  LEU164      0.0022
     14  CD1      -16.5460    0.5150  -20.3400 C.3   164  LEU164      0.0001
     15  CD2      -18.4620   -0.9040  -19.7070 C.3   164  LEU164      0.0001
     16  N        -15.5360   -4.7750  -21.8300 N.am  165  GLY165     -0.1955
     17  CA       -15.1410   -5.7630  -22.8470 C.3   165  GLY165      0.1869
     18  C        -13.7530   -6.3420  -22.5880 C.2   165  GLY165      0.2309
     19  O        -12.8910   -5.6820  -22.0010 O.2   165  GLY165     -0.2863
     20  N         -6.9950   -6.6670  -26.9960 N.3   169  PHE169     -0.1241
     21  CA        -6.7110   -5.3090  -26.5230 C.3   169  PHE169      0.1605
     22  C         -6.5180   -5.1860  -25.0100 C.2   169  PHE169      0.2264
     23  O         -6.0960   -4.1330  -24.5040 O.2   169  PHE169     -0.2867
     24  CB        -7.8500   -4.3720  -26.9740 C.3   169  PHE169      0.0534
     25  CG        -9.2070   -4.8110  -26.4930 C.ar  169  PHE169     -0.0203
     26  CD1       -9.5660   -4.6440  -25.1630 C.ar  169  PHE169     -0.0042
     27  CD2      -10.1110   -5.4180  -27.3540 C.ar  169  PHE169     -0.0042
     28  CE1      -10.7950   -5.0640  -24.6900 C.ar  169  PHE169     -0.0003
     29  CE2      -11.3380   -5.8260  -26.8900 C.ar  169  PHE169     -0.0003
     30  CZ       -11.6810   -5.6720  -25.5600 C.ar  169  PHE169     -0.0000
     31  N        -11.3190   -3.8150  -20.5570 N.3   172  VAL172     -0.1245
     32  CA       -11.8000   -2.4610  -20.2990 C.3   172  VAL172      0.1561
     33  C        -12.9370   -2.5080  -19.3020 C.2   172  VAL172      0.2260
     34  O        -13.8910   -3.2480  -19.5130 O.2   172  VAL172     -0.2867
     35  CB       -12.2550   -1.7790  -21.6220 C.3   172  VAL172      0.0252
     36  CG1      -12.8060   -0.3670  -21.3230 C.3   172  VAL172      0.0019
     37  CG2      -11.0940   -1.7490  -22.5960 C.3   172  VAL172      0.0019
     38  N        -13.4090    5.1450  -18.0230 N.3   185  ALA185     -0.1245
     39  CA       -13.1540    3.8260  -18.5310 C.3   185  ALA185      0.1562
     40  C        -11.7130    3.5350  -18.1800 C.2   185  ALA185      0.2260
     41  O        -10.8560    4.4370  -18.1700 O.2   185  ALA185     -0.2867
     42  CB       -13.3310    3.8040  -19.9990 C.3   185  ALA185      0.0290
     43  N         -8.6300    0.8270  -19.0650 N.3   187  LYS187     -0.1245
     44  CA        -8.1610   -0.2590  -19.8730 C.3   187  LYS187      0.1561
     45  C         -6.9280   -0.8550  -19.2070 C.2   187  LYS187      0.2260
     46  O         -5.9750   -0.1450  -18.9280 O.2   187  LYS187     -0.2867
     47  CB        -7.7840    0.1710  -21.2700 C.3   187  LYS187      0.0271
     48  CG        -7.3560   -1.0190  -22.1120 C.3   187  LYS187      0.0035
     49  CD        -6.5360   -0.5680  -23.2770 C.3   187  LYS187      0.0206
     50  CE        -7.3430   -0.4100  -24.5200 C.3   187  LYS187      0.1093
     51  NZ        -6.4230    0.1820  -25.5430 N.3   187  LYS187     -0.1314
     52  N        -10.7190   10.4710  -27.0650 N.3   219  VAL219     -0.1245
     53  CA       -10.8200   10.0480  -25.6590 C.3   219  VAL219      0.1561
     54  C         -9.5440   10.6050  -24.9130 C.2   219  VAL219      0.2260
     55  O         -8.4690   10.5610  -25.4980 O.2   219  VAL219     -0.2867
     56  CB       -10.9600    8.4990  -25.5450 C.3   219  VAL219      0.0252
     57  CG1      -12.3310    8.0730  -26.0840 C.3   219  VAL219      0.0019
     58  CG2       -9.8850    7.7670  -26.2870 C.3   219  VAL219      0.0019
     59  N         -9.3890    6.7130  -18.7940 N.3   235  MET235     -0.1182
     60  CA        -9.7280    7.6300  -19.8500 C.3   235  MET235      0.1917
     61  C        -11.2090    7.9290  -19.8900 C.2   235  MET235      0.2635
     62  O        -11.9640    7.3150  -19.1880 O.2   235  MET235     -0.2714
     63  CB        -9.1280    7.1690  -21.1490 C.2   235  MET235      0.0083
     64  CG        -9.3460    5.8680  -21.6240 C.2   235  MET235      0.0282
     65  SD        -8.1330    5.2380  -22.9690 S.3   235  MET235     -0.1125
     66  CE        -8.5620    3.6090  -22.3310 C.3   235  MET235      0.0742
     67  N        -11.6120    8.9640  -20.6340 N.am  236  THR236     -0.1936
     68  CA       -13.0220    9.3640  -20.7740 C.3   236  THR236      0.2028
     69  C        -13.8570    8.1770  -21.0320 C.2   236  THR236      0.2642
     70  O        -13.6160    7.4880  -21.9850 O.2   236  THR236     -0.2714
     71  CB       -13.1830   10.3300  -21.9930 C.3   236  THR236      0.1808
     72  OG1      -12.1460   11.3430  -21.9540 O.3   236  THR236     -0.2208
     73  CG2      -14.5880   10.8380  -22.1020 C.3   236  THR236      0.0379
     74  N        -14.9380    7.9970  -20.2840 N.am  237  ILE237     -0.1963
     75  CA       -15.8780    6.9810  -20.6190 C.3   237  ILE237      0.1727
     76  C        -16.9120    7.4920  -21.5930 C.2   237  ILE237      0.2616
     77  O        -17.3310    8.6560  -21.5380 O.2   237  ILE237     -0.2715
     78  CB       -16.5350    6.3240  -19.3980 C.3   237  ILE237      0.0290
     79  CG1      -17.2450    5.0290  -19.8420 C.3   237  ILE237      0.0022
     80  CG2      -17.4700    7.2910  -18.7020 C.3   237  ILE237      0.0023
     81  CD1      -17.6540    4.1360  -18.6780 C.3   237  ILE237      0.0001
     82  N        -17.2510    6.6670  -22.5740 N.am  238  MET238     -0.1963
     83  CA       -18.1970    7.0480  -23.5700 C.3   238  MET238      0.1736
     84  C        -19.3690    6.0650  -23.4130 C.2   238  MET238      0.2616
     85  O        -19.3430    4.9540  -23.9280 O.2   238  MET238     -0.2715
     86  CB       -17.5490    7.0070  -24.9160 C.3   238  MET238      0.0427
     87  CG       -16.4090    8.0090  -25.1370 C.3   238  MET238      0.0599
     88  SD       -16.8830    9.7600  -25.0750 S.3   238  MET238     -0.1393
     89  CE       -17.7460    9.9230  -26.6140 C.3   238  MET238      0.0692
     90  N        -20.4150    6.4900  -22.7090 N.am  239  ASN239     -0.1972
     91  CA       -21.5030    5.6170  -22.2800 C.3   239  ASN239      0.1688
     92  C        -22.3500    4.9360  -23.2880 C.2   239  ASN239      0.2292
     93  O        -23.0770    4.0110  -22.9400 O.2   239  ASN239     -0.2864
     94  CB       -22.5650    6.5390  -21.6010 C.3   239  ASN239      0.1181
     95  CG       -22.2010    6.8140  -20.2360 C.2   239  ASN239      0.2629
     96  OD1      -21.3410    6.1100  -19.6860 O.2   239  ASN239     -0.2716
     97  ND2      -22.7960    7.8450  -19.6590 N.am  239  ASN239     -0.0877
     98  N        -21.0380    3.5240  -25.9840 N.3   241  GLY241     -0.1210
     99  CA       -20.3210    2.6030  -26.7920 C.3   241  GLY241      0.1956
    100  C        -20.1140    3.0280  -28.2310 C.2   241  GLY241      0.2608
    101  O        -20.3380    4.2160  -28.6150 O.2   241  GLY241     -0.2717
    102  N        -19.6490    2.1090  -29.0640 N.am  242  ASP242     -0.2026
    103  CA       -19.3640    2.4300  -30.4770 C.3   242  ASP242      0.1395
    104  C        -20.5780    2.7040  -31.3440 C.3   242  ASP242      0.2041
    105  O        -21.7260    2.1860  -31.0620 O.3   242  ASP242     -0.2185
    106  CB       -18.5040    1.3650  -31.1060 C.3   242  ASP242      0.1383
    107  CG       -19.2700    0.0620  -31.3260 C.2   242  ASP242      0.3667
    108  OD1      -19.2980   -0.7280  -30.3770 O.co2 242  ASP242     -0.2456
    109  OD2      -19.8110   -0.1060  -32.4510 O.co2 242  ASP242     -0.2456
    110  N        -16.6270    1.0250  -35.4580 N.3   289  GLU289     -0.1245
    111  CA       -16.3040    0.4410  -34.1760 C.3   289  GLU289      0.1567
    112  C        -15.3110    1.1280  -33.2450 C.2   289  GLU289      0.2260
    113  O        -15.3150    0.8180  -32.0680 O.2   289  GLU289     -0.2867
    114  CB       -15.7640   -1.0000  -34.3100 C.3   289  GLU289      0.0388
    115  CG       -16.8280   -1.9600  -34.7380 C.3   289  GLU289      0.1160
    116  CD       -16.2150   -3.2830  -35.2470 C.2   289  GLU289      0.3649
    117  OE1      -16.2770   -4.2310  -34.4340 O.co2 289  GLU289     -0.2457
    118  OE2      -15.6360   -3.3350  -36.3940 O.co2 289  GLU289     -0.2457
    119  N        -16.6820    6.2900  -30.6080 N.3   292  LEU292     -0.1245
    120  CA       -17.5420    6.1350  -29.4640 C.3   292  LEU292      0.1561
    121  C        -18.4930    7.3180  -29.2420 C.2   292  LEU292      0.2260
    122  O        -18.1700    8.4700  -29.5290 O.2   292  LEU292     -0.2867
    123  CB       -16.7530    5.9080  -28.2090 C.3   292  LEU292      0.0270
    124  CG       -15.6820    4.8870  -28.3320 C.3   292  LEU292      0.0019
    125  CD1      -14.9370    4.6850  -27.0130 C.3   292  LEU292      0.0001
    126  CD2      -16.1460    3.5180  -28.8850 C.3   292  LEU292      0.0001
    127  N        -11.4860    6.7560  -30.6680 N.3   302  SER302     -0.1202
    128  CA       -10.8380    5.9100  -29.6600 C.3   302  SER302      0.2020
    129  C         -9.8940    4.8770  -30.3630 C.2   302  SER302      0.2618
    130  O         -9.7740    4.8180  -31.6070 O.2   302  SER302     -0.2717
    131  CB       -11.8790    5.1450  -28.8370 C.3   302  SER302      0.2103
    132  OG       -12.4590    4.0710  -29.5610 O.3   302  SER302     -0.2182
    133  N         -9.2660    4.0450  -29.5520 N.am  303  ASP303     -0.1973
    134  CA        -8.3450    3.0140  -30.0490 C.3   303  ASP303      0.1709
    135  C         -7.1820    3.4790  -30.9450 C.2   303  ASP303      0.2293
    136  O         -7.1090    3.2050  -32.1510 O.2   303  ASP303     -0.2864
    137  CB        -9.0750    1.8880  -30.7720 C.3   303  ASP303      0.1436
    138  CG        -8.3540    0.5480  -30.5210 C.2   303  ASP303      0.3671
    139  OD1       -7.0580    0.5470  -30.4240 O.co2 303  ASP303     -0.2456
    140  OD2       -9.0690   -0.4410  -30.3130 O.co2 303  ASP303     -0.2456
    141  N        -25.6810    3.0980  -22.2390 N.3   445  ARG445     -0.1231
    142  CA       -25.7120    1.6170  -22.2550 C.3   445  ARG445      0.1694
    143  C        -24.8780    1.0150  -21.1210 C.2   445  ARG445      0.2592
    144  O        -24.5470   -0.1670  -21.1790 O.2   445  ARG445     -0.2718
    145  CB       -25.2520    1.0900  -23.6300 C.3   445  ARG445      0.0321
    146  CG       -26.1770    1.4730  -24.7810 C.3   445  ARG445      0.0489
    147  CD       -25.4960    1.2320  -26.1150 C.3   445  ARG445      0.2205
    148  NE       -25.2190   -0.1750  -26.3090 N.pl3 445  ARG445     -0.0865
    149  CZ       -24.2000   -0.6660  -27.0180 C.cat 445  ARG445      0.5346
    150  NH1      -23.3180    0.1160  -27.6860 N.pl3 445  ARG445      0.1354
    151  NH2      -24.0790   -1.9820  -27.0750 N.pl3 445  ARG445      0.1354
    152  N        -24.5570    1.8030  -20.0810 N.am  446  THR446     -0.1953
    153  CA       -23.6980    1.2980  -18.9730 C.3   446  THR446      0.1897
    154  C        -24.3130    0.0940  -18.2370 C.2   446  THR446      0.2313
    155  O        -23.5760   -0.8370  -17.8840 O.2   446  THR446     -0.2863
    156  CB       -23.2740    2.4030  -17.9650 C.3   446  THR446      0.1794
    157  OG1      -22.7780    3.5440  -18.6890 O.3   446  THR446     -0.2208
    158  CG2      -22.1520    1.8980  -17.0100 C.3   446  THR446      0.0378
    159  N        -25.9210   -2.3520  -19.5220 N.3   448  TYR448     -0.1227
    160  CA       -25.5380   -3.5460  -20.3430 C.3   448  TYR448      0.1736
    161  C        -24.0810   -4.0500  -20.1000 C.2   448  TYR448      0.2595
    162  O        -23.6430   -5.0800  -20.6600 O.2   448  TYR448     -0.2718
    163  CB       -25.7560   -3.2630  -21.8510 C.3   448  TYR448      0.0548
    164  CG       -27.2000   -3.0320  -22.1840 C.ar  448  TYR448     -0.0200
    165  CD1      -28.1310   -4.0600  -21.9940 C.ar  448  TYR448     -0.0009
    166  CD2      -27.6570   -1.7820  -22.6400 C.ar  448  TYR448     -0.0009
    167  CE1      -29.4720   -3.8670  -22.2600 C.ar  448  TYR448      0.0417
    168  CE2      -29.0030   -1.5760  -22.9130 C.ar  448  TYR448      0.0417
    169  CZ       -29.9060   -2.6280  -22.7180 C.ar  448  TYR448      0.1957
    170  OH       -31.2470   -2.4840  -22.9670 O.3   448  TYR448     -0.2866
    171  N        -23.3300   -3.3200  -19.2790 N.am  449  ALA449     -0.1980
    172  CA       -22.0660   -3.8220  -18.7790 C.3   449  ALA449      0.1597
    173  C        -22.3310   -4.7920  -17.5900 C.2   449  ALA449      0.2287
    174  O        -23.0840   -4.4710  -16.6630 O.2   449  ALA449     -0.2864
    175  CB       -21.1960   -2.6500  -18.3580 C.3   449  ALA449      0.0319
@<TRIPOS>BOND
     1   118   116   ar
     2   110   111    1
     3   116   115    1
     4   116   117   ar
     5   115   114    1
     6   114   111    1
     7   111   112    1
     8   112   113    2
     9   109   107   ar
    10   136   135    2
    11   130   129    2
    12   104   105    1
    13   104   103    1
    14   107   106    1
    15   107   108   ar
    16   106   103    1
    17   135   134    1
    18   137   138    1
    19   137   134    1
    20   127   128    1
    21   119   120    1
    22   138   139   ar
    23   138   140   ar
    24   103   102    1
    25   129   128    1
    26   129   133   am
    27   134   133    1
    28   128   131    1
    29   132   131    1
    30   122   121    2
    31   120   121    1
    32   120   123    1
    33   102   100   am
    34   126   124    1
    35   101   100    2
    36   124   123    1
    37   124   125    1
    38   100    99    1
    39   150   149    1
    40    27    29   ar
    41    27    25   ar
    42   151   149    1
    43    52    53    1
    44   149   148    2
    45    20    21    1
    46    24    21    1
    47    24    25    1
    48    29    30   ar
    49    99    98    1
    50    89    88    1
    51    21    22    1
    52    25    26   ar
    53   148   147    1
    54    58    56    1
    55   147   146    1
    56    57    56    1
    57    53    56    1
    58    53    54    1
    59    30    28   ar
    60    51    50    1
    61    55    54    2
    62    26    28   ar
    63    87    88    1
    64    87    86    1
    65    22    23    2
    66    86    83    1
    67   146   145    1
    68    50    49    1
    69    85    84    2
    70   145   142    1
    71    83    84    1
    72    83    82    1
    73    84    90   am
    74    92    93    2
    75    92    91    1
    76    49    48    1
    77    65    66    1
    78    65    64    1
    79   170   169    1
    80   168   169   ar
    81   168   166   ar
    82    17    18    1
    83    17    16    1
    84    11    10    2
    85   169   167   ar
    86    90    91    1
    87   166   164   ar
    88    37    35    1
    89    18    19    2
    90    82    76   am
    91    91    94    1
    92   167   165   ar
    93   142   141    1
    94   142   143    1
    95   164   165   ar
    96   164   163    1
    97    48    47    1
    98    73    71    1
    99    71    72    1
   100    71    68    1
   101    70    69    2
   102    10    16   am
   103    10     9    1
   104   163   160    1
   105    64    63    2
   106    35    36    1
   107    35    32    1
   108    94    95    1
   109    76    77    2
   110    76    75    1
   111    47    44    1
   112   144   143    2
   113    63    60    1
   114   143   152   am
   115    12     9    1
   116    12    13    1
   117    69    68    1
   118    69    74   am
   119     9     8    1
   120    68    67    1
   121   162   161    2
   122    67    61   am
   123    75    74    1
   124    75    78    1
   125    31    32    1
   126   160   161    1
   127   160   159    1
   128    14    13    1
   129    32    33    1
   130    95    96    2
   131    95    97   am
   132   161   171   am
   133   152   153    1
   134    42    39    1
   135    13    15    1
   136    61    60    1
   137    61    62    2
   138    44    45    1
   139    44    43    1
   140    60    59    1
   141    79    78    1
   142    79    81    1
   143    34    33    2
   144     8     3   am
   145    78    80    1
   146   171   172    1
   147    45    46    2
   148     4     3    2
   149   153   154    1
   150   153   156    1
   151   172   175    1
   152   172   173    1
   153     6     5    1
   154     3     2    1
   155   157   156    1
   156    39    40    1
   157    39    38    1
   158   154   155    2
   159    40    41    2
   160   156   158    1
   161   173   174    2
   162     5     2    1
   163     5     7    1
   164     2     1    1
