@<TRIPOS>MOLECULE
tmp/4pnkA00.pdb
 171 161 0 0 0
SMALL
GASTEIGER

@<TRIPOS>ATOM
      1  N        -22.6400   27.6020   10.2610 N.3   168  ILE168     -0.1231
      2  CA       -23.2740   28.5960   11.1690 C.3   168  ILE168      0.1692
      3  C        -22.3630   29.1180   12.2700 C.2   168  ILE168      0.2593
      4  O        -22.8140   29.7850   13.1940 O.2   168  ILE168     -0.2718
      5  CB       -24.5810   28.0870   11.7840 C.3   168  ILE168      0.0266
      6  CG1      -24.3210   26.8710   12.6010 C.3   168  ILE168      0.0019
      7  CG2      -25.5740   27.7260   10.7050 C.3   168  ILE168      0.0020
      8  CD1      -25.5860   26.1600   12.9860 C.3   168  ILE168      0.0001
      9  N        -21.0700   28.8750   12.0920 N.am  169  GLY169     -0.1942
     10  CA       -20.0160   29.3160   12.9980 C.3   169  GLY169      0.2014
     11  C        -18.6760   28.8340   12.4500 C.2   169  GLY169      0.2639
     12  O        -18.6170   27.7620   11.8450 O.2   169  GLY169     -0.2714
     13  N        -17.6220   29.6370   12.6330 N.am  170  ARG170     -0.1963
     14  CA       -16.2230   29.2800   12.3140 C.3   170  ARG170      0.1729
     15  C        -15.4260   29.6740   13.5470 C.2   170  ARG170      0.2617
     16  O        -15.7300   30.6860   14.1640 O.2   170  ARG170     -0.2715
     17  CB       -15.6950   30.0560   11.1020 C.3   170  ARG170      0.0348
     18  CG       -16.6850   30.2880    9.9550 C.3   170  ARG170      0.0492
     19  CD       -16.4650   31.6300    9.2430 C.3   170  ARG170      0.2205
     20  NE       -17.1200   31.7110    7.9300 N.pl3 170  ARG170     -0.0865
     21  CZ       -16.7230   31.0640    6.8250 C.cat 170  ARG170      0.5346
     22  NH1      -15.6760   30.2450    6.8400 N.pl3 170  ARG170      0.1354
     23  NH2      -17.3940   31.2170    5.6900 N.pl3 170  ARG170      0.1354
     24  N        -14.4230   28.9020   13.9400 N.am  171  GLY171     -0.1940
     25  CA       -13.6880   29.2690   15.1600 C.3   171  GLY171      0.2014
     26  C        -12.9870   28.1390   15.8790 C.2   171  GLY171      0.2639
     27  O        -13.3820   26.9700   15.7590 O.2   171  GLY171     -0.2714
     28  N        -11.9570   28.4890   16.6460 N.am  172  GLY172     -0.1939
     29  CA       -11.0170   27.4990   17.1350 C.3   172  GLY172      0.2014
     30  C        -10.4570   26.7160   15.9560 C.2   172  GLY172      0.2639
     31  O         -9.8950   27.3060   15.0170 O.2   172  GLY172     -0.2714
     32  N        -10.6720   25.3970   15.9860 N.am  173  PHE173     -0.1959
     33  CA       -10.0270   24.4650   15.0670 C.3   173  PHE173      0.1774
     34  C        -10.9880   23.8590   14.0550 C.2   173  PHE173      0.2659
     35  O        -10.8430   22.7010   13.6550 O.2   173  PHE173     -0.2711
     36  CB        -9.3690   23.3440   15.8640 C.3   173  PHE173      0.0574
     37  CG        -8.4770   23.8230   16.9710 C.ar  173  PHE173     -0.0200
     38  CD1       -7.7180   24.9920   16.8350 C.ar  173  PHE173     -0.0042
     39  CD2       -8.3630   23.0890   18.1470 C.ar  173  PHE173     -0.0042
     40  CE1       -6.8960   25.4350   17.8640 C.ar  173  PHE173     -0.0003
     41  CE2       -7.5250   23.5250   19.1710 C.ar  173  PHE173     -0.0003
     42  CZ        -6.7980   24.7030   19.0320 C.ar  173  PHE173     -0.0000
     43  N        -11.9550   24.6450   13.6100 N.am  174  GLY174     -0.1716
     44  CA       -12.9150   24.1460   12.6440 C.2   174  GLY174      0.1480
     45  C        -14.1520   25.0060   12.4570 C.2   174  GLY174      0.2820
     46  O        -14.1330   26.2410   12.6140 O.2   174  GLY174     -0.2669
     47  N        -15.2390   24.3210   12.1280 N.am  175  GLU175     -0.1929
     48  CA       -16.4350   24.9690   11.6610 C.3   175  GLU175      0.1736
     49  C        -17.6750   24.2430   12.1810 C.2   175  GLU175      0.2616
     50  O        -17.5830   23.0980   12.5930 O.2   175  GLU175     -0.2715
     51  CB       -16.4030   25.0450   10.1320 C.3   175  GLU175      0.0429
     52  CG       -15.9580   23.7580    9.4290 C.3   175  GLU175      0.1163
     53  CD       -14.4330   23.5950    9.1910 C.2   175  GLU175      0.3649
     54  OE1      -13.7070   24.6240    9.0550 O.co2 175  GLU175     -0.2457
     55  OE2      -13.9680   22.4070    9.1140 O.co2 175  GLU175     -0.2457
     56  N        -18.8200   24.9300   12.1800 N.am  176  VAL176     -0.1977
     57  CA       -20.1030   24.3490   12.5750 C.3   176  VAL176      0.1596
     58  C        -21.1770   24.4350   11.5070 C.2   176  VAL176      0.2287
     59  O        -21.3400   25.4310   10.8040 O.2   176  VAL176     -0.2864
     60  CB       -20.6300   25.0460   13.7980 C.3   176  VAL176      0.0276
     61  CG1      -22.0000   24.5450   14.1440 C.3   176  VAL176      0.0022
     62  CG2      -19.7140   24.7590   14.9470 C.3   176  VAL176      0.0022
     63  N        -26.8200   20.7040   15.0760 N.3   189  ALA189     -0.1245
     64  CA       -25.5780   21.3760   14.7120 C.3   189  ALA189      0.1562
     65  C        -24.5010   20.3510   14.6130 C.2   189  ALA189      0.2260
     66  O        -24.5750   19.3460   15.2550 O.2   189  ALA189     -0.2867
     67  CB       -25.2110   22.3640   15.8060 C.3   189  ALA189      0.0290
     68  N        -20.3080   20.1170   14.7140 N.3   191  LYS191     -0.1245
     69  CA       -19.1140   20.8540   14.9780 C.3   191  LYS191      0.1561
     70  C        -18.0220   19.9260   14.6190 C.2   191  LYS191      0.2260
     71  O        -17.8720   18.8710   15.2360 O.2   191  LYS191     -0.2867
     72  CB       -19.0240   21.2460   16.4390 C.3   191  LYS191      0.0271
     73  CG       -17.6860   21.8540   16.8910 C.3   191  LYS191      0.0035
     74  CD       -18.0030   22.9130   17.9390 C.3   191  LYS191      0.0206
     75  CE       -17.2440   22.7330   19.2240 C.3   191  LYS191      0.1093
     76  NZ       -17.6810   23.7600   20.2210 N.3   191  LYS191     -0.1314
     77  N        -13.9930   19.3630   13.8610 N.3   193  LEU193     -0.1245
     78  CA       -12.6430   19.8430   14.1350 C.3   193  LEU193      0.1561
     79  C        -11.5990   19.1420   13.3200 C.2   193  LEU193      0.2260
     80  O        -11.5450   17.9280   13.3300 O.2   193  LEU193     -0.2867
     81  CB       -12.3290   19.6610   15.5990 C.3   193  LEU193      0.0270
     82  CG       -13.4230   20.3170   16.3890 C.3   193  LEU193      0.0019
     83  CD1      -13.1360   20.0960   17.8580 C.3   193  LEU193      0.0001
     84  CD2      -13.4910   21.7970   16.0490 C.3   193  LEU193      0.0001
     85  N        -25.6090   24.0310   25.5710 N.3   226  VAL226     -0.1245
     86  CA       -25.6230   23.3280   24.3130 C.3   226  VAL226      0.1561
     87  C        -25.0970   21.9340   24.5410 C.2   226  VAL226      0.2260
     88  O        -23.9630   21.7430   25.0050 O.2   226  VAL226     -0.2867
     89  CB       -24.7080   23.9990   23.2900 C.3   226  VAL226      0.0252
     90  CG1      -24.8330   23.3270   21.9130 C.3   226  VAL226      0.0019
     91  CG2      -25.0710   25.4650   23.2030 C.3   226  VAL226      0.0019
     92  N        -24.7080   18.2300   18.1130 N.3   242  LEU242     -0.1231
     93  CA       -25.0370   19.1970   19.1200 C.3   242  LEU242      0.1693
     94  C        -26.3940   19.8520   18.8930 C.2   242  LEU242      0.2592
     95  O        -26.8610   19.9850   17.7500 O.2   242  LEU242     -0.2718
     96  CB       -23.9960   20.2930   19.0520 C.3   242  LEU242      0.0284
     97  CG       -22.6240   19.9190   19.5550 C.3   242  LEU242      0.0019
     98  CD1      -21.7050   21.1150   19.6500 C.3   242  LEU242      0.0001
     99  CD2      -22.7670   19.2790   20.9150 C.3   242  LEU242      0.0001
    100  N        -26.9760   20.3070   19.9990 N.am  243  ASP243     -0.1960
    101  CA       -28.1020   21.1770   19.9790 C.3   243  ASP243      0.1840
    102  C        -27.9780   22.3120   19.0080 C.2   243  ASP243      0.2622
    103  O        -27.0530   23.0720   19.0850 O.2   243  ASP243     -0.2715
    104  CB       -28.2850   21.8400   21.3510 C.3   243  ASP243      0.1450
    105  CG       -29.0150   20.9710   22.3630 C.2   243  ASP243      0.3671
    106  OD1      -29.8840   20.1540   21.9580 O.co2 243  ASP243     -0.2456
    107  OD2      -28.7130   21.1460   23.5950 O.co2 243  ASP243     -0.2456
    108  N        -28.9980   22.5040   18.1870 N.am  244  LEU244     -0.1963
    109  CA       -28.9740   23.5350   17.1460 C.3   244  LEU244      0.1728
    110  C        -29.2560   24.9070   17.7000 C.2   244  LEU244      0.2616
    111  O        -30.2910   25.1130   18.3320 O.2   244  LEU244     -0.2715
    112  CB       -30.0130   23.2420   16.0660 C.3   244  LEU244      0.0311
    113  CG       -30.0140   24.2120   14.8620 C.3   244  LEU244      0.0022
    114  CD1      -28.6380   24.3210   14.2470 C.3   244  LEU244      0.0001
    115  CD2      -30.9370   23.7690   13.7370 C.3   244  LEU244      0.0001
    116  N        -28.3890   25.8700   17.4280 N.am  245  MET245     -0.1977
    117  CA       -28.6330   27.2490   17.8500 C.3   245  MET245      0.1605
    118  C        -28.3170   28.1680   16.7270 C.2   245  MET245      0.2287
    119  O        -27.2240   28.6750   16.6920 O.2   245  MET245     -0.2864
    120  CB       -27.6540   27.6420   18.9680 C.3   245  MET245      0.0413
    121  CG       -27.7850   26.8470   20.2420 C.3   245  MET245      0.0598
    122  SD       -29.4590   27.0460   20.7850 S.3   245  MET245     -0.1393
    123  CE       -29.2620   28.5030   21.8360 C.3   245  MET245      0.0692
    124  N        -24.0660   34.6670   18.1640 N.3   249  ASP249     -0.1239
    125  CA       -23.6520   34.8830   19.5740 C.3   249  ASP249      0.1674
    126  C        -23.8130   36.3370   20.0070 C.2   249  ASP249      0.2266
    127  O        -23.8400   37.2720   19.1830 O.2   249  ASP249     -0.2867
    128  CB       -22.2200   34.3910   19.8700 C.3   249  ASP249      0.1410
    129  CG       -21.1560   34.9400   18.8670 C.2   249  ASP249      0.3668
    130  OD1      -21.4370   35.9500   18.1820 O.co2 249  ASP249     -0.2456
    131  OD2      -20.0320   34.3490   18.7760 O.co2 249  ASP249     -0.2456
    132  N        -19.3480   36.0280   23.2850 N.3   292  ALA292     -0.1231
    133  CA       -19.1090   35.1260   22.1730 C.3   292  ALA292      0.1694
    134  C        -19.4470   33.6370   22.4660 C.2   292  ALA292      0.2592
    135  O        -19.6460   32.8740   21.5110 O.2   292  ALA292     -0.2718
    136  CB       -17.6770   35.2590   21.6780 C.3   292  ALA292      0.0304
    137  N        -19.4840   33.2180   23.7360 N.am  293  ASN293     -0.1974
    138  CA       -19.7910   31.8190   24.0830 C.3   293  ASN293      0.1688
    139  C        -21.2280   31.6220   24.6120 C.2   293  ASN293      0.2292
    140  O        -21.5760   30.6050   25.2310 O.2   293  ASN293     -0.2864
    141  CB       -18.7750   31.2520   25.0800 C.3   293  ASN293      0.1181
    142  CG       -17.3670   31.0750   24.4840 C.2   293  ASN293      0.2629
    143  OD1      -17.1700   31.0380   23.2440 O.2   293  ASN293     -0.2716
    144  ND2      -16.3690   30.9430   25.3780 N.am  293  ASN293     -0.0877
    145  N        -25.0970   31.7470   22.9980 N.3   295  LEU295     -0.1245
    146  CA       -25.6980   31.5740   21.6870 C.3   295  LEU295      0.1561
    147  C        -27.2010   31.7730   21.7360 C.2   295  LEU295      0.2260
    148  O        -27.8400   31.4990   22.7690 O.2   295  LEU295     -0.2867
    149  CB       -25.4580   30.1510   21.2380 C.3   295  LEU295      0.0270
    150  CG       -24.0980   29.8540   20.6550 C.3   295  LEU295      0.0019
    151  CD1      -24.0420   28.4060   20.2140 C.3   295  LEU295      0.0001
    152  CD2      -23.8040   30.7400   19.4650 C.3   295  LEU295      0.0001
    153  N        -22.2270   27.8330   25.5220 N.3   305  SER305     -0.1202
    154  CA       -21.6740   26.9850   24.4610 C.3   305  SER305      0.2020
    155  C        -20.1810   26.8540   24.5520 C.2   305  SER305      0.2618
    156  O        -19.5290   27.7790   24.9540 O.2   305  SER305     -0.2717
    157  CB       -21.9750   27.6240   23.0920 C.3   305  SER305      0.2103
    158  OG       -20.9870   27.3040   22.1060 O.3   305  SER305     -0.2182
    159  N        -19.6450   25.7270   24.0950 N.am  306  ASP306     -0.1973
    160  CA       -18.2160   25.5310   23.9330 C.3   306  ASP306      0.1709
    161  C        -17.4660   25.3520   25.2360 C.2   306  ASP306      0.2293
    162  O        -16.9900   26.3100   25.8700 O.2   306  ASP306     -0.2864
    163  CB       -17.5810   26.6290   23.1020 C.3   306  ASP306      0.1436
    164  CG       -16.2420   26.2050   22.5350 C.2   306  ASP306      0.3671
    165  OD1      -15.4750   25.4660   23.2240 O.co2 306  ASP306     -0.2456
    166  OD2      -15.9740   26.5930   21.3800 O.co2 306  ASP306     -0.2456
    167  N        -22.3430   34.4710   12.3380 N.3   449  ALA449     -0.1245
    168  CA       -22.0170   34.7420   13.7350 C.3   449  ALA449      0.1562
    169  C        -22.0000   33.4180   14.5050 C.2   449  ALA449      0.2260
    170  O        -21.4070   33.3220   15.5760 O.2   449  ALA449     -0.2867
    171  CB       -23.0370   35.6930   14.3350 C.3   449  ALA449      0.0290
@<TRIPOS>BOND
     1    23    21    1
     2    21    22    1
     3    21    20    2
     4    20    19    1
     5    54    53   ar
     6    55    53   ar
     7    53    52    1
     8    19    18    1
     9    52    51    1
    10    18    17    1
    11    51    48    1
    12     1     2    1
    13     7     5    1
    14    59    58    2
    15    17    14    1
    16     2     5    1
    17     2     3    1
    18    58    57    1
    19    48    47    1
    20    48    49    1
    21     5     6    1
    22    12    11    2
    23     9     3   am
    24     9    10    1
    25    47    45   am
    26    56    49   am
    27    56    57    1
    28    49    50    2
    29     3     4    2
    30    14    13    1
    31    14    15    1
    32   167   168    1
    33    11    13   am
    34    11    10    1
    35    45    46    2
    36    45    44    1
    37    57    60    1
    38     6     8    1
    39    44    43    2
    40    79    80    2
    41    79    78    1
    42    15    24   am
    43    15    16    2
    44    43    34    1
    45    35    34    2
    46   168   171    1
    47   168   169    1
    48   115   113    1
    49    60    61    1
    50    60    62    1
    51    77    78    1
    52    24    25    1
    53    34    33    1
    54    78    81    1
    55   114   113    1
    56   169   170    2
    57    65    64    1
    58    65    66    2
    59    70    69    1
    60    70    71    2
    61    64    63    1
    62    64    67    1
    63    68    69    1
    64   113   112    1
    65    69    72    1
    66    31    30    2
    67    33    36    1
    68    33    32    1
    69    25    26    1
    70    81    82    1
    71    27    26    2
    72    36    37    1
    73    26    28   am
    74    30    32   am
    75    30    29    1
    76    84    82    1
    77   112   109    1
    78    82    83    1
    79    72    73    1
    80    28    29    1
    81   119   118    2
    82   118   117    1
    83    38    37   ar
    84    38    40   ar
    85    73    74    1
    86    37    39   ar
    87   109   110    1
    88   109   108    1
    89   116   110   am
    90   116   117    1
    91   110   111    2
    92    95    94    2
    93   117   120    1
    94    40    42   ar
    95    74    75    1
    96    92    93    1
    97    39    41   ar
    98   124   125    1
    99   130   129   ar
   100   108   102   am
   101   131   129   ar
   102   129   128    1
   103    94    93    1
   104    94   100   am
   105   120   121    1
   106   102   103    2
   107   102   101    1
   108    42    41   ar
   109    96    93    1
   110    96    97    1
   111   127   126    2
   112    75    76    1
   113   152   150    1
   114    97    98    1
   115    97    99    1
   116   125   128    1
   117   125   126    1
   118   101   100    1
   119   101   104    1
   120   151   150    1
   121   121   122    1
   122   150   149    1
   123   122   123    1
   124   149   146    1
   125   104   105    1
   126   166   164   ar
   127   135   134    2
   128   136   133    1
   129   146   147    1
   130   146   145    1
   131   147   148    2
   132    90    89    1
   133   106   105   ar
   134   158   157    1
   135   133   134    1
   136   133   132    1
   137   105   107   ar
   138   134   137   am
   139   164   163    1
   140   164   165   ar
   141   157   154    1
   142   163   160    1
   143    91    89    1
   144   143   142    2
   145    89    86    1
   146   137   138    1
   147   160   159    1
   148   160   161    1
   149   138   139    1
   150   138   141    1
   151   159   155   am
   152    86    87    1
   153    86    85    1
   154   154   155    1
   155   154   153    1
   156   142   141    1
   157   142   144   am
   158    87    88    2
   159   155   156    2
   160   139   140    2
   161   161   162    2
