@<TRIPOS>MOLECULE
tmp/4pnlC00.pdb
 99 98 0 0 0
SMALL
GASTEIGER

@<TRIPOS>ATOM
      1  N         19.0230   32.3330   33.1350 N.3    79  HIS79      -0.1226
      2  CA        19.8190   33.4990   32.7530 C.3    79  HIS79       0.1752
      3  C         20.2280   34.2370   34.0130 C.2    79  HIS79       0.2597
      4  O         19.3630   34.6290   34.8070 O.2    79  HIS79      -0.2718
      5  CB        19.0870   34.4540   31.7910 C.3    79  HIS79       0.0759
      6  CG        19.9760   35.5630   31.2910 C.ar   79  HIS79       0.0818
      7  ND1       20.8480   35.3640   30.2280 N.ar   79  HIS79      -0.2268
      8  CD2       20.1350   36.8260   31.7530 C.ar   79  HIS79       0.1154
      9  CE1       21.4980   36.5060   30.0730 C.ar   79  HIS79       0.1986
     10  NE2       21.1000   37.4220   30.9600 N.ar   79  HIS79      -0.2212
     11  N         21.5350   34.4030   34.1930 N.am   80  GLY80      -0.1942
     12  CA        22.1070   35.1440   35.3080 C.3    80  GLY80       0.2014
     13  C         22.7080   36.4410   34.8180 C.2    80  GLY80       0.2640
     14  O         23.3840   36.4670   33.7820 O.2    80  GLY80      -0.2714
     15  N         22.4470   37.5350   35.5500 N.am   81  SER81      -0.1936
     16  CA        22.9300   38.8610   35.1830 C.3    81  SER81       0.2040
     17  C         22.7370   39.8420   36.3170 C.2    81  SER81       0.2485
     18  O         21.6860   39.8210   36.9480 O.2    81  SER81      -0.2729
     19  CB        22.1640   39.3780   33.9630 C.3    81  SER81       0.2129
     20  OG        22.3960   40.7520   33.7020 O.3    81  SER81      -0.2179
     21  N         23.6520   40.8070   36.5140 N.am   82  PRO82      -0.2726
     22  CA        23.3700   41.8640   37.5060 C.3    82  PRO82       0.1402
     23  C         22.2180   42.7880   37.0590 C.2    82  PRO82       0.2269
     24  O         21.7410   43.5920   37.8580 O.2    82  PRO82      -0.2865
     25  CB        24.6900   42.6450   37.5870 C.3    82  PRO82       0.0296
     26  CG        25.7130   41.8010   36.8910 C.3    82  PRO82       0.0237
     27  CD        24.9640   41.0040   35.8660 C.3    82  PRO82       0.0939
     28  N         22.6320   34.7810   26.0050 N.3   108  TYR108     -0.1227
     29  CA        23.0390   33.4360   26.4340 C.3   108  TYR108      0.1736
     30  C         22.2380   32.8750   27.5940 C.2   108  TYR108      0.2595
     31  O         22.0400   33.5420   28.6080 O.2   108  TYR108     -0.2718
     32  CB        24.5280   33.4650   26.8200 C.3   108  TYR108      0.0548
     33  CG        25.4870   33.7000   25.6670 C.ar  108  TYR108     -0.0200
     34  CD1       25.5400   34.9310   25.0150 C.ar  108  TYR108     -0.0009
     35  CD2       26.3890   32.7150   25.2740 C.ar  108  TYR108     -0.0009
     36  CE1       26.4380   35.1600   23.9750 C.ar  108  TYR108      0.0417
     37  CE2       27.3010   32.9380   24.2440 C.ar  108  TYR108      0.0417
     38  CZ        27.3110   34.1590   23.5870 C.ar  108  TYR108      0.1957
     39  OH        28.1950   34.3920   22.5590 O.3   108  TYR108     -0.2866
     40  N         21.8440   31.5960   27.4610 N.am  109  PHE109     -0.1962
     41  CA        21.0750   30.9000   28.4830 C.3   109  PHE109      0.1771
     42  C         21.7010   29.5510   28.7790 C.2   109  PHE109      0.2619
     43  O         22.3550   28.9560   27.9120 O.2   109  PHE109     -0.2715
     44  CB        19.6190   30.7000   28.0170 C.3   109  PHE109      0.0574
     45  CG        18.8790   31.9830   27.7410 C.ar  109  PHE109     -0.0200
     46  CD1       18.9660   32.6020   26.4990 C.ar  109  PHE109     -0.0042
     47  CD2       18.1020   32.5780   28.7250 C.ar  109  PHE109     -0.0042
     48  CE1       18.3000   33.8090   26.2540 C.ar  109  PHE109     -0.0003
     49  CE2       17.4420   33.7860   28.4820 C.ar  109  PHE109     -0.0003
     50  CZ        17.5700   34.4050   27.2610 C.ar  109  PHE109     -0.0000
     51  N         21.4660   29.0470   29.9930 N.am  110  ALA110     -0.1977
     52  CA        21.9540   27.7350   30.3970 C.3   110  ALA110      0.1597
     53  C         20.8050   26.8260   30.8210 C.2   110  ALA110      0.2287
     54  O         19.7620   27.3050   31.2870 O.2   110  ALA110     -0.2864
     55  CB        22.9480   27.8730   31.5430 C.3   110  ALA110      0.0319
     56  N         25.4330   27.1210   36.1490 N.3   115  LYS115     -0.1231
     57  CA        26.1770   27.8110   35.0950 C.3   115  LYS115      0.1693
     58  C         25.7290   29.2740   35.0500 C.2   115  LYS115      0.2592
     59  O         26.5720   30.1640   35.0360 O.2   115  LYS115     -0.2718
     60  CB        26.0030   27.1080   33.7430 C.3   115  LYS115      0.0285
     61  CG        26.7950   27.7510   32.6120 C.3   115  LYS115      0.0035
     62  CD        26.9150   26.8190   31.4290 C.3   115  LYS115      0.0206
     63  CE        27.5670   27.5030   30.2550 C.3   115  LYS115      0.1093
     64  NZ        27.8110   26.5420   29.1310 N.3   115  LYS115     -0.1314
     65  N         24.4110   29.5280   35.1060 N.am  116  SER116     -0.1952
     66  CA        23.8810   30.8950   35.1300 C.3   116  SER116      0.1924
     67  C         24.2500   31.6210   36.4230 C.2   116  SER116      0.2314
     68  O         24.4850   32.8320   36.3910 O.2   116  SER116     -0.2863
     69  CB        22.3740   30.8860   34.9350 C.3   116  SER116      0.2116
     70  OG        22.0860   30.6060   33.5780 O.3   116  SER116     -0.2180
     71  N         27.1670   34.0620   36.5770 N.3   119  TYR119     -0.1241
     72  CA        27.0250   35.3580   35.9130 C.3   119  TYR119      0.1605
     73  C         26.1690   36.3740   36.6940 C.2   119  TYR119      0.2264
     74  O         26.0200   37.5130   36.2480 O.2   119  TYR119     -0.2867
     75  CB        26.4210   35.1450   34.5040 C.3   119  TYR119      0.0534
     76  CG        27.3690   34.4270   33.5660 C.ar  119  TYR119     -0.0201
     77  CD1       28.2800   35.1360   32.7890 C.ar  119  TYR119     -0.0009
     78  CD2       27.4270   33.0380   33.5330 C.ar  119  TYR119     -0.0009
     79  CE1       29.1870   34.4800   31.9560 C.ar  119  TYR119      0.0417
     80  CE2       28.3350   32.3690   32.7130 C.ar  119  TYR119      0.0417
     81  CZ        29.2150   33.0950   31.9270 C.ar  119  TYR119      0.1957
     82  OH        30.0950   32.4360   31.1030 O.3   119  TYR119     -0.2866
     83  N         30.5940   38.9240   34.6610 N.3   123  ILE123     -0.1245
     84  CA        31.4620   37.9730   33.9530 C.3   123  ILE123      0.1561
     85  C         32.4920   37.3900   34.9280 C.2   123  ILE123      0.2260
     86  O         33.1670   38.1400   35.6430 O.2   123  ILE123     -0.2867
     87  CB        32.1450   38.6050   32.6980 C.3   123  ILE123      0.0252
     88  CG1       31.1650   39.4750   31.8350 C.3   123  ILE123      0.0019
     89  CG2       32.8730   37.5410   31.8590 C.3   123  ILE123      0.0019
     90  CD1       29.8230   38.7890   31.2830 C.3   123  ILE123      0.0001
     91  N         24.9720   25.4440   26.2780 N.3   186  GLU186     -0.1245
     92  CA        24.4660   26.8120   26.3620 C.3   186  GLU186      0.1567
     93  C         23.6510   27.0920   25.1220 C.2   186  GLU186      0.2260
     94  O         23.7900   26.4040   24.1060 O.2   186  GLU186     -0.2867
     95  CB        25.5220   27.8830   26.6310 C.3   186  GLU186      0.0388
     96  CG        26.6130   28.0170   25.5880 C.3   186  GLU186      0.1160
     97  CD        27.7750   28.8390   26.1090 C.2   186  GLU186      0.3649
     98  OE1       28.3100   28.5120   27.1940 O.co2 186  GLU186     -0.2457
     99  OE2       28.1420   29.8270   25.4340 O.co2 186  GLU186     -0.2457
@<TRIPOS>BOND
     1    39    38    1
     2    38    36   ar
     3    38    37   ar
     4    36    34   ar
     5    94    93    2
     6    37    35   ar
     7    34    33   ar
     8    93    92    1
     9    35    33   ar
    10    99    97   ar
    11    96    97    1
    12    96    95    1
    13    33    32    1
    14    28    29    1
    15    97    98   ar
    16    48    46   ar
    17    48    50   ar
    18    91    92    1
    19    92    95    1
    20    29    32    1
    21    29    30    1
    22    46    45   ar
    23    50    49   ar
    24    40    30   am
    25    40    41    1
    26    30    31    2
    27    45    44    1
    28    45    47   ar
    29    43    42    2
    30    44    41    1
    31    49    47   ar
    32    41    42    1
    33    42    51   am
    34    64    63    1
    35    51    52    1
    36     9     7   ar
    37     9    10   ar
    38     7     6   ar
    39    63    62    1
    40    52    53    1
    41    52    55    1
    42    53    54    2
    43    10     8   ar
    44    82    81    1
    45    90    88    1
    46     6     8   ar
    47     6     5    1
    48    62    61    1
    49     5     2    1
    50    88    87    1
    51    89    87    1
    52    81    79   ar
    53    81    80   ar
    54    79    77   ar
    55    61    60    1
    56    87    84    1
    57    80    78   ar
    58     2     1    1
    59     2     3    1
    60    77    76   ar
    61    78    76   ar
    62    76    75    1
    63    70    69    1
    64    20    19    1
    65    60    57    1
    66    14    13    2
    67    84    83    1
    68    84    85    1
    69    19    16    1
    70     3    11   am
    71     3     4    2
    72    11    12    1
    73    75    72    1
    74    13    12    1
    75    13    15   am
    76    85    86    2
    77    69    66    1
    78    59    58    2
    79    58    57    1
    80    58    65   am
    81    57    56    1
    82    65    66    1
    83    66    67    1
    84    16    15    1
    85    16    17    1
    86    27    21    1
    87    27    26    1
    88    72    71    1
    89    72    73    1
    90    74    73    2
    91    17    21   am
    92    17    18    2
    93    68    67    2
    94    21    22    1
    95    26    25    1
    96    23    22    1
    97    23    24    2
    98    22    25    1
