@<TRIPOS>MOLECULE
tmp/4pnmD00.pdb
 114 114 0 0 0
SMALL
GASTEIGER

@<TRIPOS>ATOM
      1  N         17.9670   11.9860    4.1580 N.3    67  PHE67      -0.1227
      2  CA        18.1630   10.9940    3.1100 C.3    67  PHE67       0.1736
      3  C         18.7740    9.7020    3.6580 C.2    67  PHE67       0.2595
      4  O         19.4590    9.7160    4.6840 O.2    67  PHE67      -0.2718
      5  CB        19.0430   11.5670    1.9820 C.3    67  PHE67       0.0547
      6  CG        18.4530   12.7580    1.2650 C.ar   67  PHE67      -0.0202
      7  CD1       17.5470   12.5860    0.2260 C.ar   67  PHE67      -0.0042
      8  CD2       18.8040   14.0510    1.6270 C.ar   67  PHE67      -0.0042
      9  CE1       17.0010   13.6880   -0.4370 C.ar   67  PHE67      -0.0003
     10  CE2       18.2520   15.1530    0.9680 C.ar   67  PHE67      -0.0003
     11  CZ        17.3530   14.9630   -0.0590 C.ar   67  PHE67      -0.0000
     12  N         18.5170    8.5840    2.9640 N.am   68  HIS68      -0.1961
     13  CA        19.0650    7.2740    3.3050 C.3    68  HIS68       0.1787
     14  C         19.2180    6.4390    2.0420 C.2    68  HIS68       0.2621
     15  O         18.2280    6.1160    1.3810 O.2    68  HIS68      -0.2715
     16  CB        18.2110    6.5320    4.3550 C.3    68  HIS68       0.0785
     17  CG        18.7890    5.2070    4.7660 C.ar   68  HIS68       0.0821
     18  ND1       19.8110    5.1220    5.6960 N.ar   68  HIS68      -0.2267
     19  CD2       18.4790    3.9580    4.3450 C.ar   68  HIS68       0.1154
     20  CE1       20.0800    3.8320    5.8190 C.ar   68  HIS68       0.1986
     21  NE2       19.3030    3.0920    5.0270 N.ar   68  HIS68      -0.2212
     22  N         20.4660    6.1240    1.7200 N.am   69  GLY69      -0.1940
     23  CA        20.8300    5.2910    0.5830 C.3    69  GLY69       0.2014
     24  C         21.1530    3.8930    1.0550 C.2    69  GLY69       0.2640
     25  O         21.8620    3.7290    2.0540 O.2    69  GLY69      -0.2714
     26  N         20.6060    2.8760    0.3640 N.am   70  SER70      -0.1936
     27  CA        20.7790    1.4660    0.7270 C.3    70  SER70       0.2040
     28  C         20.4030    0.5190   -0.4210 C.2    70  SER70       0.2485
     29  O         19.4330    0.7970   -1.1290 O.2    70  SER70      -0.2729
     30  CB        19.9130    1.1330    1.9470 C.3    70  SER70       0.2129
     31  OG        19.9690   -0.2340    2.3200 O.3    70  SER70      -0.2179
     32  N         21.0710   -0.6540   -0.5660 N.am   71  PRO71      -0.2726
     33  CA        20.6320   -1.6180   -1.5940 C.3    71  PRO71       0.1402
     34  C         19.3110   -2.3020   -1.2120 C.2    71  PRO71       0.2269
     35  O         18.6090   -2.8150   -2.0850 O.2    71  PRO71      -0.2865
     36  CB        21.7770   -2.6440   -1.6380 C.3    71  PRO71       0.0296
     37  CG        22.8980   -2.0500   -0.8220 C.3    71  PRO71       0.0237
     38  CD        22.2330   -1.1760    0.1810 C.3    71  PRO71       0.0939
     39  N         22.0740    5.0980    9.8820 N.3    97  TYR97      -0.1227
     40  CA        22.7010    6.3450    9.4680 C.3    97  TYR97       0.1736
     41  C         21.9240    7.0780    8.3850 C.2    97  TYR97       0.2595
     42  O         21.4990    6.4760    7.3990 O.2    97  TYR97      -0.2718
     43  CB        24.1290    6.0570    8.9730 C.3    97  TYR97       0.0548
     44  CG        25.0970    5.5580   10.0260 C.ar   97  TYR97      -0.0200
     45  CD1       24.9790    4.2780   10.5620 C.ar   97  TYR97      -0.0009
     46  CD2       26.2000    6.3180   10.4000 C.ar   97  TYR97      -0.0009
     47  CE1       25.8810    3.8040   11.5130 C.ar   97  TYR97       0.0417
     48  CE2       27.1180    5.8510   11.3400 C.ar   97  TYR97       0.0417
     49  CZ        26.9490    4.5960   11.9030 C.ar   97  TYR97       0.1957
     50  OH        27.8530    4.1320   12.8280 O.3    97  TYR97      -0.2866
     51  N         21.7870    8.3990    8.5660 N.am   98  PHE98      -0.1962
     52  CA        21.0870    9.3120    7.6660 C.3    98  PHE98       0.1771
     53  C         21.9410   10.5380    7.3590 C.2    98  PHE98       0.2619
     54  O         22.7840   10.9230    8.1700 O.2    98  PHE98      -0.2715
     55  CB        19.7470    9.7550    8.2800 C.3    98  PHE98       0.0574
     56  CG        18.7610    8.6330    8.4910 C.ar   98  PHE98      -0.0200
     57  CD1       18.7600    7.8990    9.6720 C.ar   98  PHE98      -0.0042
     58  CD2       17.8260    8.3150    7.5140 C.ar   98  PHE98      -0.0042
     59  CE1       17.8560    6.8510    9.8590 C.ar   98  PHE98      -0.0003
     60  CE2       16.9190    7.2710    7.7070 C.ar   98  PHE98      -0.0003
     61  CZ        16.9540    6.5340    8.8690 C.ar   98  PHE98      -0.0000
     62  N         21.6970   11.1630    6.1970 N.am   99  ALA99      -0.1977
     63  CA        22.4080   12.3580    5.7550 C.3    99  ALA99       0.1597
     64  C         21.4390   13.4690    5.3880 C.2    99  ALA99       0.2287
     65  O         20.3240   13.1990    4.9310 O.2    99  ALA99      -0.2864
     66  CB        23.2870   12.0240    4.5580 C.3    99  ALA99       0.0319
     67  N         25.6530   12.3910   -0.1650 N.3   104  LYS104     -0.1231
     68  CA        26.2920   11.4960    0.8050 C.3   104  LYS104      0.1693
     69  C         25.5610   10.1530    0.8300 C.2   104  LYS104      0.2592
     70  O         26.2160    9.1120    0.8140 O.2   104  LYS104     -0.2718
     71  CB        26.3510   12.1140    2.2140 C.3   104  LYS104      0.0285
     72  CG        27.2740   11.3370    3.1580 C.3   104  LYS104      0.0035
     73  CD        27.5460   12.0660    4.4500 C.3   104  LYS104      0.0206
     74  CE        28.4040   11.2300    5.3690 C.3   104  LYS104      0.1093
     75  NZ        28.7730   11.9700    6.6060 N.3   104  LYS104     -0.1314
     76  N         24.2110   10.1780    0.8340 N.am  105  SER105     -0.1952
     77  CA        23.3800    8.9730    0.8380 C.3   105  SER105      0.1924
     78  C         23.4980    8.2160   -0.4830 C.2   105  SER105      0.2314
     79  O         23.3740    6.9900   -0.4910 O.2   105  SER105     -0.2863
     80  CB        21.9260    9.3220    1.1280 C.3   105  SER105      0.2116
     81  OG        21.7860    9.6730    2.4940 O.3   105  SER105     -0.2180
     82  N         25.8940    5.2330   -0.8160 N.3   108  TYR108     -0.1241
     83  CA        25.5470    3.9680   -0.1600 C.3   108  TYR108      0.1605
     84  C         24.4530    3.1680   -0.8890 C.2   108  TYR108      0.2264
     85  O         24.1540    2.0430   -0.4800 O.2   108  TYR108     -0.2867
     86  CB        25.1240    4.2350    1.2940 C.3   108  TYR108      0.0534
     87  CG        26.2280    4.8310    2.1410 C.ar  108  TYR108     -0.0201
     88  CD1       27.1050    4.0160    2.8530 C.ar  108  TYR108     -0.0009
     89  CD2       26.3850    6.2100    2.2500 C.ar  108  TYR108     -0.0009
     90  CE1       28.1280    4.5590    3.6300 C.ar  108  TYR108      0.0417
     91  CE2       27.4110    6.7640    3.0140 C.ar  108  TYR108      0.0417
     92  CZ        28.2780    5.9340    3.7060 C.ar  108  TYR108      0.1957
     93  OH        29.2810    6.4770    4.4710 O.3   108  TYR108     -0.2866
     94  N         25.7700    0.0230   -1.8280 N.3   111  GLY111     -0.1210
     95  CA        26.4980   -0.5230   -0.6850 C.3   111  GLY111      0.1956
     96  C         27.5010    0.4390   -0.0840 C.2   111  GLY111      0.2611
     97  O         27.6670    1.5560   -0.5830 O.2   111  GLY111     -0.2717
     98  N         28.1870    0.0000    0.9950 N.am  112  ILE112     -0.1979
     99  CA        29.2000    0.7710    1.7300 C.3   112  ILE112      0.1595
    100  C         30.3310    1.1640    0.7690 C.2   112  ILE112      0.2287
    101  O         30.9580    0.2940    0.1620 O.2   112  ILE112     -0.2864
    102  CB        29.7260   -0.0200    2.9710 C.3   112  ILE112      0.0276
    103  CG1       28.5820   -0.5270    3.9070 C.3   112  ILE112      0.0022
    104  CG2       30.8160    0.7450    3.7400 C.3   112  ILE112      0.0022
    105  CD1       27.6430    0.5470    4.6090 C.3   112  ILE112      0.0001
    106  N         26.2470   13.7430    9.4500 N.3   175  GLU175     -0.1245
    107  CA        25.4760   12.4940    9.4230 C.3   175  GLU175      0.1567
    108  C         24.7280   12.3230   10.7450 C.2   175  GLU175      0.2260
    109  O         25.1920   12.8000   11.7790 O.2   175  GLU175     -0.2867
    110  CB        26.3220   11.2560    9.0700 C.3   175  GLU175      0.0388
    111  CG        27.5080   10.9580    9.9690 C.3   175  GLU175      0.1160
    112  CD        28.2820    9.7250    9.5430 C.2   175  GLU175      0.3649
    113  OE1       28.3600    8.7690   10.3460 O.co2 175  GLU175     -0.2457
    114  OE2       28.7920    9.7010    8.3990 O.co2 175  GLU175     -0.2457
@<TRIPOS>BOND
     1    35    34    2
     2    94    95    1
     3    36    33    1
     4    36    37    1
     5    33    34    1
     6    33    32    1
     7    29    28    2
     8    84    85    2
     9    84    83    1
    10    37    38    1
    11    82    83    1
    12    95    96    1
    13    97    96    2
    14    32    28   am
    15    32    38    1
    16    79    78    2
    17    78    77    1
    18     9    11   ar
    19     9     7   ar
    20    28    27    1
    21    67    68    1
    22    83    86    1
    23    96    98   am
    24    11    10   ar
    25   101   100    2
    26     7     6   ar
    27    26    27    1
    28    26    24   am
    29    23    24    1
    30    23    22    1
    31    27    30    1
    32   100    99    1
    33    68    69    1
    34    68    71    1
    35    70    69    2
    36    69    76   am
    37    76    77    1
    38    77    80    1
    39    10     8   ar
    40    98    99    1
    41    24    25    2
    42    80    81    1
    43     6     8   ar
    44     6     5    1
    45    86    87    1
    46    15    14    2
    47    22    14   am
    48    99   102    1
    49    30    31    1
    50     5     2    1
    51    14    13    1
    52    87    89   ar
    53    87    88   ar
    54    71    72    1
    55    89    91   ar
    56    88    90   ar
    57    12    13    1
    58    12     3   am
    59   102   104    1
    60   102   103    1
    61    91    92   ar
    62     2     3    1
    63     2     1    1
    64    72    73    1
    65    13    16    1
    66    90    92   ar
    67     3     4    2
    68    92    93    1
    69   103   105    1
    70    19    17   ar
    71    19    21   ar
    72    16    17    1
    73    73    74    1
    74    66    63    1
    75    17    18   ar
    76    65    64    2
    77    21    20   ar
    78    74    75    1
    79    64    63    1
    80    18    20   ar
    81    63    62    1
    82    62    53   am
    83    53    52    1
    84    53    54    2
    85    42    41    2
    86    58    60   ar
    87    58    56   ar
    88    52    55    1
    89    52    51    1
    90    60    61   ar
    91    55    56    1
    92    41    51   am
    93    41    40    1
    94   114   112   ar
    95    56    57   ar
    96    61    59   ar
    97    43    40    1
    98    43    44    1
    99   110   107    1
   100   110   111    1
   101   107   106    1
   102   107   108    1
   103    40    39    1
   104   112   111    1
   105   112   113   ar
   106    57    59   ar
   107    44    46   ar
   108    44    45   ar
   109    46    48   ar
   110    45    47   ar
   111   108   109    2
   112    48    49   ar
   113    47    49   ar
   114    49    50    1
