@<TRIPOS>MOLECULE
tmp/4pnnC00.pdb
 97 96 0 0 0
SMALL
GASTEIGER

@<TRIPOS>ATOM
      1  N         17.7670   29.0300   31.9730 N.3    78  PHE78      -0.1227
      2  CA        18.2190   30.0410   32.9320 C.3    78  PHE78       0.1736
      3  C         19.0380   31.1400   32.2760 C.2    78  PHE78       0.2595
      4  O         19.7540   30.9160   31.2790 O.2    78  PHE78      -0.2718
      5  CB        19.0790   29.3770   34.0350 C.3    78  PHE78       0.0547
      6  CG        18.3070   28.3390   34.8190 C.ar   78  PHE78      -0.0202
      7  CD1       17.4860   28.7160   35.8820 C.ar   78  PHE78      -0.0042
      8  CD2       18.3900   26.9890   34.4810 C.ar   78  PHE78      -0.0042
      9  CE1       16.7540   27.7610   36.5870 C.ar   78  PHE78      -0.0003
     10  CE2       17.6660   26.0220   35.2030 C.ar   78  PHE78      -0.0003
     11  CZ        16.8530   26.4160   36.2480 C.ar   78  PHE78      -0.0000
     12  N         18.9920   32.3150   32.9020 N.am   79  HIS79      -0.1961
     13  CA        19.7870   33.4550   32.4890 C.3    79  HIS79       0.1787
     14  C         20.2200   34.1890   33.7550 C.2    79  HIS79       0.2620
     15  O         19.3790   34.5450   34.5930 O.2    79  HIS79      -0.2715
     16  CB        18.9860   34.4160   31.5830 C.3    79  HIS79       0.0785
     17  CG        19.8170   35.5710   31.0800 C.ar   79  HIS79       0.0821
     18  ND1       20.7040   35.4240   30.0090 N.ar   79  HIS79      -0.2267
     19  CD2       19.9110   36.8330   31.5580 C.ar   79  HIS79       0.1154
     20  CE1       21.2740   36.6070   29.8440 C.ar   79  HIS79       0.1986
     21  NE2       20.8350   37.4960   30.7550 N.ar   79  HIS79      -0.2212
     22  N         21.5230   34.3960   33.8770 N.am   80  GLY80      -0.1954
     23  CA        22.1190   35.1450   34.9820 C.3    80  GLY80       0.1869
     24  C         22.6580   36.4600   34.4740 C.2    80  GLY80       0.2309
     25  O         23.3010   36.5140   33.4160 O.2    80  GLY80      -0.2863
     26  N         22.6660   34.8290   25.8720 N.3   108  TYR108     -0.1227
     27  CA        23.0790   33.4940   26.2920 C.3   108  TYR108      0.1736
     28  C         22.2620   32.9430   27.4420 C.2   108  TYR108      0.2595
     29  O         22.0220   33.6210   28.4560 O.2   108  TYR108     -0.2718
     30  CB        24.5720   33.5460   26.6810 C.3   108  TYR108      0.0548
     31  CG        25.5380   33.7880   25.5310 C.ar  108  TYR108     -0.0200
     32  CD1       25.5990   35.0270   24.8870 C.ar  108  TYR108     -0.0009
     33  CD2       26.4240   32.7950   25.1190 C.ar  108  TYR108     -0.0009
     34  CE1       26.5020   35.2610   23.8390 C.ar  108  TYR108      0.0417
     35  CE2       27.3090   33.0070   24.0600 C.ar  108  TYR108      0.0417
     36  CZ        27.3300   34.2380   23.4090 C.ar  108  TYR108      0.1957
     37  OH        28.2050   34.4540   22.3770 O.3   108  TYR108     -0.2866
     38  N         21.9140   31.6500   27.3110 N.am  109  PHE109     -0.1962
     39  CA        21.1240   30.9340   28.3280 C.3   109  PHE109      0.1771
     40  C         21.7750   29.5920   28.6190 C.2   109  PHE109      0.2619
     41  O         22.5390   29.0790   27.8070 O.2   109  PHE109     -0.2715
     42  CB        19.6700   30.7170   27.8180 C.3   109  PHE109      0.0574
     43  CG        18.9330   32.0040   27.5390 C.ar  109  PHE109     -0.0200
     44  CD1       19.0690   32.6530   26.3080 C.ar  109  PHE109     -0.0042
     45  CD2       18.1000   32.5670   28.5000 C.ar  109  PHE109     -0.0042
     46  CE1       18.4100   33.8720   26.0680 C.ar  109  PHE109     -0.0003
     47  CE2       17.4370   33.7750   28.2570 C.ar  109  PHE109     -0.0003
     48  CZ        17.6250   34.4390   27.0590 C.ar  109  PHE109     -0.0000
     49  N         21.4530   29.0160   29.7770 N.am  110  ALA110     -0.1977
     50  CA        21.9580   27.7160   30.1760 C.3   110  ALA110      0.1597
     51  C         20.8180   26.7970   30.5990 C.2   110  ALA110      0.2287
     52  O         19.7670   27.2420   31.1030 O.2   110  ALA110     -0.2864
     53  CB        22.9830   27.8850   31.3350 C.3   110  ALA110      0.0319
     54  N         25.4680   27.2010   35.9210 N.3   115  LYS115     -0.1231
     55  CA        26.2140   27.8930   34.8880 C.3   115  LYS115      0.1693
     56  C         25.7390   29.3550   34.8570 C.2   115  LYS115      0.2592
     57  O         26.5620   30.2640   34.8610 O.2   115  LYS115     -0.2718
     58  CB        26.0570   27.1910   33.5190 C.3   115  LYS115      0.0285
     59  CG        26.8330   27.8880   32.3920 C.3   115  LYS115      0.0035
     60  CD        26.9410   26.9530   31.1920 C.3   115  LYS115      0.0206
     61  CE        27.7580   27.6240   30.0930 C.3   115  LYS115      0.1093
     62  NZ        27.9340   26.6780   28.9230 N.3   115  LYS115     -0.1314
     63  N         24.4130   29.5740   34.8710 N.am  116  SER116     -0.1952
     64  CA        23.8860   30.9320   34.8850 C.3   116  SER116      0.1924
     65  C         24.2550   31.6700   36.1550 C.2   116  SER116      0.2314
     66  O         24.4570   32.8860   36.1050 O.2   116  SER116     -0.2863
     67  CB        22.3790   30.9340   34.6900 C.3   116  SER116      0.2116
     68  OG        22.1040   30.4980   33.3730 O.3   116  SER116     -0.2180
     69  N         27.1740   34.1700   36.2620 N.3   119  TYR119     -0.1241
     70  CA        27.0290   35.4690   35.6110 C.3   119  TYR119      0.1605
     71  C         26.2230   36.4820   36.4080 C.2   119  TYR119      0.2264
     72  O         26.0970   37.6330   35.9870 O.2   119  TYR119     -0.2867
     73  CB        26.4150   35.2750   34.2190 C.3   119  TYR119      0.0534
     74  CG        27.3740   34.5690   33.2970 C.ar  119  TYR119     -0.0201
     75  CD1       28.3330   35.2830   32.5760 C.ar  119  TYR119     -0.0009
     76  CD2       27.3590   33.1820   33.1750 C.ar  119  TYR119     -0.0009
     77  CE1       29.2540   34.6350   31.7590 C.ar  119  TYR119      0.0417
     78  CE2       28.2900   32.5210   32.3690 C.ar  119  TYR119      0.0417
     79  CZ        29.2170   33.2560   31.6480 C.ar  119  TYR119      0.1957
     80  OH        30.0940   32.6230   30.8090 O.3   119  TYR119     -0.2866
     81  N         30.6400   39.1000   34.4350 N.3   123  ILE123     -0.1245
     82  CA        31.4450   38.1200   33.7080 C.3   123  ILE123      0.1561
     83  C         32.4800   37.5190   34.6520 C.2   123  ILE123      0.2260
     84  O         33.1170   38.2550   35.4040 O.2   123  ILE123     -0.2867
     85  CB        32.0850   38.7310   32.4130 C.3   123  ILE123      0.0252
     86  CG1       31.0380   39.4410   31.5000 C.3   123  ILE123      0.0019
     87  CG2       32.9050   37.6870   31.6380 C.3   123  ILE123      0.0019
     88  CD1       29.7080   38.6310   30.9690 C.3   123  ILE123      0.0001
     89  N         25.1250   25.5630   26.1580 N.3   186  GLU186     -0.1245
     90  CA        24.6210   26.9260   26.2270 C.3   186  GLU186      0.1567
     91  C         23.8100   27.1700   24.9760 C.2   186  GLU186      0.2260
     92  O         24.0140   26.4970   23.9650 O.2   186  GLU186     -0.2867
     93  CB        25.6690   28.0110   26.4780 C.3   186  GLU186      0.0388
     94  CG        26.7700   28.1040   25.4170 C.3   186  GLU186      0.1160
     95  CD        27.9610   28.9090   25.9060 C.2   186  GLU186      0.3649
     96  OE1       28.4850   28.6070   27.0040 O.co2 186  GLU186     -0.2457
     97  OE2       28.3090   29.9000   25.2310 O.co2 186  GLU186     -0.2457
@<TRIPOS>BOND
     1    37    36    1
     2    36    34   ar
     3    36    35   ar
     4    34    32   ar
     5    92    91    2
     6    35    33   ar
     7    32    31   ar
     8    91    90    1
     9    33    31   ar
    10    97    95   ar
    11    94    95    1
    12    94    93    1
    13    31    30    1
    14    26    27    1
    15    95    96   ar
    16    46    44   ar
    17    46    48   ar
    18    89    90    1
    19    90    93    1
    20    27    30    1
    21    27    28    1
    22    44    43   ar
    23    48    47   ar
    24    38    28   am
    25    38    39    1
    26    28    29    2
    27    43    42    1
    28    43    45   ar
    29    41    40    2
    30    42    39    1
    31    47    45   ar
    32    39    40    1
    33    40    49   am
    34    62    61    1
    35    49    50    1
    36    20    18   ar
    37    20    21   ar
    38    18    17   ar
    39    61    60    1
    40    50    51    1
    41    50    53    1
    42    51    52    2
    43    21    19   ar
    44    80    79    1
    45    88    86    1
    46    17    19   ar
    47    17    16    1
    48    60    59    1
    49     4     3    2
    50    86    85    1
    51    16    13    1
    52    87    85    1
    53    79    77   ar
    54    79    78   ar
    55    77    75   ar
    56     1     2    1
    57     3    12   am
    58     3     2    1
    59    78    76   ar
    60    59    58    1
    61    85    82    1
    62    13    12    1
    63    13    14    1
    64    75    74   ar
    65     2     5    1
    66    76    74   ar
    67    74    73    1
    68    68    67    1
    69    25    24    2
    70    58    55    1
    71    82    81    1
    72    82    83    1
    73    14    22   am
    74    14    15    2
    75    22    23    1
    76     5     6    1
    77    73    70    1
    78    24    23    1
    79     8     6   ar
    80     8    10   ar
    81    83    84    2
    82    67    64    1
    83     6     7   ar
    84    56    57    2
    85    56    63   am
    86    56    55    1
    87    63    64    1
    88    64    65    1
    89    55    54    1
    90    10    11   ar
    91    70    69    1
    92    70    71    1
    93     7     9   ar
    94    72    71    2
    95    66    65    2
    96    11     9   ar
