@<TRIPOS>MOLECULE
tmp/4pnsB00.pdb
 109 107 0 0 0
SMALL
GASTEIGER

@<TRIPOS>ATOM
      1  N         15.4740  -12.2070   37.5660 N.3    74  PHE74      -0.1227
      2  CA        16.1110  -11.2690   38.4860 C.3    74  PHE74       0.1736
      3  C         17.0360  -10.3050   37.7740 C.2    74  PHE74       0.2595
      4  O         17.5880  -10.6300   36.7150 O.2    74  PHE74      -0.2718
      5  CB        16.9340  -12.0530   39.5650 C.3    74  PHE74       0.0547
      6  CG        16.0340  -12.9300   40.4290 C.ar   74  PHE74      -0.0202
      7  CD1       15.3550  -12.3990   41.5170 C.ar   74  PHE74      -0.0042
      8  CD2       15.9050  -14.2900   40.1670 C.ar   74  PHE74      -0.0042
      9  CE1       14.5430  -13.2140   42.3290 C.ar   74  PHE74      -0.0003
     10  CE2       15.0810  -15.1030   40.9560 C.ar   74  PHE74      -0.0003
     11  CZ        14.4100  -14.5620   42.0430 C.ar   74  PHE74      -0.0000
     12  N         17.2470   -9.1290   38.3850 N.am   75  HIS75      -0.1961
     13  CA        18.1890   -8.1380   37.9160 C.3    75  HIS75       0.1787
     14  C         18.8360   -7.4820   39.1180 C.2    75  HIS75       0.2620
     15  O         18.1390   -6.9710   39.9790 O.2    75  HIS75      -0.2715
     16  CB        17.4890   -7.0570   37.0400 C.3    75  HIS75       0.0785
     17  CG        18.4510   -6.0850   36.4350 C.ar   75  HIS75       0.0821
     18  ND1       19.2170   -6.4180   35.3120 N.ar   75  HIS75      -0.2267
     19  CD2       18.7920   -4.8370   36.8400 C.ar   75  HIS75       0.1154
     20  CE1       19.9700   -5.3520   35.0640 C.ar   75  HIS75       0.1986
     21  NE2       19.7270   -4.3690   35.9460 N.ar   75  HIS75      -0.2212
     22  N         20.1550   -7.4760   39.1520 N.am   76  GLY76      -0.1954
     23  CA        20.9220   -6.8210   40.2070 C.3    76  GLY76       0.1869
     24  C         21.6500   -5.6220   39.6280 C.2    76  GLY76       0.2309
     25  O         22.2290   -5.7040   38.5390 O.2    76  GLY76      -0.2863
     26  N         29.9790   -6.6540   27.4050 N.3    96  GLY96      -0.1210
     27  CA        29.3510   -7.8510   27.9620 C.3    96  GLY96       0.1956
     28  C         29.4260   -9.0120   26.9940 C.2    96  GLY96       0.2611
     29  O         29.6720   -8.7940   25.8060 O.2    96  GLY96      -0.2717
     30  N         29.2230  -10.2580   27.4840 N.am   97  MET97      -0.1979
     31  CA        29.3180  -11.4710   26.6500 C.3    97  MET97       0.1605
     32  C         28.4190  -11.4120   25.4080 C.2    97  MET97       0.2287
     33  O         28.7810  -11.9380   24.3470 O.2    97  MET97      -0.2864
     34  CB        28.9690  -12.7000   27.4870 C.3    97  MET97       0.0413
     35  CG        29.2290  -13.9950   26.7910 C.3    97  MET97       0.0598
     36  SD        28.7540  -15.3970   27.8090 S.3    97  MET97      -0.1393
     37  CE        29.1400  -16.7170   26.6960 C.3    97  MET97       0.0692
     38  N         20.8940   -7.2720   31.0460 N.3   103  TYR103     -0.1227
     39  CA        21.0730   -8.6520   31.4650 C.3   103  TYR103      0.1736
     40  C         20.2520   -9.0690   32.6690 C.2   103  TYR103      0.2595
     41  O         20.1660   -8.3450   33.6800 O.2   103  TYR103     -0.2718
     42  CB        22.5720   -8.9060   31.7380 C.3   103  TYR103      0.0548
     43  CG        23.4860   -8.8520   30.5360 C.ar  103  TYR103     -0.0200
     44  CD1       23.7920   -7.6360   29.9150 C.ar  103  TYR103     -0.0009
     45  CD2       24.0770  -10.0100   30.0320 C.ar  103  TYR103     -0.0009
     46  CE1       24.6420   -7.5860   28.8020 C.ar  103  TYR103      0.0417
     47  CE2       24.9190   -9.9720   28.9210 C.ar  103  TYR103      0.0417
     48  CZ        25.1950   -8.7580   28.3060 C.ar  103  TYR103      0.1957
     49  OH        26.0270   -8.7230   27.2080 O.3   103  TYR103     -0.2866
     50  N         19.6740  -10.2800   32.5710 N.am  104  PHE104     -0.1962
     51  CA        18.8320  -10.8470   33.6210 C.3   104  PHE104      0.1771
     52  C         19.2510  -12.2800   33.8900 C.2   104  PHE104      0.2619
     53  O         19.8640  -12.9320   33.0320 O.2   104  PHE104     -0.2715
     54  CB        17.3300  -10.8220   33.1990 C.3   104  PHE104      0.0574
     55  CG        16.8000   -9.4170   32.9690 C.ar  104  PHE104     -0.0200
     56  CD1       16.9840   -8.7700   31.7370 C.ar  104  PHE104     -0.0042
     57  CD2       16.1570   -8.7320   33.9890 C.ar  104  PHE104     -0.0042
     58  CE1       16.5220   -7.4550   31.5440 C.ar  104  PHE104     -0.0003
     59  CE2       15.6780   -7.4270   33.7890 C.ar  104  PHE104     -0.0003
     60  CZ        15.8750   -6.7990   32.5730 C.ar  104  PHE104     -0.0000
     61  N         18.9260  -12.7620   35.1010 N.am  105  ALA105     -0.1977
     62  CA        19.2350  -14.1210   35.4950 C.3   105  ALA105      0.1597
     63  C         18.0030  -14.8440   36.0100 C.2   105  ALA105      0.2287
     64  O         17.0860  -14.2270   36.5600 O.2   105  ALA105     -0.2864
     65  CB        20.3290  -14.1090   36.5820 C.3   105  ALA105      0.0319
     66  N         22.9730  -15.2590   41.0350 N.3   110  LYS110     -0.1231
     67  CA        23.7260  -14.6860   39.9090 C.3   110  LYS110      0.1693
     68  C         23.5120  -13.1680   39.8760 C.2   110  LYS110      0.2592
     69  O         24.4830  -12.4140   39.8200 O.2   110  LYS110     -0.2718
     70  CB        23.3300  -15.3540   38.5730 C.3   110  LYS110      0.0285
     71  CG        24.0700  -14.7610   37.3770 C.3   110  LYS110      0.0035
     72  CD        24.0190  -15.7480   36.1930 C.3   110  LYS110      0.0206
     73  CE        24.6270  -15.1150   34.9460 C.3   110  LYS110      0.1093
     74  NZ        24.7980  -16.1060   33.8350 N.3   110  LYS110     -0.1314
     75  N         22.2570  -12.7140   40.0200 N.am  111  SER111     -0.1952
     76  CA        21.9460  -11.2880   40.0450 C.3   111  SER111      0.1924
     77  C         22.5490  -10.5980   41.2710 C.2   111  SER111      0.2314
     78  O         22.9730   -9.4490   41.1910 O.2   111  SER111     -0.2863
     79  CB        20.4330  -11.0700   39.9870 C.3   111  SER111      0.2116
     80  OG        19.9630  -11.4820   38.7150 O.3   111  SER111     -0.2180
     81  N         25.8320   -8.6840   41.0360 N.3   114  TYR114     -0.1241
     82  CA        25.8400   -7.3780   40.3520 C.3   114  TYR114      0.1605
     83  C         25.3070   -6.2260   41.1650 C.2   114  TYR114      0.2264
     84  O         25.3600   -5.0800   40.7110 O.2   114  TYR114     -0.2867
     85  CB        25.0900   -7.4960   39.0210 C.3   114  TYR114      0.0534
     86  CG        25.8470   -8.3880   38.0630 C.ar  114  TYR114     -0.0201
     87  CD1       26.8360   -7.8680   37.2360 C.ar  114  TYR114     -0.0009
     88  CD2       25.6520   -9.7660   38.0580 C.ar  114  TYR114     -0.0009
     89  CE1       27.5520   -8.6820   36.3640 C.ar  114  TYR114      0.0417
     90  CE2       26.3960  -10.5990   37.2180 C.ar  114  TYR114      0.0417
     91  CZ        27.3440  -10.0470   36.3720 C.ar  114  TYR114      0.1957
     92  OH        28.0860  -10.8230   35.5170 O.3   114  TYR114     -0.2866
     93  N         29.8190   -4.3450   38.7480 N.3   118  ILE118     -0.1245
     94  CA        30.3040   -5.4470   37.9210 C.3   118  ILE118      0.1561
     95  C         31.3530   -6.2430   38.7320 C.2   118  ILE118      0.2260
     96  O         32.2500   -5.6520   39.3390 O.2   118  ILE118     -0.2867
     97  CB        30.8170   -4.9520   36.5390 C.3   118  ILE118      0.0252
     98  CG1       29.6660   -4.3200   35.7300 C.3   118  ILE118      0.0019
     99  CG2       31.4560   -6.0780   35.7380 C.3   118  ILE118      0.0019
    100  CD1       29.8030   -2.8680   35.5270 C.3   118  ILE118      0.0001
    101  N         21.6410  -16.7990   31.1980 N.3   178  GLU178     -0.1245
    102  CA        21.4090  -15.3700   31.2710 C.3   178  GLU178      0.1567
    103  C         20.5650  -14.9850   30.0870 C.2   178  GLU178      0.2260
    104  O         20.5780  -15.6820   29.0660 O.2   178  GLU178     -0.2867
    105  CB        22.6690  -14.5230   31.4320 C.3   178  GLU178      0.0388
    106  CG        23.6620  -14.6610   30.2990 C.3   178  GLU178      0.1160
    107  CD        25.0070  -14.0660   30.6750 C.2   178  GLU178      0.3649
    108  OE1       25.5670  -14.4510   31.7270 O.co2 178  GLU178     -0.2457
    109  OE2       25.5100  -13.2220   29.9010 O.co2 178  GLU178     -0.2457
@<TRIPOS>BOND
     1    33    32    2
     2    32    31    1
     3    29    28    2
     4    31    30    1
     5    31    34    1
     6    37    36    1
     7    35    34    1
     8    35    36    1
     9    28    30   am
    10    28    27    1
    11    49    48    1
    12    26    27    1
    13    48    46   ar
    14    48    47   ar
    15    46    44   ar
    16    47    45   ar
    17   104   103    2
    18   109   107   ar
    19    44    43   ar
    20    45    43   ar
    21   103   102    1
    22   106   107    1
    23   106   105    1
    24    43    42    1
    25   107   108   ar
    26    38    39    1
    27   101   102    1
    28   102   105    1
    29    39    42    1
    30    39    40    1
    31    58    56   ar
    32    58    60   ar
    33    56    55   ar
    34    50    40   am
    35    50    51    1
    36    60    59   ar
    37    40    41    2
    38    55    54    1
    39    55    57   ar
    40    53    52    2
    41    54    51    1
    42    51    52    1
    43    59    57   ar
    44    74    73    1
    45    52    61   am
    46    73    72    1
    47    20    18   ar
    48    20    21   ar
    49    61    62    1
    50    18    17   ar
    51    62    63    1
    52    62    65    1
    53    92    91    1
    54   100    98    1
    55    98    97    1
    56    99    97    1
    57    21    19   ar
    58    63    64    2
    59    72    71    1
    60    89    91   ar
    61    89    87   ar
    62    91    90   ar
    63    17    19   ar
    64    17    16    1
    65    97    94    1
    66     4     3    2
    67    16    13    1
    68    90    88   ar
    69    87    86   ar
    70    71    70    1
    71     1     2    1
    72     3    12   am
    73     3     2    1
    74    13    12    1
    75    13    14    1
    76    94    95    1
    77    94    93    1
    78    88    86   ar
    79    86    85    1
    80     2     5    1
    81    25    24    2
    82    70    67    1
    83    80    79    1
    84    95    96    2
    85    85    82    1
    86    14    22   am
    87    14    15    2
    88    22    23    1
    89     5     6    1
    90    24    23    1
    91    69    68    2
    92    68    67    1
    93    68    75   am
    94    67    66    1
    95    79    76    1
    96    75    76    1
    97    76    77    1
    98     8     6   ar
    99     8    10   ar
   100    82    81    1
   101    82    83    1
   102     6     7   ar
   103    84    83    2
   104    10    11   ar
   105    78    77    2
   106     7     9   ar
   107    11     9   ar
