@<TRIPOS>MOLECULE
tmp/4pntB00.pdb
 97 96 0 0 0
SMALL
GASTEIGER

@<TRIPOS>ATOM
      1  N         15.3910  -12.2500   37.4720 N.3    77  PHE77      -0.1227
      2  CA        16.0650  -11.3070   38.3690 C.3    77  PHE77       0.1736
      3  C         16.9620  -10.3200   37.6470 C.2    77  PHE77       0.2595
      4  O         17.5290  -10.6290   36.5910 O.2    77  PHE77      -0.2718
      5  CB        16.8950  -12.0840   39.4370 C.3    77  PHE77       0.0547
      6  CG        16.0130  -12.9510   40.3230 C.ar   77  PHE77      -0.0202
      7  CD1       15.3530  -12.4100   41.4170 C.ar   77  PHE77      -0.0042
      8  CD2       15.8500  -14.3110   40.0560 C.ar   77  PHE77      -0.0042
      9  CE1       14.5560  -13.2220   42.2540 C.ar   77  PHE77      -0.0003
     10  CE2       15.0120  -15.1140   40.8710 C.ar   77  PHE77      -0.0003
     11  CZ        14.3670  -14.5580   41.9500 C.ar   77  PHE77      -0.0000
     12  N         17.1720   -9.1490   38.2700 N.am   78  HIS78      -0.1961
     13  CA        18.1070   -8.1620   37.7730 C.3    78  HIS78       0.1787
     14  C         18.8010   -7.5170   38.9790 C.2    78  HIS78       0.2620
     15  O         18.1340   -6.9940   39.8630 O.2    78  HIS78      -0.2715
     16  CB        17.4140   -7.0800   36.9050 C.3    78  HIS78       0.0785
     17  CG        18.3880   -6.0830   36.3380 C.ar   78  HIS78       0.0821
     18  ND1       19.0910   -6.3480   35.1770 N.ar   78  HIS78      -0.2267
     19  CD2       18.7470   -4.8570   36.7900 C.ar   78  HIS78       0.1154
     20  CE1       19.8760   -5.2970   34.9770 C.ar   78  HIS78       0.1986
     21  NE2       19.6420   -4.3400   35.8720 N.ar   78  HIS78      -0.2212
     22  N         20.1220   -7.4970   38.9620 N.am   79  GLY79      -0.1954
     23  CA        20.9080   -6.8600   40.0130 C.3    79  GLY79       0.1869
     24  C         21.6260   -5.6600   39.4420 C.2    79  GLY79       0.2309
     25  O         22.1980   -5.7390   38.3580 O.2    79  GLY79      -0.2863
     26  N         20.6770   -7.2460   30.9770 N.3   105  TYR105     -0.1227
     27  CA        20.8690   -8.6320   31.4050 C.3   105  TYR105      0.1736
     28  C         20.0860   -9.0740   32.5980 C.2   105  TYR105      0.2595
     29  O         19.9870   -8.3580   33.6000 O.2   105  TYR105     -0.2718
     30  CB        22.3750   -8.8550   31.6770 C.3   105  TYR105      0.0548
     31  CG        23.2680   -8.7930   30.4620 C.ar  105  TYR105     -0.0200
     32  CD1       23.6060   -7.5680   29.8780 C.ar  105  TYR105     -0.0009
     33  CD2       23.8430   -9.9470   29.9360 C.ar  105  TYR105     -0.0009
     34  CE1       24.4070   -7.5030   28.7330 C.ar  105  TYR105      0.0417
     35  CE2       24.7020   -9.8870   28.8260 C.ar  105  TYR105      0.0417
     36  CZ        24.9770   -8.6600   28.2300 C.ar  105  TYR105      0.1957
     37  OH        25.7750   -8.5980   27.1160 O.3   105  TYR105     -0.2866
     38  N         19.5060  -10.2940   32.4910 N.am  106  PHE106     -0.1962
     39  CA        18.6820  -10.8750   33.5460 C.3   106  PHE106      0.1771
     40  C         19.1230  -12.2980   33.8220 C.2   106  PHE106      0.2619
     41  O         19.6980  -12.9510   32.9410 O.2   106  PHE106     -0.2715
     42  CB        17.1870  -10.9090   33.1250 C.3   106  PHE106      0.0574
     43  CG        16.6420   -9.5160   32.9040 C.ar  106  PHE106     -0.0200
     44  CD1       16.8110   -8.8730   31.6760 C.ar  106  PHE106     -0.0042
     45  CD2       16.0050   -8.8300   33.9400 C.ar  106  PHE106     -0.0042
     46  CE1       16.4040   -7.5250   31.5090 C.ar  106  PHE106     -0.0003
     47  CE2       15.5570   -7.5070   33.7600 C.ar  106  PHE106     -0.0003
     48  CZ        15.7730   -6.8640   32.5520 C.ar  106  PHE106     -0.0000
     49  N         18.7530  -12.8080   34.9820 N.am  107  ALA107     -0.1977
     50  CA        19.1120  -14.1610   35.3780 C.3   107  ALA107      0.1597
     51  C         17.8930  -14.8880   35.9310 C.2   107  ALA107      0.2287
     52  O         16.9810  -14.2620   36.4910 O.2   107  ALA107     -0.2864
     53  CB        20.2270  -14.1020   36.4460 C.3   107  ALA107      0.0319
     54  N         22.9300  -15.2910   40.8780 N.3   112  LYS112     -0.1231
     55  CA        23.6680  -14.7320   39.7320 C.3   112  LYS112      0.1693
     56  C         23.4810  -13.2090   39.7240 C.2   112  LYS112      0.2592
     57  O         24.4440  -12.4650   39.5820 O.2   112  LYS112     -0.2718
     58  CB        23.2630  -15.3680   38.3790 C.3   112  LYS112      0.0285
     59  CG        24.0900  -14.8230   37.2080 C.3   112  LYS112      0.0035
     60  CD        24.0570  -15.8060   36.0330 C.3   112  LYS112      0.0206
     61  CE        24.7200  -15.1970   34.8040 C.3   112  LYS112      0.1093
     62  NZ        24.7730  -16.1850   33.6820 N.3   112  LYS112     -0.1314
     63  N         22.2180  -12.7450   39.8450 N.am  113  SER113     -0.1952
     64  CA        21.9360  -11.3260   39.8740 C.3   113  SER113      0.1924
     65  C         22.5680  -10.6430   41.0960 C.2   113  SER113      0.2314
     66  O         22.9820   -9.4950   41.0160 O.2   113  SER113     -0.2863
     67  CB        20.4200  -11.1080   39.8460 C.3   113  SER113      0.2116
     68  OG        19.9370  -11.4250   38.5480 O.3   113  SER113     -0.2180
     69  N         25.8550   -8.6970   40.8700 N.3   116  TYR116     -0.1241
     70  CA        25.9060   -7.3900   40.1960 C.3   116  TYR116      0.1605
     71  C         25.3280   -6.2570   41.0250 C.2   116  TYR116      0.2264
     72  O         25.3260   -5.1040   40.5670 O.2   116  TYR116     -0.2867
     73  CB        25.1490   -7.5110   38.8600 C.3   116  TYR116      0.0534
     74  CG        25.8640   -8.3950   37.8810 C.ar  116  TYR116     -0.0201
     75  CD1       26.8520   -7.8810   37.0480 C.ar  116  TYR116     -0.0009
     76  CD2       25.6130   -9.7650   37.8320 C.ar  116  TYR116     -0.0009
     77  CE1       27.5030   -8.6870   36.1160 C.ar  116  TYR116      0.0417
     78  CE2       26.2950  -10.5930   36.9270 C.ar  116  TYR116      0.0417
     79  CZ        27.2410  -10.0400   36.0760 C.ar  116  TYR116      0.1957
     80  OH        27.9350  -10.7870   35.1490 O.3   116  TYR116     -0.2866
     81  N         29.7320   -4.3270   38.5380 N.3   120  ILE120     -0.1245
     82  CA        30.2440   -5.4570   37.7520 C.3   120  ILE120      0.1561
     83  C         31.2790   -6.1980   38.5790 C.2   120  ILE120      0.2260
     84  O         32.1150   -5.5620   39.2130 O.2   120  ILE120     -0.2867
     85  CB        30.8230   -4.9830   36.3870 C.3   120  ILE120      0.0252
     86  CG1       29.8110   -4.0910   35.5960 C.3   120  ILE120      0.0019
     87  CG2       31.3510   -6.1570   35.5550 C.3   120  ILE120      0.0019
     88  CD1       28.4260   -4.7660   35.1880 C.3   120  ILE120      0.0001
     89  N         21.5110  -16.8310   31.1250 N.3   183  GLU183     -0.1245
     90  CA        21.2890  -15.3980   31.1620 C.3   183  GLU183      0.1567
     91  C         20.4220  -15.0100   29.9860 C.2   183  GLU183      0.2260
     92  O         20.3900  -15.7080   28.9660 O.2   183  GLU183     -0.2867
     93  CB        22.5340  -14.5360   31.3030 C.3   183  GLU183      0.0388
     94  CG        23.5870  -14.7250   30.2150 C.3   183  GLU183      0.1160
     95  CD        24.8880  -14.0670   30.6450 C.2   183  GLU183      0.3649
     96  OE1       25.4780  -14.5040   31.6600 O.co2 183  GLU183     -0.2457
     97  OE2       25.3000  -13.0890   29.9820 O.co2 183  GLU183     -0.2457
@<TRIPOS>BOND
     1    37    36    1
     2    36    34   ar
     3    36    35   ar
     4    34    32   ar
     5    35    33   ar
     6    92    91    2
     7    32    31   ar
     8    33    31   ar
     9    97    95   ar
    10    91    90    1
    11    94    95    1
    12    94    93    1
    13    31    30    1
    14    95    96   ar
    15    26    27    1
    16    89    90    1
    17    90    93    1
    18    27    30    1
    19    27    28    1
    20    46    44   ar
    21    46    48   ar
    22    44    43   ar
    23    38    28   am
    24    38    39    1
    25    48    47   ar
    26    28    29    2
    27    43    42    1
    28    43    45   ar
    29    41    40    2
    30    42    39    1
    31    39    40    1
    32    62    61    1
    33    47    45   ar
    34    40    49   am
    35    61    60    1
    36    20    18   ar
    37    20    21   ar
    38    49    50    1
    39    80    79    1
    40    18    17   ar
    41    88    86    1
    42    50    51    1
    43    50    53    1
    44    87    85    1
    45    86    85    1
    46    21    19   ar
    47    51    52    2
    48    60    59    1
    49    79    77   ar
    50    79    78   ar
    51    77    75   ar
    52    17    19   ar
    53    17    16    1
    54    85    82    1
    55     4     3    2
    56    16    13    1
    57    78    76   ar
    58    75    74   ar
    59    59    58    1
    60     1     2    1
    61     3    12   am
    62     3     2    1
    63    82    81    1
    64    82    83    1
    65    13    12    1
    66    13    14    1
    67    76    74   ar
    68    74    73    1
    69    25    24    2
    70     2     5    1
    71    58    55    1
    72    68    67    1
    73    83    84    2
    74    73    70    1
    75    22    14   am
    76    22    23    1
    77    14    15    2
    78     5     6    1
    79    24    23    1
    80    57    56    2
    81    56    55    1
    82    56    63   am
    83    55    54    1
    84    63    64    1
    85    67    64    1
    86    64    65    1
    87     8     6   ar
    88     8    10   ar
    89    70    69    1
    90    70    71    1
    91     6     7   ar
    92    72    71    2
    93    10    11   ar
    94    66    65    2
    95     7     9   ar
    96    11     9   ar
