@<TRIPOS>MOLECULE
tmp/4pnuB02.pdb
 115 110 0 0 0
SMALL
GASTEIGER

@<TRIPOS>ATOM
      1  N        -18.9950  -21.7880   33.5760 N.3   146  ARG146     -0.1245
      2  CA       -20.0600  -21.2490   34.4030 C.3   146  ARG146      0.1563
      3  C        -20.5940  -19.9910   33.7080 C.2   146  ARG146      0.2260
      4  O        -20.1590  -18.8660   33.9720 O.2   146  ARG146     -0.2867
      5  CB       -19.5720  -20.9710   35.8260 C.3   146  ARG146      0.0307
      6  CG       -19.0840  -22.2290   36.5360 C.3   146  ARG146      0.0489
      7  CD       -17.5860  -22.2010   36.7820 C.3   146  ARG146      0.2205
      8  NE       -17.3110  -21.6400   38.0970 N.pl3 146  ARG146     -0.0865
      9  CZ       -16.2200  -20.9680   38.4480 C.cat 146  ARG146      0.5346
     10  NH1      -15.2460  -20.7130   37.5850 N.pl3 146  ARG146      0.1354
     11  NH2      -16.1220  -20.5360   39.6950 N.pl3 146  ARG146      0.1354
     12  N        -23.1800  -18.2750   33.8020 N.3   148  TYR148     -0.1227
     13  CA       -23.7780  -17.2440   34.6520 C.3   148  TYR148      0.1736
     14  C        -22.7810  -16.2010   35.1860 C.2   148  TYR148      0.2595
     15  O        -23.2130  -15.1800   35.7350 O.2   148  TYR148     -0.2718
     16  CB       -24.5420  -17.8820   35.8210 C.3   148  TYR148      0.0548
     17  CG       -23.7390  -18.8670   36.6490 C.ar  148  TYR148     -0.0200
     18  CD1      -22.9790  -18.4450   37.7390 C.ar  148  TYR148     -0.0009
     19  CD2      -23.7390  -20.2220   36.3370 C.ar  148  TYR148     -0.0009
     20  CE1      -22.2460  -19.3550   38.4920 C.ar  148  TYR148      0.0417
     21  CE2      -23.0110  -21.1320   37.0800 C.ar  148  TYR148      0.0417
     22  CZ       -22.2670  -20.6950   38.1490 C.ar  148  TYR148      0.1957
     23  OH       -21.5450  -21.6130   38.8650 O.3   148  TYR148     -0.2866
     24  N        -21.4760  -16.4540   35.0270 N.am  149  LEU149     -0.1980
     25  CA       -20.4180  -15.4940   35.4030 C.3   149  LEU149      0.1596
     26  C        -19.9620  -14.5990   34.2600 C.2   149  LEU149      0.2287
     27  O        -19.2070  -13.6560   34.4800 O.2   149  LEU149     -0.2864
     28  CB       -19.1900  -16.2380   35.9410 C.3   149  LEU149      0.0297
     29  CG       -19.4210  -17.1210   37.1690 C.3   149  LEU149      0.0022
     30  CD1      -18.1290  -17.7940   37.5980 C.3   149  LEU149      0.0001
     31  CD2      -20.0030  -16.3300   38.3240 C.3   149  LEU149      0.0001
     32  N        -17.9660  -11.0240   38.9990 N.3   166  THR166     -0.1218
     33  CA       -16.9200  -11.9010   39.4770 C.3   166  THR166      0.1862
     34  C        -16.6170  -12.9890   38.4600 C.2   166  THR166      0.2287
     35  O        -17.4760  -13.3780   37.6530 O.2   166  THR166     -0.2866
     36  CB       -17.2570  -12.4950   40.8620 C.3   166  THR166      0.1770
     37  OG1      -16.1970  -13.3680   41.2680 O.3   166  THR166     -0.2211
     38  CG2      -18.5690  -13.2670   40.8450 C.3   166  THR166      0.0375
     39  N        -15.0480  -15.8400   39.6190 N.3   168  GLY168     -0.1210
     40  CA       -14.7680  -16.9940   40.4640 C.3   168  GLY168      0.1956
     41  C        -13.4690  -16.8750   41.2430 C.2   168  GLY168      0.2612
     42  O        -13.1360  -17.7660   42.0370 O.2   168  GLY168     -0.2717
     43  N        -12.7480  -15.7650   41.0420 N.am  169  HIS169     -0.1961
     44  CA       -11.4490  -15.5380   41.6840 C.3   169  HIS169      0.1787
     45  C        -11.3800  -14.2240   42.4400 C.2   169  HIS169      0.2620
     46  O        -10.8700  -14.1730   43.5510 O.2   169  HIS169     -0.2715
     47  CB       -10.3310  -15.5970   40.6410 C.3   169  HIS169      0.0785
     48  CG       -10.2400  -16.9190   39.9530 C.ar  169  HIS169      0.0821
     49  ND1       -9.8560  -18.0700   40.6060 N.ar  169  HIS169     -0.2267
     50  CD2      -10.5020  -17.2790   38.6770 C.ar  169  HIS169      0.1154
     51  CE1       -9.8830  -19.0820   39.7590 C.ar  169  HIS169      0.1986
     52  NE2      -10.2720  -18.6290   38.5820 N.ar  169  HIS169     -0.2212
     53  N        -11.9140  -13.1690   41.8350 N.am  170  ARG170     -0.1963
     54  CA       -11.9990  -11.8740   42.4660 C.3   170  ARG170      0.1729
     55  C        -13.3710  -11.2490   42.1900 C.2   170  ARG170      0.2616
     56  O        -14.0740  -11.6560   41.2820 O.2   170  ARG170     -0.2715
     57  CB       -10.8770  -10.9560   41.9750 C.3   170  ARG170      0.0348
     58  CG       -10.4670  -11.0990   40.5090 C.3   170  ARG170      0.0492
     59  CD       -11.4280  -10.4170   39.5580 C.3   170  ARG170      0.2205
     60  NE       -10.9650  -10.5410   38.1790 N.pl3 170  ARG170     -0.0865
     61  CZ       -10.0280   -9.7910   37.6110 C.cat 170  ARG170      0.5346
     62  NH1       -9.4220   -8.8160   38.2750 N.pl3 170  ARG170      0.1354
     63  NH2       -9.7060  -10.0130   36.3460 N.pl3 170  ARG170      0.1354
     64  N        -13.7340  -10.2600   42.9810 N.am  171  LEU171     -0.1977
     65  CA       -15.0830   -9.7140   42.8960 C.3   171  LEU171      0.1596
     66  C        -15.0430   -8.2080   42.9700 C.2   171  LEU171      0.2287
     67  O        -14.2170   -7.6430   43.6750 O.2   171  LEU171     -0.2864
     68  CB       -15.9430  -10.3010   44.0170 C.3   171  LEU171      0.0297
     69  CG       -17.3820   -9.7740   44.1030 C.3   171  LEU171      0.0022
     70  CD1      -18.3310  -10.8660   44.5330 C.3   171  LEU171      0.0001
     71  CD2      -17.4570   -8.5900   45.0450 C.3   171  LEU171      0.0001
     72  N        -28.3730  -18.5820   37.9300 N.3   234  ARG234     -0.1245
     73  CA       -28.2930  -18.1340   39.3150 C.3   234  ARG234      0.1563
     74  C        -26.9100  -17.5400   39.5520 C.2   234  ARG234      0.2260
     75  O        -25.9090  -18.1760   39.2280 O.2   234  ARG234     -0.2867
     76  CB       -28.5090  -19.3200   40.2490 C.3   234  ARG234      0.0307
     77  CG       -28.6510  -18.9730   41.7220 C.3   234  ARG234      0.0489
     78  CD       -28.4080  -20.2050   42.5900 C.3   234  ARG234      0.2205
     79  NE       -27.0280  -20.6690   42.4620 N.pl3 234  ARG234     -0.0865
     80  CZ       -25.9800  -20.0210   42.9570 C.cat 234  ARG234      0.5346
     81  NH1      -26.1660  -18.9140   43.6580 N.pl3 234  ARG234      0.1354
     82  NH2      -24.7520  -20.4930   42.7870 N.pl3 234  ARG234      0.1354
     83  N        -23.8180  -16.0260   42.0830 N.3   236  PRO236     -0.2116
     84  CA       -23.3670  -16.1470   43.4950 C.3   236  PRO236      0.1372
     85  C        -23.7130  -14.9320   44.3870 C.2   236  PRO236      0.2244
     86  O        -23.9130  -13.8240   43.8800 O.2   236  PRO236     -0.2868
     87  CB       -21.8510  -16.3170   43.3760 C.3   236  PRO236      0.0268
     88  CG       -21.4950  -15.9020   41.9930 C.3   236  PRO236      0.0207
     89  CD       -22.7040  -16.1450   41.1320 C.3   236  PRO236      0.0892
     90  N        -21.2810  -13.2890   50.7230 N.3   240  ARG240     -0.1231
     91  CA       -20.5680  -14.4600   51.2460 C.3   240  ARG240      0.1694
     92  C        -19.0370  -14.3220   51.2470 C.2   240  ARG240      0.2591
     93  O        -18.3720  -14.9020   52.1000 O.2   240  ARG240     -0.2718
     94  CB       -20.9830  -15.7260   50.4790 C.3   240  ARG240      0.0321
     95  CG       -22.4230  -16.1020   50.8900 C.3   240  ARG240      0.0489
     96  CD       -22.7130  -17.5210   50.4620 C.3   240  ARG240      0.2205
     97  NE       -22.3720  -17.4370   49.0280 N.pl3 240  ARG240     -0.0865
     98  CZ       -22.6350  -18.3760   48.1360 C.cat 240  ARG240      0.5346
     99  NH1      -23.2850  -19.4920   48.4930 N.pl3 240  ARG240      0.1354
    100  NH2      -22.1570  -18.2170   46.9110 N.pl3 240  ARG240      0.1354
    101  N        -18.4830  -13.5540   50.3100 N.am  241  VAL241     -0.1980
    102  CA       -17.0280  -13.4130   50.1940 C.3   241  VAL241      0.1595
    103  C        -16.4870  -12.1410   50.8480 C.2   241  VAL241      0.2287
    104  O        -15.2780  -11.9640   50.9290 O.2   241  VAL241     -0.2864
    105  CB       -16.5240  -13.4780   48.7240 C.3   241  VAL241      0.0276
    106  CG1      -16.9800  -14.7650   48.0540 C.3   241  VAL241      0.0022
    107  CG2      -16.9540  -12.2620   47.9110 C.3   241  VAL241      0.0022
    108  N         -8.5620  -12.6940   46.9110 N.3   356  MET356     -0.1245
    109  CA        -8.2550  -13.8300   47.7870 C.3   356  MET356      0.1570
    110  C         -6.7910  -13.8110   48.2620 C.2   356  MET356      0.2261
    111  O         -5.9150  -13.2550   47.5820 O.2   356  MET356     -0.2867
    112  CB        -8.5020  -15.1460   47.0600 C.3   356  MET356      0.0387
    113  CG        -9.9490  -15.4510   46.6840 C.3   356  MET356      0.0595
    114  SD       -11.0350  -15.5820   48.1080 S.3   356  MET356     -0.1393
    115  CE       -11.8130  -13.9710   48.0320 C.3   356  MET356      0.0692
@<TRIPOS>BOND
     1     1     2    1
     2     3     4    2
     3     3     2    1
     4    12    13    1
     5    26    27    2
     6    26    25    1
     7     2     5    1
     8    13    14    1
     9    13    16    1
    10    24    14   am
    11    24    25    1
    12    14    15    2
    13    25    28    1
    14    16    17    1
    15     5     6    1
    16    28    29    1
    17    19    17   ar
    18    19    21   ar
    19    63    61    1
    20     6     7    1
    21    17    18   ar
    22     7     8    1
    23    21    22   ar
    24    29    30    1
    25    29    31    1
    26    10     9    1
    27    61    60    2
    28    61    62    1
    29    35    34    2
    30    18    20   ar
    31    72    73    1
    32     8     9    2
    33    22    20   ar
    34    22    23    1
    35    60    59    1
    36     9    11    1
    37    34    33    1
    38    52    50   ar
    39    52    51   ar
    40    50    48   ar
    41    32    33    1
    42    75    74    2
    43    73    74    1
    44    73    76    1
    45    33    36    1
    46    59    58    1
    47    39    40    1
    48    51    49   ar
    49    48    49   ar
    50    48    47    1
    51    76    77    1
    52    40    41    1
    53    58    57    1
    54    47    44    1
    55    38    36    1
    56    36    37    1
    57    43    41   am
    58    43    44    1
    59    89    88    1
    60    89    83    1
    61    41    42    2
    62    56    55    2
    63    44    45    1
    64    77    78    1
    65    53    45   am
    66    53    54    1
    67    57    54    1
    68    88    87    1
    69    83    84    1
    70    55    54    1
    71    55    64   am
    72    45    46    2
    73    79    78    1
    74    79    80    2
    75    82    80    1
    76    65    66    1
    77    65    64    1
    78    65    68    1
    79    80    81    1
    80    66    67    2
    81    87    84    1
    82    84    85    1
    83    86    85    2
    84    68    69    1
    85    69    70    1
    86    69    71    1
    87   113   112    1
    88   113   114    1
    89   108   109    1
    90   100    98    1
    91   112   109    1
    92   111   110    2
    93   109   110    1
    94   107   105    1
    95   115   114    1
    96   106   105    1
    97    98    99    1
    98    98    97    2
    99   105   102    1
   100    97    96    1
   101   102   101    1
   102   102   103    1
   103   101    92   am
   104    96    95    1
   105    94    95    1
   106    94    91    1
   107    90    91    1
   108   103   104    2
   109    91    92    1
   110    92    93    2
