@<TRIPOS>MOLECULE
tmp/4pnvA00.pdb
 102 98 0 0 0
SMALL
GASTEIGER

@<TRIPOS>ATOM
      1  N          4.2400   -0.6570   22.1820 N.3    17  VAL17      -0.1231
      2  CA         3.6590    0.6870   22.0780 C.3    17  VAL17       0.1692
      3  C          4.6510    1.8290   22.3560 C.2    17  VAL17       0.2593
      4  O          4.2720    2.9870   22.2950 O.2    17  VAL17      -0.2718
      5  CB         2.3880    0.8300   22.9550 C.3    17  VAL17       0.0266
      6  CG1        1.3640   -0.2190   22.5460 C.3    17  VAL17       0.0020
      7  CG2        2.7020    0.7380   24.4430 C.3    17  VAL17       0.0020
      8  N          5.9120    1.5040   22.6230 N.am   18  SER18      -0.1938
      9  CA         6.9360    2.5120   22.9580 C.3    18  SER18       0.2055
     10  C          7.2320    3.5360   21.8540 C.2    18  SER18       0.2644
     11  O          7.3980    4.7250   22.1320 O.2    18  SER18      -0.2714
     12  CB         8.2410    1.8160   23.3430 C.3    18  SER18       0.2130
     13  OG         8.7090    1.0030   22.2770 O.3    18  SER18      -0.2179
     14  N          7.3260    3.0840   20.6110 N.am   19  GLY19      -0.1940
     15  CA         7.6140    3.9910   19.4990 C.3    19  GLY19       0.1998
     16  C          9.0470    4.5080   19.5350 C.2    19  GLY19       0.2480
     17  O          9.8360    4.1200   20.4050 O.2    19  GLY19      -0.2729
     18  N          9.3930    5.4090   18.6040 N.am   20  PRO20      -0.2726
     19  CA        10.7980    5.7640   18.4010 C.3    20  PRO20       0.1402
     20  C         11.3550    6.7190   19.4570 C.2    20  PRO20       0.2269
     21  O         10.5980    7.4300   20.1190 O.2    20  PRO20      -0.2865
     22  CB        10.7910    6.4280   17.0170 C.3    20  PRO20       0.0296
     23  CG         9.4020    6.9620   16.8410 C.3    20  PRO20       0.0237
     24  CD         8.4860    6.2670   17.8180 C.3    20  PRO20       0.0939
     25  N          8.5840   16.0090   23.0880 N.3    25  PRO25      -0.2116
     26  CA         7.3150   15.9980   22.3560 C.3    25  PRO25       0.1372
     27  C          6.6180   17.3630   22.2950 C.2    25  PRO25       0.2244
     28  O          6.9270   18.2590   23.0840 O.2    25  PRO25      -0.2868
     29  CB         6.4650   15.0000   23.1470 C.3    25  PRO25       0.0268
     30  CG         7.0170   15.0390   24.5270 C.3    25  PRO25       0.0207
     31  CD         8.4930   15.2650   24.3580 C.3    25  PRO25       0.0892
     32  N          2.2180   13.5820   25.3770 N.3    30  LEU30      -0.1231
     33  CA         2.6820   12.6540   24.3480 C.3    30  LEU30       0.1693
     34  C          3.8610   11.7940   24.7880 C.2    30  LEU30       0.2593
     35  O          4.1800   10.8270   24.1260 O.2    30  LEU30      -0.2718
     36  CB         3.0840   13.3950   23.0800 C.3    30  LEU30       0.0284
     37  CG         1.9850   14.2030   22.3960 C.3    30  LEU30       0.0019
     38  CD1        2.5640   14.7880   21.1180 C.3    30  LEU30       0.0001
     39  CD2        0.7500   13.3590   22.1210 C.3    30  LEU30       0.0001
     40  N          4.5200   12.1640   25.8800 N.am   31  GLY31      -0.1942
     41  CA         5.5200   11.2980   26.4810 C.3    31  GLY31       0.2014
     42  C          4.9050   10.2580   27.4100 C.2    31  GLY31       0.2639
     43  O          5.6310    9.4730   28.0200 O.2    31  GLY31      -0.2714
     44  N          3.5770   10.2700   27.5330 N.am   32  ASN32      -0.1958
     45  CA         2.8680    9.3350   28.3810 C.3    32  ASN32       0.1819
     46  C          2.1890    8.2100   27.5990 C.2    32  ASN32       0.2621
     47  O          1.8970    8.3220   26.4030 O.2    32  ASN32      -0.2715
     48  CB         1.8210   10.0560   29.2310 C.3    32  ASN32       0.1195
     49  CG         2.4190   10.7770   30.4250 C.2    32  ASN32       0.2630
     50  OD1        3.6370   10.9700   30.5190 O.2    32  ASN32      -0.2716
     51  ND2        1.5600   11.1960   31.3410 N.am   32  ASN32      -0.0877
     52  N          2.0050    7.1080   28.3140 N.am   33  LEU33      -0.1977
     53  CA         1.1980    5.9890   27.8300 C.3    33  LEU33       0.1596
     54  C         -0.2100    6.1270   28.3890 C.2    33  LEU33       0.2287
     55  O         -0.4000    6.4630   29.5420 O.2    33  LEU33      -0.2864
     56  CB         1.7680    4.6330   28.2620 C.3    33  LEU33       0.0297
     57  CG         2.9430    4.0410   27.4850 C.3    33  LEU33       0.0022
     58  CD1        3.1010    2.5760   27.8490 C.3    33  LEU33       0.0001
     59  CD2        2.7820    4.2020   25.9820 C.3    33  LEU33       0.0001
     60  N          0.1530    4.4510   22.7190 N.3    46  GLY46      -0.1210
     61  CA         1.1110    5.5420   22.5150 C.3    46  GLY46       0.1956
     62  C          0.8020    6.2510   21.2030 C.2    46  GLY46       0.2613
     63  O          0.3450    5.6160   20.2570 O.2    46  GLY46      -0.2717
     64  N          1.0320    7.5650   21.1440 N.am   47  THR47      -0.1938
     65  CA         0.8410    8.3250   19.9000 C.3    47  THR47       0.2028
     66  C          1.7800    9.5250   19.7960 C.2    47  THR47       0.2642
     67  O          2.2460   10.0640   20.8060 O.2    47  THR47      -0.2714
     68  CB        -0.6300    8.8260   19.7370 C.3    47  THR47       0.1808
     69  OG1       -0.7910    9.4780   18.4720 O.3    47  THR47      -0.2208
     70  CG2       -1.0030    9.8100   20.7970 C.3    47  THR47       0.0379
     71  N          2.0330    9.9550   18.5620 N.am   48  ASP48      -0.1971
     72  CA         2.7200   11.2300   18.3110 C.3    48  ASP48       0.1709
     73  C          1.7980   12.2350   17.6070 C.2    48  ASP48       0.2293
     74  O          2.2690   13.2620   17.0950 O.2    48  ASP48      -0.2864
     75  CB         4.0100   11.0020   17.5100 C.3    48  ASP48       0.1436
     76  CG         3.7560   10.6110   16.0660 C.2    48  ASP48       0.3671
     77  OD1        2.5810   10.4520   15.6620 O.co2  48  ASP48      -0.2456
     78  OD2        4.7550   10.4860   15.3230 O.co2  48  ASP48      -0.2456
     79  N         -0.1150    3.4700   18.3830 N.3    53  MET53      -0.1245
     80  CA         0.2130    2.0780   18.6710 C.3    53  MET53       0.1570
     81  C         -0.6780    1.6620   19.8490 C.2    53  MET53       0.2261
     82  O         -0.6490    2.3100   20.8940 O.2    53  MET53      -0.2867
     83  CB         1.6960    1.9440   19.0740 C.3    53  MET53       0.0387
     84  CG         2.6890    2.2060   17.9430 C.3    53  MET53       0.0595
     85  SD         4.2700    2.9180   18.4660 S.3    53  MET53      -0.1393
     86  CE         3.7630    4.6410   18.4950 C.3    53  MET53       0.0692
     87  N          5.8350    7.1040   29.9600 N.3    72  ALA72      -0.1231
     88  CA         5.9330    5.8240   29.2800 C.3    72  ALA72       0.1694
     89  C          7.2540    5.1100   29.5730 C.2    72  ALA72       0.2591
     90  O          7.2730    3.9230   29.8790 O.2    72  ALA72      -0.2718
     91  CB         5.7740    6.0200   27.7830 C.3    72  ALA72       0.0304
     92  N          8.3550    5.8370   29.4610 N.am   73  ARG73      -0.1980
     93  CA         9.6580    5.2410   29.6440 C.3    73  ARG73       0.1597
     94  C          9.8570    4.7820   31.0920 C.2    73  ARG73       0.2287
     95  O         10.3520    3.6770   31.3180 O.2    73  ARG73      -0.2864
     96  CB        10.7490    6.2130   29.2150 C.3    73  ARG73       0.0334
     97  CG        12.1370    5.6050   29.1660 C.3    73  ARG73       0.0492
     98  CD        12.2580    4.5030   28.1180 C.3    73  ARG73       0.2205
     99  NE        13.0770    3.3800   28.5900 N.pl3  73  ARG73      -0.0865
    100  CZ        13.4570    2.3530   27.8300 C.cat  73  ARG73       0.5346
    101  NH1       13.1190    2.2960   26.5440 N.pl3  73  ARG73       0.1354
    102  NH2       14.2010    1.3840   28.3540 N.pl3  73  ARG73       0.1354
@<TRIPOS>BOND
     1    78    76   ar
     2    77    76   ar
     3    76    75    1
     4    23    22    1
     5    23    24    1
     6    22    19    1
     7    74    73    2
     8    75    72    1
     9    73    72    1
    10    24    18    1
    11    84    85    1
    12    84    83    1
    13    72    71    1
    14    79    80    1
    15    19    18    1
    16    19    20    1
    17    85    86    1
    18    69    68    1
    19    71    66   am
    20    18    16   am
    21    80    83    1
    22    80    81    1
    23    20    21    2
    24    15    16    1
    25    15    14    1
    26    16    17    2
    27    68    65    1
    28    68    70    1
    29    66    65    1
    30    66    67    2
    31    81    82    2
    32    65    64    1
    33    63    62    2
    34    14    10   am
    35    38    37    1
    36    64    62   am
    37    62    61    1
    38    10    11    2
    39    10     9    1
    40     2     1    1
    41     2     3    1
    42     2     5    1
    43    39    37    1
    44    13    12    1
    45     4     3    2
    46    27    26    1
    47    27    28    2
    48     3     8   am
    49    26    25    1
    50    26    29    1
    51    37    36    1
    52    61    60    1
    53     6     5    1
    54     8     9    1
    55     5     7    1
    56     9    12    1
    57    36    33    1
    58    25    31    1
    59    29    30    1
    60    35    34    2
    61    33    34    1
    62    33    32    1
    63    31    30    1
    64    34    40   am
    65    40    41    1
    66    59    57    1
    67    47    46    2
    68    41    42    1
    69   101   100    1
    70    42    44   am
    71    42    43    2
    72    57    58    1
    73    57    56    1
    74    44    45    1
    75    46    52   am
    76    46    45    1
    77    91    88    1
    78    53    56    1
    79    53    52    1
    80    53    54    1
    81   100   102    1
    82   100    99    2
    83    98    99    1
    84    98    97    1
    85    45    48    1
    86    54    55    2
    87    97    96    1
    88    96    93    1
    89    48    49    1
    90    88    89    1
    91    88    87    1
    92    92    89   am
    93    92    93    1
    94    89    90    2
    95    93    94    1
    96    49    50    2
    97    49    51   am
    98    94    95    2
