@<TRIPOS>MOLECULE
tmp/4pnzB00.pdb
 191 186 0 0 0
SMALL
GASTEIGER

@<TRIPOS>ATOM
      1  N         -1.1440   58.2560   27.1940 N.3    86  ARG86      -0.1245
      2  CA        -2.3650   57.7030   27.7870 C.3    86  ARG86       0.1563
      3  C         -3.3920   57.2390   26.7370 C.2    86  ARG86       0.2260
      4  O         -4.0010   56.1640   26.8760 O.2    86  ARG86      -0.2867
      5  CB        -3.0130   58.6980   28.7430 C.3    86  ARG86       0.0307
      6  CG        -4.1110   58.0310   29.6120 C.3    86  ARG86       0.0489
      7  CD        -4.9000   59.0660   30.3710 C.3    86  ARG86       0.2205
      8  NE        -4.0760   59.7620   31.3660 N.pl3  86  ARG86      -0.0865
      9  CZ        -3.9240   59.3670   32.6250 C.cat  86  ARG86       0.5346
     10  NH1       -4.5210   58.2590   33.0600 N.pl3  86  ARG86       0.1354
     11  NH2       -3.1850   60.0780   33.4630 N.pl3  86  ARG86       0.1354
     12  N         -3.1680   64.7960   27.0870 N.3   166  GLU166     -0.1231
     13  CA        -3.3670   64.4520   28.4970 C.3   166  GLU166      0.1699
     14  C         -4.3750   65.3470   29.2420 C.2   166  GLU166      0.2592
     15  O         -5.2040   64.8330   30.0030 O.2   166  GLU166     -0.2718
     16  CB        -1.9920   64.4880   29.2360 C.3   166  GLU166      0.0402
     17  CG        -2.0520   64.2460   30.7500 C.3   166  GLU166      0.1161
     18  CD        -2.4610   62.8530   31.2080 C.2   166  GLU166      0.3649
     19  OE1       -2.5630   61.9390   30.3530 O.co2 166  GLU166     -0.2457
     20  OE2       -2.6680   62.6740   32.4340 O.co2 166  GLU166     -0.2457
     21  N         -4.2600   66.6830   29.0660 N.am  167  GLU167     -0.1979
     22  CA        -4.9870   67.6640   29.8820 C.3   167  GLU167      0.1602
     23  C         -6.2000   68.3800   29.2750 C.2   167  GLU167      0.2287
     24  O         -6.9230   69.0360   30.0140 O.2   167  GLU167     -0.2864
     25  CB        -3.9960   68.7590   30.3540 C.3   167  GLU167      0.0415
     26  CG        -2.7280   68.2130   31.0320 C.3   167  GLU167      0.1163
     27  CD        -2.9120   67.3880   32.2960 C.2   167  GLU167      0.3649
     28  OE1       -4.0680   67.0930   32.6660 O.co2 167  GLU167     -0.2457
     29  OE2       -1.8950   66.9870   32.9020 O.co2 167  GLU167     -0.2457
     30  N         -8.2520   64.6270   26.3660 N.3   170  SER170     -0.1217
     31  CA        -8.2970   63.2140   26.8260 C.3   170  SER170      0.1889
     32  C         -8.3890   62.3100   25.6000 C.2   170  SER170      0.2288
     33  O         -9.1150   61.3010   25.5830 O.2   170  SER170     -0.2866
     34  CB        -9.4730   62.9600   27.7680 C.3   170  SER170      0.2089
     35  OG        -9.2840   63.6860   28.9680 O.3   170  SER170     -0.2183
     36  N        -15.1270   70.9320   35.6110 N.3   317  ARG317     -0.1231
     37  CA       -14.5180   70.0180   36.5780 C.3   317  ARG317      0.1694
     38  C        -13.0330   69.9180   36.2470 C.2   317  ARG317      0.2592
     39  O        -12.1940   70.2670   37.0840 O.2   317  ARG317     -0.2718
     40  CB       -15.2150   68.6420   36.5680 C.3   317  ARG317      0.0321
     41  CG       -16.6330   68.7450   37.1400 C.3   317  ARG317      0.0489
     42  CD       -17.2130   67.3770   37.3910 C.3   317  ARG317      0.2205
     43  NE       -18.4450   67.4590   38.1850 N.pl3 317  ARG317     -0.0865
     44  CZ       -19.6630   67.2790   37.6860 C.cat 317  ARG317      0.5346
     45  NH1      -19.8260   66.9960   36.4010 N.pl3 317  ARG317      0.1354
     46  NH2      -20.7230   67.3480   38.4730 N.pl3 317  ARG317      0.1354
     47  N        -12.7160   69.5480   34.9940 N.am  318  PHE318     -0.1962
     48  CA       -11.3290   69.5160   34.5020 C.3   318  PHE318      0.1771
     49  C        -11.2230   70.4430   33.3030 C.2   318  PHE318      0.2619
     50  O        -10.1310   70.8410   32.9290 O.2   318  PHE318     -0.2715
     51  CB       -10.8750   68.0950   34.1330 C.3   318  PHE318      0.0574
     52  CG       -10.7020   67.2330   35.3590 C.ar  318  PHE318     -0.0200
     53  CD1       -9.5020   67.2360   36.0680 C.ar  318  PHE318     -0.0042
     54  CD2      -11.7470   66.4370   35.8240 C.ar  318  PHE318     -0.0042
     55  CE1       -9.3610   66.4880   37.2490 C.ar  318  PHE318     -0.0003
     56  CE2      -11.6030   65.6860   37.0030 C.ar  318  PHE318     -0.0003
     57  CZ       -10.4100   65.7180   37.7060 C.ar  318  PHE318     -0.0000
     58  N        -12.3600   70.7810   32.6930 N.am  319  ARG319     -0.1977
     59  CA       -12.4240   71.6960   31.5400 C.3   319  ARG319      0.1597
     60  C        -13.8840   72.0950   31.3370 C.2   319  ARG319      0.2287
     61  O        -14.7590   71.3650   31.8180 O.2   319  ARG319     -0.2864
     62  CB       -11.8860   71.0130   30.2510 C.3   319  ARG319      0.0334
     63  CG       -12.5970   69.7170   29.8530 C.3   319  ARG319      0.0492
     64  CD       -12.3310   69.4550   28.3830 C.3   319  ARG319      0.2205
     65  NE       -12.8480   68.1610   27.9480 N.pl3 319  ARG319     -0.0865
     66  CZ       -12.9890   67.7870   26.6760 C.cat 319  ARG319      0.5346
     67  NH1      -12.6470   68.6140   25.6840 N.pl3 319  ARG319      0.1354
     68  NH2      -13.4730   66.5890   26.3830 N.pl3 319  ARG319      0.1354
     69  N         -5.8310   59.7230   47.1470 N.3   508  TYR508     -0.1241
     70  CA        -5.6400   60.3730   45.8450 C.3   508  TYR508      0.1605
     71  C         -5.7030   61.8570   46.1490 C.2   508  TYR508      0.2264
     72  O         -4.6530   62.4930   46.2290 O.2   508  TYR508     -0.2867
     73  CB        -6.5800   59.9010   44.7320 C.3   508  TYR508      0.0534
     74  CG        -6.1540   60.4990   43.4090 C.ar  508  TYR508     -0.0201
     75  CD1       -5.0170   60.0270   42.7380 C.ar  508  TYR508     -0.0009
     76  CD2       -6.7630   61.6490   42.9200 C.ar  508  TYR508     -0.0009
     77  CE1       -4.5950   60.6060   41.5370 C.ar  508  TYR508      0.0417
     78  CE2       -6.3350   62.2490   41.7340 C.ar  508  TYR508      0.0417
     79  CZ        -5.2910   61.6910   41.0170 C.ar  508  TYR508      0.1957
     80  OH        -4.9060   62.3030   39.8470 O.3   508  TYR508     -0.2866
     81  N        -17.8960   66.5460   42.8760 N.3   546  TYR546     -0.1241
     82  CA       -19.2980   66.0950   42.8150 C.3   546  TYR546      0.1605
     83  C        -20.1460   66.5180   44.0260 C.2   546  TYR546      0.2264
     84  O        -21.2260   65.9630   44.2100 O.2   546  TYR546     -0.2867
     85  CB       -19.3280   64.5450   42.5930 C.3   546  TYR546      0.0534
     86  CG       -18.3450   64.1240   41.5070 C.ar  546  TYR546     -0.0201
     87  CD1      -18.5460   64.4850   40.1810 C.ar  546  TYR546     -0.0009
     88  CD2      -17.1660   63.4510   41.8260 C.ar  546  TYR546     -0.0009
     89  CE1      -17.6420   64.1100   39.1790 C.ar  546  TYR546      0.0417
     90  CE2      -16.2290   63.1220   40.8410 C.ar  546  TYR546      0.0417
     91  CZ       -16.4730   63.4550   39.5190 C.ar  546  TYR546      0.1957
     92  OH       -15.5520   63.1530   38.5360 O.3   546  TYR546     -0.2866
     93  N          0.6120   58.9670   42.0540 N.3   591  SER591     -0.1202
     94  CA         0.4030   60.1620   41.2550 C.3   591  SER591      0.2020
     95  C          0.0740   61.3610   42.1920 C.2   591  SER591      0.2618
     96  O          0.8750   61.6260   43.0820 O.2   591  SER591     -0.2717
     97  CB        -0.6770   59.8550   40.2070 C.3   591  SER591      0.2103
     98  OG        -0.7980   60.9220   39.2940 O.3   591  SER591     -0.2182
     99  N         -1.0910   62.0280   42.0660 N.am  592  TYR592     -0.1975
    100  CA        -1.4470   63.0980   43.0280 C.3   592  TYR592      0.1639
    101  C         -1.4540   62.5260   44.4650 C.2   592  TYR592      0.2290
    102  O         -1.0240   63.2010   45.3920 O.2   592  TYR592     -0.2864
    103  CB        -2.8120   63.7310   42.6790 C.3   592  TYR592      0.0560
    104  CG        -2.9960   65.0980   43.3120 C.ar  592  TYR592     -0.0198
    105  CD1       -3.2750   65.2300   44.6770 C.ar  592  TYR592     -0.0009
    106  CD2       -2.8650   66.2600   42.5570 C.ar  592  TYR592     -0.0009
    107  CE1       -3.4230   66.4890   45.2680 C.ar  592  TYR592      0.0417
    108  CE2       -3.0240   67.5240   43.1360 C.ar  592  TYR592      0.0417
    109  CZ        -3.2950   67.6310   44.4920 C.ar  592  TYR592      0.1957
    110  OH        -3.4600   68.8670   45.0580 O.3   592  TYR592     -0.2866
    111  N          4.1870   63.6870   42.4110 N.3   617  VAL617     -0.1245
    112  CA         4.5990   65.0490   42.0860 C.3   617  VAL617      0.1561
    113  C          5.3610   65.4820   43.3780 C.2   617  VAL617      0.2260
    114  O          4.9680   65.0690   44.4770 O.2   617  VAL617     -0.2867
    115  CB         3.3750   65.9560   41.7950 C.3   617  VAL617      0.0252
    116  CG1        3.7210   67.4520   41.9080 C.3   617  VAL617      0.0019
    117  CG2        2.8190   65.6450   40.4010 C.3   617  VAL617      0.0019
    118  N          5.3550   71.6370   42.1460 N.3   620  TRP620     -0.1241
    119  CA         4.4080   71.9880   41.0820 C.3   620  TRP620      0.1605
    120  C          5.0450   72.6190   39.8460 C.2   620  TRP620      0.2264
    121  O          4.5300   72.4050   38.7410 O.2   620  TRP620     -0.2867
    122  CB         3.2460   72.8170   41.6360 C.3   620  TRP620      0.0550
    123  CG         2.3260   71.9150   42.4220 C.ar  620  TRP620      0.0003
    124  CD1        2.1420   71.9110   43.7790 C.ar  620  TRP620      0.0946
    125  CD2        1.6010   70.7750   41.9150 C.ar  620  TRP620      0.0152
    126  NE1        1.2880   70.8890   44.1370 N.ar  620  TRP620     -0.2442
    127  CE2        0.9870   70.1430   43.0230 C.ar  620  TRP620      0.0810
    128  CE3        1.4110   70.2250   40.6200 C.ar  620  TRP620      0.0012
    129  CZ2        0.1880   68.9930   42.8850 C.ar  620  TRP620      0.0191
    130  CZ3        0.5830   69.1060   40.4770 C.ar  620  TRP620      0.0001
    131  CH2       -0.0120   68.5000   41.6000 C.ar  620  TRP620      0.0015
    132  N          5.4970   69.9330   37.1000 N.3   623  TYR623     -0.1241
    133  CA         4.3470   69.3490   36.4090 C.3   623  TYR623      0.1605
    134  C          3.8890   70.2220   35.2220 C.2   623  TYR623      0.2264
    135  O          4.3760   71.3480   35.0500 O.2   623  TYR623     -0.2867
    136  CB         3.2020   68.9860   37.4070 C.3   623  TYR623      0.0534
    137  CG         2.2970   67.9170   36.8230 C.ar  623  TYR623     -0.0201
    138  CD1        2.8220   66.7180   36.3410 C.ar  623  TYR623     -0.0009
    139  CD2        0.9380   68.1540   36.6380 C.ar  623  TYR623     -0.0009
    140  CE1        2.0110   65.7720   35.7150 C.ar  623  TYR623      0.0417
    141  CE2        0.1160   67.2100   36.0160 C.ar  623  TYR623      0.0417
    142  CZ         0.6520   66.0080   35.5880 C.ar  623  TYR623      0.1957
    143  OH        -0.1570   65.1050   34.9300 O.3   623  TYR623     -0.2866
    144  N         -2.6100   71.4650   33.5530 N.3   627  TYR627     -0.1241
    145  CA        -3.1540   70.9530   34.8170 C.3   627  TYR627      0.1605
    146  C         -2.7410   71.8590   35.9910 C.2   627  TYR627      0.2264
    147  O         -3.5940   72.3300   36.7590 O.2   627  TYR627     -0.2867
    148  CB        -2.6380   69.5160   35.0490 C.3   627  TYR627      0.0534
    149  CG        -3.1940   68.8590   36.2970 C.ar  627  TYR627     -0.0201
    150  CD1       -2.5670   69.0230   37.5330 C.ar  627  TYR627     -0.0009
    151  CD2       -4.3610   68.0940   36.2470 C.ar  627  TYR627     -0.0009
    152  CE1       -3.0750   68.4230   38.6850 C.ar  627  TYR627      0.0417
    153  CE2       -4.8800   67.4840   37.3970 C.ar  627  TYR627      0.0417
    154  CZ        -4.2160   67.6390   38.6080 C.ar  627  TYR627      0.1957
    155  OH        -4.6700   67.0250   39.7500 O.3   627  TYR627     -0.2866
    156  N         -4.2130   75.5050   36.1790 N.3   630  ARG630     -0.1245
    157  CA        -5.6740   75.5350   36.3830 C.3   630  ARG630      0.1563
    158  C         -5.9870   75.7890   37.8610 C.2   630  ARG630      0.2260
    159  O         -6.9310   76.5190   38.1690 O.2   630  ARG630     -0.2867
    160  CB        -6.2770   74.1800   35.9590 C.3   630  ARG630      0.0307
    161  CG        -7.7990   74.1220   36.0090 C.3   630  ARG630      0.0489
    162  CD        -8.3230   72.7570   35.5870 C.3   630  ARG630      0.2205
    163  NE        -7.8730   72.4230   34.2360 N.pl3 630  ARG630     -0.0865
    164  CZ        -7.3770   71.2500   33.8570 C.cat 630  ARG630      0.5346
    165  NH1       -7.3060   70.2380   34.7200 N.pl3 630  ARG630      0.1354
    166  NH2       -7.0110   71.0560   32.5920 N.pl3 630  ARG630      0.1354
    167  N          4.8540   61.5010   32.1880 N.3   671  ASN671     -0.1225
    168  CA         3.8040   62.3170   32.7910 C.3   671  ASN671      0.1785
    169  C          4.3110   63.0510   34.0570 C.2   671  ASN671      0.2597
    170  O          4.4540   64.2810   34.0580 O.2   671  ASN671     -0.2718
    171  CB         2.5820   61.3860   33.0350 C.3   671  ASN671      0.1169
    172  CG         1.3100   62.1130   33.3270 C.2   671  ASN671      0.2627
    173  OD1        1.3030   63.1580   33.9800 O.2   671  ASN671     -0.2716
    174  ND2        0.2030   61.6030   32.8390 N.am  671  ASN671     -0.0877
    175  N          4.6170   62.3010   35.1080 N.am  672  VAL672     -0.1980
    176  CA         5.2580   62.8400   36.3050 C.3   672  VAL672      0.1595
    177  C          6.7060   62.3790   36.0920 C.2   672  VAL672      0.2287
    178  O          7.0240   61.1940   36.2140 O.2   672  VAL672     -0.2864
    179  CB         4.6600   62.3040   37.6320 C.3   672  VAL672      0.0276
    180  CG1        5.4590   62.8300   38.8140 C.3   672  VAL672      0.0022
    181  CG2        3.1980   62.7250   37.7620 C.3   672  VAL672      0.0022
    182  N          3.9520   56.1460   33.8090 N.3   701  HIS701     -0.1241
    183  CA         3.1520   56.5620   34.9630 C.3   701  HIS701      0.1621
    184  C          2.2420   55.4770   35.5220 C.2   701  HIS701      0.2264
    185  O          1.9560   55.5060   36.7170 O.2   701  HIS701     -0.2867
    186  CB         2.3450   57.8380   34.6650 C.3   701  HIS701      0.0745
    187  CG         1.9240   58.5650   35.9020 C.ar  701  HIS701      0.0817
    188  ND1        2.8410   58.9650   36.8440 N.ar  701  HIS701     -0.2268
    189  CD2        0.6830   58.9290   36.3100 C.ar  701  HIS701      0.1154
    190  CE1        2.1430   59.5480   37.8100 C.ar  701  HIS701      0.1986
    191  NE2        0.8400   59.5600   37.5280 N.ar  701  HIS701     -0.2212
@<TRIPOS>BOND
     1    33    32    2
     2    32    31    1
     3    67    66    1
     4    30    31    1
     5    68    66    1
     6    66    65    2
     7     3     4    2
     8     3     2    1
     9    31    34    1
    10    12    13    1
    11     1     2    1
    12    34    35    1
    13     2     5    1
    14    65    64    1
    15    64    63    1
    16    13    16    1
    17    13    14    1
    18     5     6    1
    19    21    14   am
    20    21    22    1
    21    16    17    1
    22    14    15    2
    23    23    22    1
    24    23    24    2
    25     6     7    1
    26    63    62    1
    27    22    25    1
    28    62    59    1
    29    19    18   ar
    30    25    26    1
    31     7     8    1
    32    17    18    1
    33    26    27    1
    34    18    20   ar
    35    60    59    1
    36    60    61    2
    37     8     9    2
    38    59    58    1
    39   167   168    1
    40    27    28   ar
    41    27    29   ar
    42   166   164    1
    43     9    10    1
    44     9    11    1
    45    58    49   am
    46   168   171    1
    47   168   169    1
    48   174   172   am
    49    50    49    2
    50   171   172    1
    51    49    48    1
    52   172   173    2
    53   144   145    1
    54   182   183    1
    55   164   163    2
    56   164   165    1
    57   169   170    2
    58   169   175   am
    59    51    48    1
    60    51    52    1
    61   163   162    1
    62    48    47    1
    63   186   183    1
    64   186   187    1
    65   145   148    1
    66   145   146    1
    67   143   142    1
    68   183   184    1
    69    47    38   am
    70   148   149    1
    71   135   134    2
    72   175   176    1
    73   134   133    1
    74    52    54   ar
    75    52    53   ar
    76   184   185    2
    77   162   161    1
    78   142   140   ar
    79   142   141   ar
    80    36    37    1
    81   140   138   ar
    82    54    56   ar
    83   187   189   ar
    84   187   188   ar
    85   160   161    1
    86   160   157    1
    87   146   147    2
    88   141   139   ar
    89    53    55   ar
    90   177   178    2
    91   177   176    1
    92   156   157    1
    93   151   149   ar
    94   151   153   ar
    95    38    37    1
    96    38    39    2
    97   149   150   ar
    98   176   179    1
    99   189   191   ar
   100   138   137   ar
   101   157   158    1
   102    45    44    1
   103   133   132    1
   104   133   136    1
   105    40    37    1
   106    40    41    1
   107   139   137   ar
   108   137   136    1
   109   188   190   ar
   110    56    57   ar
   111    41    42    1
   112    55    57   ar
   113    42    43    1
   114   153   154   ar
   115   191   190   ar
   116   150   152   ar
   117   179   181    1
   118   179   180    1
   119    44    43    2
   120    44    46    1
   121   158   159    2
   122    92    91    1
   123   154   152   ar
   124   154   155    1
   125   121   120    2
   126    89    91   ar
   127    89    87   ar
   128    98    97    1
   129    91    90   ar
   130   120   119    1
   131    80    79    1
   132    87    86   ar
   133    97    94    1
   134   117   115    1
   135   130   128   ar
   136   130   131   ar
   137   128   125   ar
   138    90    88   ar
   139    79    77   ar
   140    79    78   ar
   141   119   122    1
   142   119   118    1
   143    94    93    1
   144    94    95    1
   145    86    88   ar
   146    86    85    1
   147    77    75   ar
   148   131   129   ar
   149   122   123    1
   150    78    76   ar
   151   115   116    1
   152   115   112    1
   153   125   123   ar
   154   125   127   ar
   155    99    95   am
   156    99   100    1
   157   112   111    1
   158   112   113    1
   159    95    96    2
   160   123   124   ar
   161   106   108   ar
   162   106   104   ar
   163    85    82    1
   164   103   100    1
   165   103   104    1
   166    75    74   ar
   167    82    81    1
   168    82    83    1
   169   129   127   ar
   170    76    74   ar
   171   127   126   ar
   172   100   101    1
   173   108   109   ar
   174   104   105   ar
   175   113   114    2
   176    74    73    1
   177   124   126   ar
   178    83    84    2
   179   101   102    2
   180   109   110    1
   181   109   107   ar
   182   105   107   ar
   183    73    70    1
   184    70    71    1
   185    70    69    1
   186    71    72    2
