@<TRIPOS>MOLECULE
tmp/4po0A02.pdb
 104 95 0 0 0
SMALL
GASTEIGER

@<TRIPOS>ATOM
      1  N         68.1930   30.5470   47.5740 N.3   393  LEU393     -0.1245
      2  CA        67.9940   31.9420   47.9530 C.3   393  LEU393      0.1561
      3  C         68.1860   32.1150   49.4630 C.2   393  LEU393      0.2260
      4  O         68.5310   33.2030   49.9390 O.2   393  LEU393     -0.2867
      5  CB        66.5970   32.4040   47.5030 C.3   393  LEU393      0.0270
      6  CG        66.1970   33.8210   47.8380 C.3   393  LEU393      0.0019
      7  CD1       66.5000   34.7670   46.6860 C.3   393  LEU393      0.0001
      8  CD2       64.7250   33.8270   48.1630 C.3   393  LEU393      0.0001
      9  N         71.8820   32.3060   49.7420 N.3   396  GLN396     -0.1231
     10  CA        72.2080   33.6380   49.2580 C.3   396  GLN396      0.1698
     11  C         71.9790   34.7320   50.3090 C.2   396  GLN396      0.2592
     12  O         72.8980   35.5100   50.6490 O.2   396  GLN396     -0.2718
     13  CB        71.3790   33.8920   48.0110 C.3   396  GLN396      0.0381
     14  CG        72.0400   34.7590   46.9890 C.3   396  GLN396      0.0905
     15  CD        71.3790   36.1180   46.9220 C.2   396  GLN396      0.2608
     16  OE1       70.2560   36.2590   46.4000 O.2   396  GLN396     -0.2717
     17  NE2       72.0680   37.1420   47.4540 N.am  396  GLN396     -0.0878
     18  N         70.7730   34.7920   50.8520 N.am  397  LEU397     -0.1980
     19  CA        70.4360   35.9680   51.6500 C.3   397  LEU397      0.1596
     20  C         70.7840   35.8730   53.1400 C.2   397  LEU397      0.2287
     21  O         71.0200   36.8910   53.7930 O.2   397  LEU397     -0.2864
     22  CB        68.9620   36.3660   51.4550 C.3   397  LEU397      0.0297
     23  CG        68.3550   36.6870   50.0660 C.3   397  LEU397      0.0022
     24  CD1       66.8810   36.3430   50.1450 C.3   397  LEU397      0.0001
     25  CD2       68.5510   38.1210   49.5460 C.3   397  LEU397      0.0001
     26  N         67.4970   38.2810   55.9710 N.3   401  ASN401     -0.1240
     27  CA        66.9450   38.6580   54.7130 C.3   401  ASN401      0.1653
     28  C         66.0680   37.5330   54.1470 C.2   401  ASN401      0.2266
     29  O         65.2030   37.7970   53.3070 O.2   401  ASN401     -0.2867
     30  CB        68.0550   39.0420   53.7520 C.3   401  ASN401      0.1155
     31  CG        68.6130   40.4070   54.0500 C.2   401  ASN401      0.2627
     32  OD1       67.9060   41.2870   54.5600 O.2   401  ASN401     -0.2716
     33  ND2       69.8780   40.5970   53.7230 N.am  401  ASN401     -0.0877
     34  N         63.0860   38.4290   55.5180 N.3   404  ASN404     -0.1225
     35  CA        62.5150   39.6250   54.9320 C.3   404  ASN404      0.1785
     36  C         61.8720   39.3740   53.6040 C.2   404  ASN404      0.2597
     37  O         60.7890   39.8480   53.3160 O.2   404  ASN404     -0.2718
     38  CB        63.5690   40.7030   54.8210 C.3   404  ASN404      0.1169
     39  CG        64.0610   41.1450   56.1880 C.2   404  ASN404      0.2627
     40  OD1       63.2690   41.3160   57.1310 O.2   404  ASN404     -0.2716
     41  ND2       65.3670   41.2880   56.3160 N.am  404  ASN404     -0.0877
     42  N         62.5420   38.5570   52.8230 N.am  405  ALA405     -0.1979
     43  CA        62.1040   38.1850   51.4980 C.3   405  ALA405      0.1597
     44  C         60.7430   37.5210   51.5790 C.2   405  ALA405      0.2287
     45  O         59.9320   37.6170   50.6680 O.2   405  ALA405     -0.2864
     46  CB        63.1260   37.2510   50.8510 C.3   405  ALA405      0.0319
     47  N         57.9510   40.2140   52.7210 N.3   408  VAL408     -0.1231
     48  CA        57.5620   41.0280   51.6010 C.3   408  VAL408      0.1692
     49  C         56.7550   40.1710   50.6550 C.2   408  VAL408      0.2591
     50  O         55.7840   40.6540   50.0870 O.2   408  VAL408     -0.2718
     51  CB        58.7950   41.5820   50.8500 C.3   408  VAL408      0.0266
     52  CG1       58.3520   42.4120   49.6450 C.3   408  VAL408      0.0020
     53  CG2       59.6920   42.3880   51.8020 C.3   408  VAL408      0.0020
     54  N         57.1180   38.9010   50.5100 N.am  409  ARG409     -0.1980
     55  CA        56.3490   38.0230   49.6560 C.3   409  ARG409      0.1597
     56  C         54.9170   37.9260   50.1990 C.2   409  ARG409      0.2287
     57  O         53.9220   38.2800   49.5040 O.2   409  ARG409     -0.2864
     58  CB        56.9930   36.6150   49.5470 C.3   409  ARG409      0.0334
     59  CG        56.5860   35.8560   48.2710 C.3   409  ARG409      0.0492
     60  CD        57.1280   34.4310   48.2220 C.3   409  ARG409      0.2205
     61  NE        58.5020   34.4530   47.7610 N.pl3 409  ARG409     -0.0865
     62  CZ        59.3970   33.4840   47.9650 C.cat 409  ARG409      0.5346
     63  NH1       59.0800   32.3990   48.6360 N.pl3 409  ARG409      0.1354
     64  NH2       60.6290   33.6090   47.5000 N.pl3 409  ARG409      0.1354
     65  N         58.5380   46.6730   58.2650 N.3   528  LEU528     -0.1245
     66  CA        58.5990   46.2820   56.8730 C.3   528  LEU528      0.1561
     67  C         57.2720   45.6750   56.4120 C.2   528  LEU528      0.2260
     68  O         56.9180   45.8170   55.2520 O.2   528  LEU528     -0.2867
     69  CB        59.7280   45.2820   56.6500 C.3   528  LEU528      0.0270
     70  CG        59.7810   44.4590   55.3500 C.3   528  LEU528      0.0019
     71  CD1       59.8810   45.3870   54.1520 C.3   528  LEU528      0.0001
     72  CD2       60.9260   43.4330   55.2920 C.3   528  LEU528      0.0001
     73  N         62.2630   46.7290   46.1820 N.3   540  ASN540     -0.1240
     74  CA        62.9730   46.1200   47.2480 C.3   540  ASN540      0.1653
     75  C         63.9700   47.1200   47.7850 C.2   540  ASN540      0.2266
     76  O         64.0310   47.3410   48.9960 O.2   540  ASN540     -0.2867
     77  CB        63.6170   44.8380   46.7610 C.3   540  ASN540      0.1155
     78  CG        62.5790   43.7930   46.3410 C.2   540  ASN540      0.2627
     79  OD1       61.4090   43.8020   46.7990 O.2   540  ASN540     -0.2716
     80  ND2       63.0120   42.8550   45.4800 N.am  540  ASN540     -0.0877
     81  N         62.1560   49.8000   49.8350 N.3   543  LEU543     -0.1231
     82  CA        61.9250   49.0980   51.1150 C.3   543  LEU543      0.1693
     83  C         63.2000   48.8940   51.9540 C.2   543  LEU543      0.2591
     84  O         63.2310   49.2570   53.1210 O.2   543  LEU543     -0.2718
     85  CB        61.2580   47.7550   50.8370 C.3   543  LEU543      0.0284
     86  CG        59.8180   47.8010   50.3370 C.3   543  LEU543      0.0019
     87  CD1       59.3830   46.4370   49.8850 C.3   543  LEU543      0.0001
     88  CD2       58.9650   48.2710   51.4860 C.3   543  LEU543      0.0001
     89  N         64.2580   48.3630   51.3470 N.am  544  LYS544     -0.1980
     90  CA        65.5370   48.2200   52.0290 C.3   544  LYS544      0.1596
     91  C         66.0870   49.5110   52.5390 C.2   544  LYS544      0.2287
     92  O         66.8410   49.4870   53.5140 O.2   544  LYS544     -0.2864
     93  CB        66.6090   47.5460   51.1500 C.3   544  LYS544      0.0298
     94  CG        66.4280   46.0370   50.9350 C.3   544  LYS544      0.0038
     95  CD        67.2770   45.5230   49.7920 C.3   544  LYS544      0.0206
     96  CE        66.7050   44.2490   49.2000 C.3   544  LYS544      0.1093
     97  NZ        67.3210   44.0030   47.8690 N.3   544  LYS544     -0.1314
     98  N         63.8680   50.4770   55.8440 N.3   547  VAL547     -0.1245
     99  CA        64.2250   49.5330   56.8930 C.3   547  VAL547      0.1561
    100  C         65.6590   49.7750   57.3850 C.2   547  VAL547      0.2260
    101  O         65.9030   49.7920   58.5850 O.2   547  VAL547     -0.2867
    102  CB        63.9800   48.0850   56.4330 C.3   547  VAL547      0.0252
    103  CG1       64.6290   47.0940   57.3970 C.3   547  VAL547      0.0019
    104  CG2       62.4760   47.8600   56.2570 C.3   547  VAL547      0.0019
@<TRIPOS>BOND
     1    80    78   am
     2    73    74    1
     3    78    77    1
     4    78    79    2
     5    16    15    2
     6     7     6    1
     7    77    74    1
     8    15    14    1
     9    15    17   am
    10    14    13    1
    11    74    75    1
    12    64    62    1
    13     5     6    1
    14     5     2    1
    15     1     2    1
    16    61    62    2
    17    61    60    1
    18    75    76    2
    19     6     8    1
    20    97    96    1
    21     2     3    1
    22    62    63    1
    23    13    10    1
    24    60    59    1
    25    59    58    1
    26    96    95    1
    27    10     9    1
    28    10    11    1
    29     3     4    2
    30    57    56    2
    31    25    23    1
    32    58    55    1
    33    52    51    1
    34    55    56    1
    35    55    54    1
    36    95    94    1
    37    81    82    1
    38    87    86    1
    39    23    24    1
    40    23    22    1
    41    50    49    2
    42    11    12    2
    43    11    18   am
    44    86    85    1
    45    86    88    1
    46    54    49   am
    47    49    48    1
    48    45    44    2
    49    85    82    1
    50    51    48    1
    51    51    53    1
    52    46    43    1
    53    18    19    1
    54    94    93    1
    55    82    83    1
    56    93    90    1
    57    89    83   am
    58    89    90    1
    59    22    19    1
    60    43    44    1
    61    43    42    1
    62    48    47    1
    63    19    20    1
    64    83    84    2
    65    90    91    1
    66    91    92    2
    67    42    36   am
    68    20    21    2
    69    29    28    2
    70    37    36    2
    71    36    35    1
    72    33    31   am
    73    30    31    1
    74    30    27    1
    75    31    32    2
    76    28    27    1
    77    71    70    1
    78    27    26    1
    79    38    35    1
    80    38    39    1
    81    35    34    1
    82    68    67    2
    83    72    70    1
    84    70    69    1
    85    98    99    1
    86    39    41   am
    87    39    40    2
    88   104   102    1
    89    67    66    1
    90   102    99    1
    91   102   103    1
    92    69    66    1
    93    66    65    1
    94    99   100    1
    95   100   101    2
