@<TRIPOS>MOLECULE
tmp/4po0A00.pdb
 156 146 0 0 0
SMALL
GASTEIGER

@<TRIPOS>ATOM
      1  N         61.2430   23.5750   43.7750 N.3   386  LEU386     -0.1231
      2  CA        60.9510   24.6910   44.6520 C.3   386  LEU386      0.1693
      3  C         61.9590   24.8050   45.7750 C.2   386  LEU386      0.2591
      4  O         62.5850   25.8630   45.9640 O.2   386  LEU386     -0.2718
      5  CB        59.5580   24.5610   45.2360 C.3   386  LEU386      0.0284
      6  CG        58.9850   25.9320   45.5520 C.3   386  LEU386      0.0019
      7  CD1       59.3680   26.9710   44.4930 C.3   386  LEU386      0.0001
      8  CD2       57.4760   25.7850   45.6850 C.3   386  LEU386      0.0001
      9  N         62.1020   23.7090   46.5160 N.am  387  VAL387     -0.1980
     10  CA        63.1250   23.5940   47.5260 C.3   387  VAL387      0.1595
     11  C         64.5360   24.0090   47.0490 C.2   387  VAL387      0.2287
     12  O         65.2230   24.8090   47.7180 O.2   387  VAL387     -0.2864
     13  CB        63.2060   22.1710   48.0240 C.3   387  VAL387      0.0276
     14  CG1       64.5630   21.9210   48.6380 C.3   387  VAL387      0.0022
     15  CG2       62.0840   21.8770   49.0020 C.3   387  VAL387      0.0022
     16  N         64.4420   27.6530   46.6350 N.3   390  ASN390     -0.1225
     17  CA        64.3950   28.4320   47.8220 C.3   390  ASN390      0.1785
     18  C         65.6560   28.3320   48.6310 C.2   390  ASN390      0.2597
     19  O         66.2200   29.3660   49.0050 O.2   390  ASN390     -0.2718
     20  CB        63.0850   28.2760   48.5750 C.3   390  ASN390      0.1169
     21  CG        61.9710   29.0410   47.8960 C.2   390  ASN390      0.2627
     22  OD1       60.9820   28.4590   47.4870 O.2   390  ASN390     -0.2716
     23  ND2       62.1750   30.3410   47.6860 N.am  390  ASN390     -0.0877
     24  N         66.1520   27.1020   48.8270 N.am  391  CYS391     -0.1970
     25  CA        67.4470   26.9130   49.5190 C.3   391  CYS391      0.1712
     26  C         68.6020   27.6020   48.8260 C.2   391  CYS391      0.2296
     27  O         69.5950   27.9230   49.4610 O.2   391  CYS391     -0.2864
     28  CB        67.7920   25.4690   49.6930 C.3   391  CYS391      0.0983
     29  SG        66.8560   24.6910   51.0110 S.3   391  CYS391     -0.0798
     30  N         66.2780   36.2810   54.5760 N.3   402  PHE402     -0.1241
     31  CA        65.4630   35.2300   53.9710 C.3   402  PHE402      0.1605
     32  C         64.1030   35.4830   54.5470 C.2   402  PHE402      0.2264
     33  O         63.1210   35.5230   53.7990 O.2   402  PHE402     -0.2867
     34  CB        65.9760   33.8010   54.1980 C.3   402  PHE402      0.0534
     35  CG        65.1740   32.7300   53.5170 C.ar  402  PHE402     -0.0203
     36  CD1       64.8850   32.7780   52.1270 C.ar  402  PHE402     -0.0042
     37  CD2       64.7370   31.5960   54.2510 C.ar  402  PHE402     -0.0042
     38  CE1       64.1660   31.7330   51.4960 C.ar  402  PHE402     -0.0003
     39  CE2       63.9950   30.5600   53.6220 C.ar  402  PHE402     -0.0003
     40  CZ        63.7010   30.6450   52.2490 C.ar  402  PHE402     -0.0000
     41  N         60.4780   36.8420   52.6730 N.3   406  LEU406     -0.1245
     42  CA        59.2050   36.2010   52.7670 C.3   406  LEU406      0.1561
     43  C         58.1260   37.1360   53.2970 C.2   406  LEU406      0.2260
     44  O         56.9480   37.0740   52.8540 O.2   406  LEU406     -0.2867
     45  CB        59.3340   34.9390   53.5950 C.3   406  LEU406      0.0270
     46  CG        60.1170   33.7970   52.9140 C.3   406  LEU406      0.0019
     47  CD1       60.5080   32.8480   54.0040 C.3   406  LEU406      0.0001
     48  CD2       59.2480   33.0890   51.9150 C.3   406  LEU406      0.0001
     49  N         57.1180   38.9010   50.5100 N.3   409  ARG409     -0.1231
     50  CA        56.3490   38.0230   49.6560 C.3   409  ARG409      0.1694
     51  C         54.9170   37.9260   50.1990 C.2   409  ARG409      0.2592
     52  O         53.9220   38.2800   49.5040 O.2   409  ARG409     -0.2718
     53  CB        56.9930   36.6150   49.5470 C.3   409  ARG409      0.0321
     54  CG        56.5860   35.8560   48.2710 C.3   409  ARG409      0.0489
     55  CD        57.1280   34.4310   48.2220 C.3   409  ARG409      0.2205
     56  NE        58.5020   34.4530   47.7610 N.pl3 409  ARG409     -0.0865
     57  CZ        59.3970   33.4840   47.9650 C.cat 409  ARG409      0.5346
     58  NH1       59.0800   32.3990   48.6360 N.pl3 409  ARG409      0.1354
     59  NH2       60.6290   33.6090   47.5000 N.pl3 409  ARG409      0.1354
     60  N         54.8390   37.4930   51.4520 N.am  410  TYR410     -0.1976
     61  CA        53.6220   37.1440   52.0570 C.3   410  TYR410      0.1639
     62  C         52.6760   38.2940   52.2230 C.2   410  TYR410      0.2290
     63  O         51.5090   38.2160   51.8780 O.2   410  TYR410     -0.2864
     64  CB        53.9180   36.4070   53.3510 C.3   410  TYR410      0.0560
     65  CG        53.8240   34.9340   53.0170 C.ar  410  TYR410     -0.0198
     66  CD1       52.6060   34.2730   53.1030 C.ar  410  TYR410     -0.0009
     67  CD2       54.9110   34.2290   52.4900 C.ar  410  TYR410     -0.0009
     68  CE1       52.4770   32.9630   52.6960 C.ar  410  TYR410      0.0417
     69  CE2       54.7730   32.9160   52.1130 C.ar  410  TYR410      0.0417
     70  CZ        53.5560   32.2970   52.2150 C.ar  410  TYR410      0.1957
     71  OH        53.3830   30.9770   51.8310 O.3   410  TYR410     -0.2866
     72  N         51.0120   38.6890   49.0760 N.3   413  LYS413     -0.1245
     73  CA        50.0980   37.5910   48.7950 C.3   413  LYS413      0.1561
     74  C         48.7210   37.7890   49.4250 C.2   413  LYS413      0.2260
     75  O         47.6820   37.5010   48.8030 O.2   413  LYS413     -0.2867
     76  CB        50.6930   36.2550   49.2960 C.3   413  LYS413      0.0271
     77  CG        51.3250   35.3600   48.2270 C.3   413  LYS413      0.0035
     78  CD        52.4210   34.3940   48.7270 C.3   413  LYS413      0.0206
     79  CE        52.8490   33.4130   47.6220 C.3   413  LYS413      0.1093
     80  NZ        54.2710   32.9730   47.7950 N.3   413  LYS413     -0.1314
     81  N         58.4270   30.6150   58.3270 N.3   429  LEU429     -0.1245
     82  CA        58.6770   30.1250   57.0010 C.3   429  LEU429      0.1561
     83  C         60.1680   30.2670   56.7390 C.2   429  LEU429      0.2260
     84  O         60.8510   29.2940   56.4110 O.2   429  LEU429     -0.2867
     85  CB        57.8540   30.9010   55.9610 C.3   429  LEU429      0.0270
     86  CG        56.3840   30.4790   55.9950 C.3   429  LEU429      0.0019
     87  CD1       55.5370   31.3440   55.0930 C.3   429  LEU429      0.0001
     88  CD2       56.1720   29.0440   55.5690 C.3   429  LEU429      0.0001
     89  N         62.7360   27.6030   57.8090 N.3   432  VAL432     -0.1231
     90  CA        62.8940   26.3550   57.0650 C.3   432  VAL432      0.1692
     91  C         64.2630   26.2900   56.4920 C.2   432  VAL432      0.2592
     92  O         64.8890   25.2380   56.5330 O.2   432  VAL432     -0.2718
     93  CB        62.0420   26.2350   55.8230 C.3   432  VAL432      0.0266
     94  CG1       62.0420   24.7690   55.4600 C.3   432  VAL432      0.0020
     95  CG2       60.5960   26.5950   56.0560 C.3   432  VAL432      0.0020
     96  N         64.7240   27.3980   55.9180 N.am  433  GLY433     -0.1957
     97  CA        66.0340   27.4080   55.2510 C.3   433  GLY433      0.1869
     98  C         67.1210   26.9580   56.1790 C.2   433  GLY433      0.2309
     99  O         67.9330   26.0610   55.8910 O.2   433  GLY433     -0.2863
    100  N         68.0770   23.3310   54.5370 N.3   437  CYS437     -0.1235
    101  CA        68.9730   23.4050   53.4000 C.3   437  CYS437      0.1677
    102  C         70.3310   22.7930   53.7250 C.2   437  CYS437      0.2270
    103  O         71.0730   22.3930   52.8230 O.2   437  CYS437     -0.2867
    104  CB        69.1100   24.8480   52.9620 C.3   437  CYS437      0.0956
    105  SG        67.4750   25.5740   52.7100 S.3   437  CYS437     -0.0801
    106  N         61.5500   19.9760   54.5520 N.3   448  VAL448     -0.1245
    107  CA        60.9330   21.2120   54.1940 C.3   448  VAL448      0.1561
    108  C         59.3910   21.2230   54.2180 C.2   448  VAL448      0.2260
    109  O         58.7680   22.0530   54.9100 O.2   448  VAL448     -0.2867
    110  CB        61.4940   21.6490   52.8350 C.3   448  VAL448      0.0252
    111  CG1       60.8490   22.9520   52.3280 C.3   448  VAL448      0.0019
    112  CG2       62.9820   21.7920   53.0100 C.3   448  VAL448      0.0019
    113  N         56.9810   23.3420   56.5120 N.3   452  LEU452     -0.1245
    114  CA        55.9360   24.1780   55.9320 C.3   452  LEU452      0.1561
    115  C         54.4880   23.7840   56.3120 C.2   452  LEU452      0.2260
    116  O         53.6280   24.6930   56.4120 O.2   452  LEU452     -0.2867
    117  CB        56.0230   24.2180   54.4120 C.3   452  LEU452      0.0270
    118  CG        57.3230   24.8240   53.8740 C.3   452  LEU452      0.0019
    119  CD1       57.4350   24.8660   52.3420 C.3   452  LEU452      0.0001
    120  CD2       57.5580   26.2090   54.4630 C.3   452  LEU452      0.0001
    121  N         52.1600   26.6900   57.8340 N.3   456  LEU456     -0.1245
    122  CA        51.0080   27.1320   57.0700 C.3   456  LEU456      0.1561
    123  C         49.8010   26.9170   57.9380 C.2   456  LEU456      0.2260
    124  O         48.9130   27.8000   58.0690 O.2   456  LEU456     -0.2867
    125  CB        50.9110   26.3430   55.7810 C.3   456  LEU456      0.0270
    126  CG        51.9800   26.7980   54.7900 C.3   456  LEU456      0.0019
    127  CD1       52.2070   25.7960   53.6970 C.3   456  LEU456      0.0001
    128  CD2       51.6850   28.1830   54.1990 C.3   456  LEU456      0.0001
    129  N         50.1330   23.7980   50.8670 N.3   484  ARG484     -0.1245
    130  CA        51.3840   24.4880   50.4800 C.3   484  ARG484      0.1563
    131  C         51.4760   24.9250   49.0150 C.2   484  ARG484      0.2260
    132  O         51.7790   26.1160   48.7630 O.2   484  ARG484     -0.2867
    133  CB        52.6260   23.6820   50.8590 C.3   484  ARG484      0.0307
    134  CG        53.9340   24.4450   50.6950 C.3   484  ARG484      0.0489
    135  CD        54.3800   24.5770   49.2380 C.3   484  ARG484      0.2205
    136  NE        54.5450   23.2620   48.6240 N.pl3 484  ARG484     -0.0865
    137  CZ        54.6780   23.0750   47.3220 C.cat 484  ARG484      0.5346
    138  NH1       54.6860   24.1470   46.5290 N.pl3 484  ARG484      0.1354
    139  NH2       54.8040   21.8400   46.8210 N.pl3 484  ARG484      0.1354
    140  N         49.2080   27.8990   48.8190 N.3   487  PHE487     -0.1227
    141  CA        49.8250   29.1350   49.2940 C.3   487  PHE487      0.1736
    142  C         50.9790   29.5880   48.3720 C.2   487  PHE487      0.2596
    143  O         51.2370   30.7840   48.2480 O.2   487  PHE487     -0.2718
    144  CB        50.2930   29.0130   50.7340 C.3   487  PHE487      0.0547
    145  CG        49.2110   29.2360   51.7550 C.ar  487  PHE487     -0.0202
    146  CD1       48.6750   30.5380   51.9660 C.ar  487  PHE487     -0.0042
    147  CD2       48.7440   28.1780   52.5660 C.ar  487  PHE487     -0.0042
    148  CE1       47.6910   30.7590   52.9360 C.ar  487  PHE487     -0.0003
    149  CE2       47.7660   28.4000   53.5370 C.ar  487  PHE487     -0.0003
    150  CZ        47.2390   29.6820   53.7210 C.ar  487  PHE487     -0.0000
    151  N         51.6340   28.6400   47.6920 N.am  488  SER488     -0.1952
    152  CA        52.7780   28.9670   46.8070 C.3   488  SER488      0.1924
    153  C         52.3260   29.5940   45.4940 C.2   488  SER488      0.2314
    154  O         53.0150   30.4580   44.8990 O.2   488  SER488     -0.2863
    155  CB        53.6350   27.7300   46.5490 C.3   488  SER488      0.2116
    156  OG        54.5020   27.5230   47.6550 O.3   488  SER488     -0.2180
@<TRIPOS>BOND
     1     1     2    1
     2     7     6    1
     3     2     5    1
     4     2     3    1
     5   154   153    2
     6     5     6    1
     7   153   152    1
     8     6     8    1
     9     3     4    2
    10     3     9   am
    11     9    10    1
    12   138   137    1
    13   155   152    1
    14   155   156    1
    15    16    17    1
    16   152   151    1
    17   139   137    1
    18    11    10    1
    19    11    12    2
    20   137   136    2
    21    22    21    2
    22    59    57    1
    23    10    13    1
    24    79    80    1
    25    79    78    1
    26    23    21   am
    27   151   142   am
    28    56    57    2
    29    56    55    1
    30    17    20    1
    31    17    18    1
    32    21    20    1
    33    57    58    1
    34    13    14    1
    35    13    15    1
    36    55    54    1
    37    77    78    1
    38    77    76    1
    39   143   142    2
    40    54    53    1
    41   142   141    1
    42   136   135    1
    43    18    24   am
    44    18    19    2
    45   132   131    2
    46    73    72    1
    47    73    76    1
    48    73    74    1
    49    75    74    2
    50   140   141    1
    51    26    27    2
    52    26    25    1
    53    24    25    1
    54   131   130    1
    55   135   134    1
    56   141   144    1
    57    52    51    2
    58    25    28    1
    59    53    50    1
    60    50    51    1
    61    50    49    1
    62    28    29    1
    63    51    60   am
    64   130   133    1
    65   130   129    1
    66   134   133    1
    67   144   145    1
    68    29   105    1
    69    60    61    1
    70    38    36   ar
    71    38    40   ar
    72   145   146   ar
    73   145   147   ar
    74    71    70    1
    75    63    62    2
    76    48    46    1
    77   146   148   ar
    78    61    62    1
    79    61    64    1
    80    69    70   ar
    81    69    67   ar
    82    36    35   ar
    83    70    68   ar
    84    40    39   ar
    85   111   110    1
    86   119   118    1
    87    67    65   ar
    88   147   149   ar
    89    41    42    1
    90    68    66   ar
    91   105   104    1
    92    42    43    1
    93    42    45    1
    94   103   102    2
    95   110   112    1
    96   110   107    1
    97    44    43    2
    98    46    45    1
    99    46    47    1
   100   148   150   ar
   101   104   101    1
   102    65    66   ar
   103    65    64    1
   104   101   102    1
   105   101   100    1
   106    35    34    1
   107    35    37   ar
   108   149   150   ar
   109    39    37   ar
   110   127   126    1
   111    33    32    2
   112   118   117    1
   113   118   120    1
   114    31    34    1
   115    31    32    1
   116    31    30    1
   117   107   108    1
   118   107   106    1
   119   128   126    1
   120   108   109    2
   121   117   114    1
   122   126   125    1
   123    87    86    1
   124    97    96    1
   125    97    98    1
   126    94    93    1
   127    88    86    1
   128   125   122    1
   129    93    95    1
   130    93    90    1
   131    99    98    2
   132    96    91   am
   133   114   115    1
   134   114   113    1
   135    85    86    1
   136    85    82    1
   137   115   116    2
   138    84    83    2
   139    91    92    2
   140    91    90    1
   141    83    82    1
   142    82    81    1
   143    90    89    1
   144   122   121    1
   145   122   123    1
   146   123   124    2
