@<TRIPOS>MOLECULE
tmp/4po0A01.pdb
 136 124 0 0 0
SMALL
GASTEIGER

@<TRIPOS>ATOM
      1  N         39.8010   10.4540   59.5550 N.3   208  ARG208     -0.1231
      2  CA        40.4760    9.9300   58.3490 C.3   208  ARG208      0.1694
      3  C         41.7160   10.7170   57.8940 C.2   208  ARG208      0.2591
      4  O         42.7260   10.1330   57.4480 O.2   208  ARG208     -0.2718
      5  CB        39.4890    9.7690   57.2170 C.3   208  ARG208      0.0321
      6  CG        38.3220    8.8830   57.6390 C.3   208  ARG208      0.0489
      7  CD        37.5490    8.3410   56.4430 C.3   208  ARG208      0.2205
      8  NE        38.0240    9.0130   55.2280 N.pl3 208  ARG208     -0.0865
      9  CZ        38.5410    8.4110   54.1630 C.cat 208  ARG208      0.5346
     10  NH1       38.9570    9.1670   53.1520 N.pl3 208  ARG208      0.1354
     11  NH2       38.6370    7.0740   54.1110 N.pl3 208  ARG208      0.1354
     12  N         41.6480   12.0260   58.0140 N.am  209  ALA209     -0.1980
     13  CA        42.7830   12.8510   57.6420 C.3   209  ALA209      0.1597
     14  C         44.0130   12.5770   58.5190 C.2   209  ALA209      0.2287
     15  O         45.1020   12.3800   57.9750 O.2   209  ALA209     -0.2864
     16  CB        42.4370   14.3400   57.6970 C.3   209  ALA209      0.0319
     17  N         44.4110    9.9550   60.2310 N.3   211  LYS211     -0.1231
     18  CA        44.7260    8.5610   60.0050 C.3   211  LYS211      0.1693
     19  C         45.6810    8.4230   58.8390 C.2   211  LYS211      0.2591
     20  O         46.7840    7.8620   58.9720 O.2   211  LYS211     -0.2718
     21  CB        43.4880    7.7870   59.6990 C.3   211  LYS211      0.0285
     22  CG        42.6860    7.3750   60.9050 C.3   211  LYS211      0.0035
     23  CD        42.3300    5.9020   60.7380 C.3   211  LYS211      0.0206
     24  CE        41.3680    5.4150   61.8210 C.3   211  LYS211      0.1093
     25  NZ        40.1690    6.2810   61.8130 N.3   211  LYS211     -0.1314
     26  N         45.2550    8.9970   57.7240 N.am  212  ALA212     -0.1980
     27  CA        45.9330    8.8950   56.4530 C.3   212  ALA212      0.1597
     28  C         47.3370    9.4400   56.6110 C.2   212  ALA212      0.2287
     29  O         48.3320    8.8480   56.0990 O.2   212  ALA212     -0.2864
     30  CB        45.1750    9.7120   55.4300 C.3   212  ALA212      0.0319
     31  N         49.4570    7.1100   58.7310 N.3   215  LEU215     -0.1245
     32  CA        49.8670    5.9060   58.0680 C.3   215  LEU215      0.1561
     33  C         51.0600    6.2470   57.2010 C.2   215  LEU215      0.2260
     34  O         52.1220    5.6400   57.3350 O.2   215  LEU215     -0.2867
     35  CB        48.7020    5.3510   57.2340 C.3   215  LEU215      0.0270
     36  CG        48.7610    4.2840   56.1170 C.3   215  LEU215      0.0019
     37  CD1       49.0040    2.9150   56.6630 C.3   215  LEU215      0.0001
     38  CD2       47.3970    4.2320   55.4700 C.3   215  LEU215      0.0001
     39  N         51.3820   -4.0940   57.2030 N.3   227  PHE227     -0.1241
     40  CA        50.2390   -3.1520   57.1760 C.3   227  PHE227      0.1605
     41  C         49.2530   -3.3440   58.3500 C.2   227  PHE227      0.2264
     42  O         48.6560   -2.3940   58.8770 O.2   227  PHE227     -0.2867
     43  CB        49.5310   -3.3060   55.8570 C.3   227  PHE227      0.0534
     44  CG        48.3680   -2.4360   55.6950 C.ar  227  PHE227     -0.0203
     45  CD1       48.5210   -1.0770   55.5360 C.ar  227  PHE227     -0.0042
     46  CD2       47.1100   -2.9720   55.6400 C.ar  227  PHE227     -0.0042
     47  CE1       47.4270   -0.2450   55.3480 C.ar  227  PHE227     -0.0003
     48  CE2       45.9960   -2.1600   55.4790 C.ar  227  PHE227     -0.0003
     49  CZ        46.1530   -0.7820   55.3370 C.ar  227  PHE227     -0.0000
     50  N         48.6400   -0.2500   60.8630 N.3   231  SER231     -0.1217
     51  CA        47.2850    0.1970   61.1400 C.3   231  SER231      0.1889
     52  C         46.9550    0.2500   62.6260 C.2   231  SER231      0.2288
     53  O         46.2830    1.1950   63.0710 O.2   231  SER231     -0.2866
     54  CB        46.3260   -0.7060   60.4860 C.3   231  SER231      0.2089
     55  OG        46.5860   -0.6330   59.1260 O.3   231  SER231     -0.2183
     56  N         48.5220    3.3410   63.9970 N.3   234  VAL234     -0.1245
     57  CA        47.6850    4.4410   63.5240 C.3   234  VAL234      0.1561
     58  C         46.3610    4.5670   64.2830 C.2   234  VAL234      0.2260
     59  O         45.9450    5.6590   64.7020 O.2   234  VAL234     -0.2867
     60  CB        47.4080    4.2280   62.0400 C.3   234  VAL234      0.0252
     61  CG1       46.2810    5.1170   61.5160 C.3   234  VAL234      0.0019
     62  CG2       48.6900    4.4960   61.2770 C.3   234  VAL234      0.0019
     63  N         37.4370    0.4900   49.3270 N.3   322  LYS322     -0.1231
     64  CA        38.2770    1.6560   48.9510 C.3   322  LYS322      0.1693
     65  C         39.3020    2.0720   50.0210 C.2   322  LYS322      0.2592
     66  O         40.4370    2.4770   49.6750 O.2   322  LYS322     -0.2718
     67  CB        37.4000    2.8440   48.5690 C.3   322  LYS322      0.0285
     68  CG        38.1300    4.1560   48.2020 C.3   322  LYS322      0.0035
     69  CD        37.3750    5.4500   48.5400 C.3   322  LYS322      0.0206
     70  CE        37.2120    5.6470   50.0620 C.3   322  LYS322      0.1093
     71  NZ        38.4820    5.9380   50.8590 N.3   322  LYS322     -0.1314
     72  N         38.9260    1.9910   51.3040 N.am  323  ASP323     -0.1974
     73  CA        39.8470    2.4290   52.3500 C.3   323  ASP323      0.1709
     74  C         40.9770    1.4420   52.4730 C.2   323  ASP323      0.2293
     75  O         42.1630    1.8350   52.4390 O.2   323  ASP323     -0.2864
     76  CB        39.1430    2.5830   53.6730 C.3   323  ASP323      0.1436
     77  CG        38.8850    4.0130   54.0070 C.2   323  ASP323      0.3671
     78  OD1       39.4130    4.8670   53.2800 O.co2 323  ASP323     -0.2456
     79  OD2       38.1600    4.2970   54.9950 O.co2 323  ASP323     -0.2456
     80  N         43.3020    1.7160   49.5970 N.3   326  LEU326     -0.1231
     81  CA        44.0980    2.9730   49.3840 C.3   326  LEU326      0.1693
     82  C         45.1380    3.1810   50.4620 C.2   326  LEU326      0.2592
     83  O         46.2250    3.7140   50.2110 O.2   326  LEU326     -0.2718
     84  CB        43.2600    4.2360   49.1160 C.3   326  LEU326      0.0284
     85  CG        42.5930    4.1450   47.7490 C.3   326  LEU326      0.0019
     86  CD1       41.5150    5.1640   47.6090 C.3   326  LEU326      0.0001
     87  CD2       43.5930    4.3550   46.6250 C.3   326  LEU326      0.0001
     88  N         44.8040    2.6790   51.6390 N.am  327  GLY327     -0.1957
     89  CA        45.7600    2.6070   52.7150 C.3   327  GLY327      0.1869
     90  C         46.8790    1.7260   52.2550 C.2   327  GLY327      0.2309
     91  O         48.0340    2.1660   52.3060 O.2   327  GLY327     -0.2863
     92  N         48.9380    3.8470   50.2020 N.3   330  LEU330     -0.1245
     93  CA        49.7470    4.7920   51.0240 C.3   330  LEU330      0.1561
     94  C         50.8220    4.0160   51.7960 C.2   330  LEU330      0.2260
     95  O         51.9690    4.4720   51.8460 O.2   330  LEU330     -0.2867
     96  CB        48.9470    5.6800   51.9820 C.3   330  LEU330      0.0270
     97  CG        47.8140    6.5120   51.3820 C.3   330  LEU330      0.0019
     98  CD1       46.7370    6.9670   52.3910 C.3   330  LEU330      0.0001
     99  CD2       48.3230    7.6330   50.4480 C.3   330  LEU330      0.0001
    100  N         50.8560   11.9630   50.5110 N.3   346  LEU346     -0.1245
    101  CA        49.4110   12.1920   50.5350 C.3   346  LEU346      0.1561
    102  C         48.8250   12.6870   49.1960 C.2   346  LEU346      0.2260
    103  O         47.7820   12.1900   48.7290 O.2   346  LEU346     -0.2867
    104  CB        48.9980   13.1210   51.6610 C.3   346  LEU346      0.0270
    105  CG        49.2530   12.5670   53.0640 C.3   346  LEU346      0.0019
    106  CD1       48.9380   13.6660   54.0700 C.3   346  LEU346      0.0001
    107  CD2       48.5040   11.2860   53.4150 C.3   346  LEU346      0.0001
    108  N         48.9270    9.7070   46.6240 N.3   349  GLY349     -0.1210
    109  CA        47.8110    8.8360   46.8850 C.3   349  GLY349      0.1956
    110  C         46.4590    9.4190   46.4910 C.2   349  GLY349      0.2611
    111  O         45.5120    8.6710   46.2880 O.2   349  GLY349     -0.2717
    112  N         46.3870   10.7490   46.4220 N.am  350  LYS350     -0.1979
    113  CA        45.1880   11.4640   46.1410 C.3   350  LYS350      0.1596
    114  C         44.9790   11.4270   44.5920 C.2   350  LYS350      0.2287
    115  O         43.8740   11.1270   44.0950 O.2   350  LYS350     -0.2864
    116  CB        45.3150   12.8580   46.7430 C.3   350  LYS350      0.0298
    117  CG        44.1840   13.8030   46.3960 C.3   350  LYS350      0.0038
    118  CD        44.0740   14.8730   47.4570 C.3   350  LYS350      0.0206
    119  CE        43.4180   16.1860   46.9950 C.3   350  LYS350      0.1093
    120  NZ        43.1340   17.0980   48.1760 N.3   350  LYS350     -0.1314
    121  N         44.0330    8.0640   43.6880 N.3   353  GLU353     -0.1245
    122  CA        42.6010    7.9070   43.8280 C.3   353  GLU353      0.1567
    123  C         41.8320    8.5530   42.6450 C.2   353  GLU353      0.2260
    124  O         41.0270    7.8780   41.9970 O.2   353  GLU353     -0.2867
    125  CB        42.0950    8.4210   45.1720 C.3   353  GLU353      0.0388
    126  CG        40.5720    8.5550   45.2130 C.3   353  GLU353      0.1160
    127  CD        39.9840    8.4210   46.6040 C.2   353  GLU353      0.3649
    128  OE1       40.6030    8.9140   47.5640 O.co2 353  GLU353     -0.2457
    129  OE2       38.8950    7.8070   46.7290 O.co2 353  GLU353     -0.2457
    130  N         46.1550   18.5360   52.3080 N.3   481  VAL481     -0.1245
    131  CA        47.2990   18.0530   51.6160 C.3   481  VAL481      0.1561
    132  C         47.8780   19.0910   50.6470 C.2   481  VAL481      0.2260
    133  O         49.1190   19.2220   50.5230 O.2   481  VAL481     -0.2867
    134  CB        46.8190   16.7560   50.9190 C.3   481  VAL481      0.0252
    135  CG1       47.3300   16.6210   49.5090 C.3   481  VAL481      0.0019
    136  CG2       47.1790   15.5670   51.7730 C.3   481  VAL481      0.0019
@<TRIPOS>BOND
     1   124   123    2
     2   123   122    1
     3   121   122    1
     4   122   125    1
     5   115   114    2
     6   114   113    1
     7   125   126    1
     8   126   127    1
     9   113   112    1
    10   113   116    1
    11   111   110    2
    12   117   116    1
    13   117   118    1
    14   112   110   am
    15   110   109    1
    16   127   129   ar
    17   127   128   ar
    18   108   109    1
    19    87    85    1
    20   119   118    1
    21   119   120    1
    22    86    85    1
    23    85    84    1
    24    68    69    1
    25    68    67    1
    26    69    70    1
    27    67    64    1
    28   103   102    2
    29    64    63    1
    30    64    65    1
    31    84    81    1
    32   102   101    1
    33    81    80    1
    34    81    82    1
    35   135   134    1
    36    66    65    2
    37    65    72   am
    38    70    71    1
    39    92    93    1
    40    83    82    2
    41    99    97    1
    42    82    88   am
    43   100   101    1
    44   133   132    2
    45   101   104    1
    46   132   131    1
    47   134   131    1
    48   134   136    1
    49    93    94    1
    50    93    96    1
    51    72    73    1
    52    97    96    1
    53    97    98    1
    54   131   130    1
    55    88    89    1
    56   104   105    1
    57    94    95    2
    58    90    91    2
    59    90    89    1
    60    73    74    1
    61    73    76    1
    62    75    74    2
    63   105   107    1
    64   105   106    1
    65    10     9    1
    66    78    77   ar
    67    76    77    1
    68    77    79   ar
    69    11     9    1
    70     9     8    2
    71     8     7    1
    72    49    47   ar
    73    49    48   ar
    74    47    45   ar
    75    30    27    1
    76    38    36    1
    77    48    46   ar
    78    45    44   ar
    79    46    44   ar
    80    44    43    1
    81    43    40    1
    82    29    28    2
    83    36    37    1
    84    36    35    1
    85     7     6    1
    86    27    28    1
    87    27    26    1
    88    40    39    1
    89    40    41    1
    90    33    34    2
    91    33    32    1
    92     5     6    1
    93     5     2    1
    94    35    32    1
    95     4     3    2
    96    13    16    1
    97    13    12    1
    98    13    14    1
    99    26    19   am
   100     3    12   am
   101     3     2    1
   102    15    14    2
   103    32    31    1
   104     2     1    1
   105    41    42    2
   106    19    20    2
   107    19    18    1
   108    55    54    1
   109    21    18    1
   110    21    22    1
   111    18    17    1
   112    54    51    1
   113    23    22    1
   114    23    24    1
   115    50    51    1
   116    51    52    1
   117    62    60    1
   118    61    60    1
   119    25    24    1
   120    60    57    1
   121    52    53    2
   122    57    56    1
   123    57    58    1
   124    58    59    2
