@<TRIPOS>MOLECULE
tmp/4po2A00.pdb
 208 201 0 0 0
SMALL
GASTEIGER

@<TRIPOS>ATOM
      1  N         47.0510   23.2900   70.8140 N.3    18  LEU18      -0.1231
      2  CA        47.0410   22.3850   71.9550 C.3    18  LEU18       0.1693
      3  C         46.6320   23.0960   73.2360 C.2    18  LEU18       0.2592
      4  O         46.6510   24.3300   73.3080 O.2    18  LEU18      -0.2718
      5  CB        48.4000   21.6950   72.1360 C.3    18  LEU18       0.0284
      6  CG        49.5170   22.4450   72.8650 C.3    18  LEU18       0.0019
      7  CD1       50.6990   21.5210   73.1210 C.3    18  LEU18       0.0001
      8  CD2       49.9720   23.6540   72.0730 C.3    18  LEU18       0.0001
      9  N         46.2390   22.3150   74.2380 N.am   19  GLU19      -0.1966
     10  CA        45.8420   22.8930   75.5190 C.3    19  GLU19       0.1733
     11  C         47.0530   23.3120   76.3480 C.2    19  GLU19       0.2617
     12  O         47.9510   22.5100   76.6000 O.2    19  GLU19      -0.2715
     13  CB        44.9900   21.9080   76.3250 C.3    19  GLU19       0.0429
     14  CG        44.4170   22.5070   77.6100 C.3    19  GLU19       0.1163
     15  CD        43.4920   21.5580   78.3450 C.2    19  GLU19       0.3649
     16  OE1       42.5430   21.0430   77.7180 O.co2  19  GLU19      -0.2457
     17  OE2       43.7140   21.3250   79.5510 O.co2  19  GLU19      -0.2457
     18  N         47.0690   24.5750   76.7640 N.am   20  THR20      -0.1937
     19  CA        48.0580   25.0580   77.7200 C.3    20  THR20       0.2028
     20  C         47.3850   25.3430   79.0610 C.2    20  THR20       0.2642
     21  O         46.1530   25.4070   79.1430 O.2    20  THR20      -0.2714
     22  CB        48.7990   26.3150   77.2120 C.3    20  THR20       0.1808
     23  OG1       47.8520   27.3280   76.8520 O.3    20  THR20      -0.2208
     24  CG2       49.6560   25.9720   76.0010 C.3    20  THR20       0.0379
     25  N         48.2050   25.5240   80.0950 N.am   21  ALA21      -0.1963
     26  CA        47.7370   25.6230   81.4800 C.3    21  ALA21       0.1728
     27  C         46.5650   26.5850   81.6720 C.2    21  ALA21       0.2616
     28  O         46.6060   27.7300   81.2160 O.2    21  ALA21      -0.2715
     29  CB        48.8900   26.0030   82.4010 C.3    21  ALA21       0.0334
     30  N         45.5230   26.1040   82.3450 N.am   22  GLY22      -0.1955
     31  CA        44.3100   26.8760   82.5400 C.3    22  GLY22       0.1869
     32  C         43.2230   26.4670   81.5670 C.2    22  GLY22       0.2309
     33  O         42.1230   27.0220   81.5810 O.2    22  GLY22      -0.2863
     34  N         45.8180   27.0790   72.6980 N.3    26  THR26      -0.1218
     35  CA        46.9680   27.7650   72.1230 C.3    26  THR26       0.1862
     36  C         47.1960   27.2680   70.7070 C.2    26  THR26       0.2287
     37  O         47.6430   26.1400   70.4930 O.2    26  THR26      -0.2866
     38  CB        48.2440   27.5660   72.9540 C.3    26  THR26       0.1770
     39  OG1       48.0740   28.1610   74.2470 O.3    26  THR26      -0.2211
     40  CG2       49.4300   28.2220   72.2630 C.3    26  THR26       0.0375
     41  N         56.5220   25.7410   68.2150 N.3    41  GLN41      -0.1231
     42  CA        56.5680   26.6060   69.3840 C.3    41  GLN41       0.1698
     43  C         57.1480   25.8180   70.5540 C.2    41  GLN41       0.2592
     44  O         56.9370   24.6130   70.6600 O.2    41  GLN41      -0.2718
     45  CB        55.1640   27.1210   69.7040 C.3    41  GLN41       0.0381
     46  CG        55.0910   28.1150   70.8540 C.3    41  GLN41       0.0905
     47  CD        53.7620   28.8460   70.8990 C.2    41  GLN41       0.2608
     48  OE1       53.0270   28.8850   69.9100 O.2    41  GLN41      -0.2717
     49  NE2       53.4460   29.4280   72.0490 N.am   41  GLN41      -0.0878
     50  N         57.8880   26.4950   71.4250 N.am   42  ILE42      -0.1966
     51  CA        58.5380   25.8230   72.5470 C.3    42  ILE42       0.1727
     52  C         57.7960   26.0720   73.8560 C.2    42  ILE42       0.2616
     53  O         57.4450   27.2070   74.1770 O.2    42  ILE42      -0.2715
     54  CB        60.0210   26.2350   72.6700 C.3    42  ILE42       0.0290
     55  CG1       60.7770   25.8520   71.3960 C.3    42  ILE42       0.0022
     56  CG2       60.6710   25.5760   73.8770 C.3    42  ILE42       0.0023
     57  CD1       62.2550   26.1800   71.4340 C.3    42  ILE42       0.0001
     58  N         57.5470   24.9970   74.5980 N.am   43  PHE43      -0.1960
     59  CA        56.7690   25.0630   75.8280 C.3    43  PHE43       0.1771
     60  C         57.5820   24.5510   77.0050 C.2    43  PHE43       0.2620
     61  O         58.6740   24.0150   76.8260 O.2    43  PHE43      -0.2715
     62  CB        55.4970   24.2290   75.6900 C.3    43  PHE43       0.0574
     63  CG        54.5690   24.7180   74.6180 C.ar   43  PHE43      -0.0200
     64  CD1       53.5610   25.6200   74.9190 C.ar   43  PHE43      -0.0042
     65  CD2       54.7080   24.2810   73.3090 C.ar   43  PHE43      -0.0042
     66  CE1       52.7040   26.0780   73.9310 C.ar   43  PHE43      -0.0003
     67  CE2       53.8570   24.7330   72.3190 C.ar   43  PHE43      -0.0003
     68  CZ        52.8540   25.6330   72.6290 C.ar   43  PHE43      -0.0000
     69  N         57.0460   24.7140   78.2090 N.am   44  THR44      -0.1937
     70  CA        57.7210   24.2140   79.3990 C.3    44  THR44       0.2028
     71  C         56.7440   23.5670   80.3700 C.2    44  THR44       0.2643
     72  O         55.5450   23.5020   80.1050 O.2    44  THR44      -0.2714
     73  CB        58.5050   25.3260   80.1100 C.3    44  THR44       0.1808
     74  OG1       59.3390   24.7480   81.1210 O.3    44  THR44      -0.2208
     75  CG2       57.5500   26.3280   80.7450 C.3    44  THR44       0.0379
     76  N         57.2650   23.1070   81.5020 N.am   45  THR45      -0.1936
     77  CA        56.4660   22.3600   82.4670 C.3    45  THR45       0.2028
     78  C         55.6920   23.2730   83.4130 C.2    45  THR45       0.2642
     79  O         56.1340   24.3790   83.7240 O.2    45  THR45      -0.2714
     80  CB        57.3380   21.3900   83.2850 C.3    45  THR45       0.1808
     81  OG1       58.4330   22.1040   83.8730 O.3    45  THR45      -0.2208
     82  CG2       57.8880   20.2850   82.3880 C.3    45  THR45       0.0379
     83  N         54.5340   22.7960   83.8640 N.am   46  TYR46      -0.1973
     84  CA        53.6790   23.5690   84.7550 C.3    46  TYR46       0.1639
     85  C         54.0550   23.3960   86.2250 C.2    46  TYR46       0.2290
     86  O         53.9330   24.3330   87.0150 O.2    46  TYR46      -0.2864
     87  CB        52.2150   23.1690   84.5560 C.3    46  TYR46       0.0560
     88  CG        51.2570   23.8530   85.5080 C.ar   46  TYR46      -0.0198
     89  CD1       50.8560   25.1610   85.2920 C.ar   46  TYR46      -0.0009
     90  CD2       50.7660   23.1970   86.6280 C.ar   46  TYR46      -0.0009
     91  CE1       49.9840   25.7950   86.1510 C.ar   46  TYR46       0.0417
     92  CE2       49.8940   23.8250   87.5000 C.ar   46  TYR46       0.0417
     93  CZ        49.5080   25.1240   87.2540 C.ar   46  TYR46       0.1957
     94  OH        48.6400   25.7570   88.1120 O.3    46  TYR46      -0.2866
     95  N         57.9450   17.7350   87.1220 N.3    50  GLN50      -0.1231
     96  CA        56.9760   17.1360   86.2110 C.3    50  GLN50       0.1683
     97  C         57.6860   16.1460   85.2860 C.2    50  GLN50       0.2434
     98  O         58.5800   16.5270   84.5300 O.2    50  GLN50      -0.2733
     99  CB        56.2760   18.2370   85.4100 C.3    50  GLN50       0.0380
    100  CG        55.0060   17.8160   84.6850 C.3    50  GLN50       0.0905
    101  CD        54.3200   18.9900   84.0130 C.2    50  GLN50       0.2608
    102  OE1       54.0520   20.0110   84.6480 O.2    50  GLN50      -0.2717
    103  NE2       54.0380   18.8550   82.7230 N.am   50  GLN50      -0.0878
    104  N         57.2820   14.8660   85.3420 N.am   51  PRO51      -0.2718
    105  CA        57.9740   13.7860   84.6280 C.3    51  PRO51       0.1535
    106  C         57.6500   13.7430   83.1380 C.2    51  PRO51       0.2599
    107  O         58.3860   13.1190   82.3710 O.2    51  PRO51      -0.2715
    108  CB        57.4420   12.5230   85.3120 C.3    51  PRO51       0.0310
    109  CG        56.0730   12.9070   85.7630 C.3    51  PRO51       0.0237
    110  CD        56.1660   14.3580   86.1590 C.3    51  PRO51       0.0939
    111  N         56.5590   14.3850   82.7370 N.am   52  GLY52      -0.1941
    112  CA        56.1970   14.4300   81.3340 C.3    52  GLY52       0.2014
    113  C         55.1870   15.5150   81.0230 C.2    52  GLY52       0.2639
    114  O         54.6760   16.1750   81.9280 O.2    52  GLY52      -0.2714
    115  N         54.8970   15.7010   79.7390 N.am   53  VAL53      -0.1963
    116  CA        53.8330   16.6170   79.3370 C.3    53  VAL53       0.1727
    117  C         52.7330   15.9040   78.5620 C.2    53  VAL53       0.2616
    118  O         52.9980   15.0050   77.7620 O.2    53  VAL53      -0.2715
    119  CB        54.3720   17.8060   78.5080 C.3    53  VAL53       0.0290
    120  CG1       55.2450   18.7040   79.3670 C.3    53  VAL53       0.0023
    121  CG2       55.1450   17.3120   77.2910 C.3    53  VAL53       0.0023
    122  N         51.4920   16.3020   78.8200 N.am   54  LEU54      -0.1963
    123  CA        50.3600   15.7710   78.0740 C.3    54  LEU54       0.1728
    124  C         49.9850   16.7180   76.9430 C.2    54  LEU54       0.2616
    125  O         49.5030   17.8280   77.1750 O.2    54  LEU54      -0.2715
    126  CB        49.1570   15.5290   78.9930 C.3    54  LEU54       0.0311
    127  CG        47.9080   14.9380   78.3260 C.3    54  LEU54       0.0022
    128  CD1       48.1860   13.5430   77.7860 C.3    54  LEU54       0.0001
    129  CD2       46.7260   14.9070   79.2870 C.3    54  LEU54       0.0001
    130  N         50.2230   16.2630   75.7180 N.am   55  ILE55      -0.1963
    131  CA        49.8780   17.0120   74.5220 C.3    55  ILE55       0.1727
    132  C         48.4340   16.7030   74.1390 C.2    55  ILE55       0.2616
    133  O         48.1050   15.5750   73.7410 O.2    55  ILE55      -0.2715
    134  CB        50.7880   16.6420   73.3390 C.3    55  ILE55       0.0290
    135  CG1       52.2660   16.7450   73.7300 C.3    55  ILE55       0.0022
    136  CG2       50.4720   17.5210   72.1340 C.3    55  ILE55       0.0023
    137  CD1       52.6940   18.1280   74.2030 C.3    55  ILE55       0.0001
    138  N         47.5820   17.7150   74.2760 N.am   56  GLN56      -0.1977
    139  CA        46.1630   17.6010   73.9640 C.3    56  GLN56       0.1601
    140  C         45.8240   18.4830   72.7720 C.2    56  GLN56       0.2287
    141  O         45.7650   19.7140   72.8860 O.2    56  GLN56      -0.2864
    142  CB        45.3090   17.9790   75.1750 C.3    56  GLN56       0.0394
    143  CG        45.7010   17.2350   76.4450 C.3    56  GLN56       0.0908
    144  CD        44.7140   17.4430   77.5720 C.2    56  GLN56       0.2608
    145  OE1       43.5760   16.9780   77.5080 O.2    56  GLN56      -0.2717
    146  NE2       45.1440   18.1440   78.6130 N.am   56  GLN56      -0.0878
    147  N         51.3120   11.5230   75.3260 N.3    75  GLU75      -0.1245
    148  CA        52.2070   11.9910   76.3740 C.3    75  GLU75       0.1567
    149  C         53.6600   11.9380   75.9150 C.2    75  GLU75       0.2260
    150  O         54.0590   11.0240   75.1890 O.2    75  GLU75      -0.2867
    151  CB        52.0380   11.1580   77.6470 C.3    75  GLU75       0.0388
    152  CG        52.5690    9.7330   77.5400 C.3    75  GLU75       0.1160
    153  CD        53.1220    9.2210   78.8530 C.2    75  GLU75       0.3649
    154  OE1       52.8290    9.8380   79.8990 O.co2  75  GLU75      -0.2457
    155  OE2       53.8530    8.2080   78.8390 O.co2  75  GLU75      -0.2457
    156  N         59.5930   23.9740   87.7020 N.3    84  ARG84      -0.1231
    157  CA        58.6720   24.4740   86.6880 C.3    84  ARG84       0.1694
    158  C         59.3510   25.5490   85.8440 C.2    84  ARG84       0.2592
    159  O         60.0520   26.4150   86.3740 O.2    84  ARG84      -0.2718
    160  CB        57.4080   25.0190   87.3640 C.3    84  ARG84       0.0321
    161  CG        56.7030   26.1800   86.6640 C.3    84  ARG84       0.0489
    162  CD        55.8260   26.9100   87.6770 C.3    84  ARG84       0.2205
    163  NE        55.0910   28.0440   87.1240 N.pl3  84  ARG84      -0.0865
    164  CZ        53.7690   28.0770   86.9800 C.cat  84  ARG84       0.5346
    165  NH1       53.0330   27.0370   87.3450 N.pl3  84  ARG84       0.1354
    166  NH2       53.1820   29.1530   86.4780 N.pl3  84  ARG84       0.1354
    167  N         59.1540   25.4860   84.5310 N.am   85  GLY85      -0.1957
    168  CA        59.7170   26.4830   83.6390 C.3    85  GLY85       0.1869
    169  C         61.1150   26.1770   83.1260 C.2    85  GLY85       0.2309
    170  O         61.6270   26.8950   82.2670 O.2    85  GLY85      -0.2863
    171  N         62.5590   22.3740   78.3280 N.3    88  GLN88      -0.1231
    172  CA        62.0870   22.9840   77.0960 C.3    88  GLN88       0.1698
    173  C         61.5620   21.9020   76.1700 C.2    88  GLN88       0.2592
    174  O         62.2910   20.9830   75.7980 O.2    88  GLN88      -0.2718
    175  CB        63.2010   23.7880   76.4270 C.3    88  GLN88       0.0381
    176  CG        63.7850   24.8670   77.3270 C.3    88  GLN88       0.0905
    177  CD        62.8140   26.0090   77.5580 C.2    88  GLN88       0.2608
    178  OE1       62.4840   26.7540   76.6330 O.2    88  GLN88      -0.2717
    179  NE2       62.3380   26.1450   78.7910 N.am   88  GLN88      -0.0878
    180  N         60.2880   22.0150   75.8070 N.am   89  ILE89      -0.1980
    181  CA        59.6490   21.0120   74.9700 C.3    89  ILE89       0.1595
    182  C         59.2210   21.6430   73.6530 C.2    89  ILE89       0.2287
    183  O         58.3820   22.5430   73.6190 O.2    89  ILE89      -0.2864
    184  CB        58.4260   20.3920   75.6720 C.3    89  ILE89       0.0276
    185  CG1       58.8100   19.8770   77.0620 C.3    89  ILE89       0.0022
    186  CG2       57.8350   19.2680   74.8290 C.3    89  ILE89       0.0022
    187  CD1       59.9010   18.8160   77.0470 C.3    89  ILE89       0.0001
    188  N         57.2840   21.7530   70.3690 N.3    91  VAL91      -0.1245
    189  CA        56.0620   21.1960   69.7980 C.3    91  VAL91       0.1561
    190  C         55.8590   21.6960   68.3720 C.2    91  VAL91       0.2260
    191  O         55.8820   22.8990   68.1110 O.2    91  VAL91      -0.2867
    192  CB        54.8290   21.5510   70.6550 C.3    91  VAL91       0.0252
    193  CG1       53.5500   21.0750   69.9790 C.3    91  VAL91       0.0019
    194  CG2       54.9610   20.9560   72.0550 C.3    91  VAL91       0.0019
    195  N         48.2720   32.6960   85.4550 N.3   155  ASN155     -0.1240
    196  CA        49.5760   32.1250   85.1390 C.3   155  ASN155      0.1653
    197  C         50.7080   33.1120   85.4140 C.2   155  ASN155      0.2266
    198  O         51.7690   32.7340   85.9210 O.2   155  ASN155     -0.2867
    199  CB        49.6210   31.6350   83.6880 C.3   155  ASN155      0.1155
    200  CG        48.8030   30.3740   83.4710 C.2   155  ASN155      0.2627
    201  OD1       48.6360   29.5640   84.3820 O.2   155  ASN155     -0.2716
    202  ND2       48.2900   30.2020   82.2580 N.am  155  ASN155     -0.0877
    203  N         53.5800   32.2730   88.1560 N.3   159  SER159     -0.1217
    204  CA        54.9540   32.3240   87.6680 C.3   159  SER159      0.1889
    205  C         55.7870   33.3770   88.3900 C.2   159  SER159      0.2288
    206  O         56.9440   33.1300   88.7170 O.2   159  SER159     -0.2866
    207  CB        54.9940   32.5720   86.1570 C.3   159  SER159      0.2089
    208  OG        54.5580   31.4320   85.4410 O.3   159  SER159     -0.2183
@<TRIPOS>BOND
     1   191   190    2
     2    41    42    1
     3   190   189    1
     4    42    45    1
     5    42    43    1
     6    45    46    1
     7   189   188    1
     8   189   192    1
     9    48    47    2
    10   193   192    1
    11    37    36    2
    12    43    44    2
    13    43    50   am
    14   192   194    1
    15    36    35    1
    16     1     2    1
    17    46    47    1
    18    47    49   am
    19    55    57    1
    20    55    54    1
    21    50    51    1
    22     2     5    1
    23     2     3    1
    24     8     6    1
    25    35    34    1
    26    35    38    1
    27   136   134    1
    28     5     6    1
    29    40    38    1
    30    67    68   ar
    31    67    65   ar
    32    51    54    1
    33    51    52    1
    34    68    66   ar
    35    54    56    1
    36   140   141    2
    37   140   139    1
    38     6     7    1
    39    38    39    1
    40     3     4    2
    41     3     9   am
    42    65    63   ar
    43   134   135    1
    44   134   131    1
    45   183   182    2
    46   182   181    1
    47   135   137    1
    48   133   132    2
    49    52    53    2
    50    52    58   am
    51    66    64   ar
    52   139   138    1
    53   139   142    1
    54   132   138   am
    55   132   131    1
    56     9    10    1
    57   131   130    1
    58    58    59    1
    59    63    64   ar
    60    63    62    1
    61   186   184    1
    62   181   184    1
    63   181   180    1
    64   142   143    1
    65   150   149    2
    66   147   148    1
    67    10    13    1
    68    10    11    1
    69   184   185    1
    70    62    59    1
    71   130   124   am
    72   174   173    2
    73   180   173   am
    74    59    60    1
    75   149   148    1
    76    24    22    1
    77   173   172    1
    78    13    14    1
    79    11    12    2
    80    11    18   am
    81   148   151    1
    82   175   172    1
    83   175   176    1
    84   143   144    1
    85   178   177    2
    86    18    19    1
    87    61    60    2
    88    23    22    1
    89   124   125    2
    90   124   123    1
    91    60    69   am
    92   187   185    1
    93   172   171    1
    94    22    19    1
    95   121   119    1
    96   176   177    1
    97   145   144    2
    98   152   151    1
    99   152   153    1
   100   177   179   am
   101   144   146   am
   102    14    15    1
   103    16    15   ar
   104    19    20    1
   105   118   117    2
   106   128   127    1
   107   123   122    1
   108   123   126    1
   109    69    70    1
   110   127   126    1
   111   127   129    1
   112    15    17   ar
   113   119   116    1
   114   119   120    1
   115   117   122   am
   116   117   116    1
   117   155   153   ar
   118   153   154   ar
   119    20    21    2
   120    20    25   am
   121   116   115    1
   122    70    73    1
   123    70    71    1
   124   115   113   am
   125    25    26    1
   126    72    71    2
   127    73    75    1
   128    73    74    1
   129    71    76   am
   130   113   112    1
   131   113   114    2
   132    28    27    2
   133   112   111    1
   134    26    27    1
   135    26    29    1
   136    76    77    1
   137    32    33    2
   138    32    31    1
   139    27    30   am
   140   202   200   am
   141   170   169    2
   142    30    31    1
   143   107   106    2
   144    82    80    1
   145    77    80    1
   146    77    78    1
   147   103   101   am
   148   111   106   am
   149   169   168    1
   150   106   105    1
   151    80    81    1
   152    78    79    2
   153    78    83   am
   154   200   199    1
   155   200   201    2
   156   168   167    1
   157   199   196    1
   158    83    84    1
   159   101   102    2
   160   101   100    1
   161    98    97    2
   162   167   158   am
   163    87    84    1
   164    87    88    1
   165   105   108    1
   166   105   104    1
   167   100    99    1
   168    84    85    1
   169   196   197    1
   170   196   195    1
   171    97   104   am
   172    97    96    1
   173    89    88   ar
   174    89    91   ar
   175   108   109    1
   176   104   110    1
   177    99    96    1
   178   197   198    2
   179   208   207    1
   180    88    90   ar
   181   109   110    1
   182   158   159    2
   183   158   157    1
   184    91    93   ar
   185   207   204    1
   186    96    95    1
   187    85    86    2
   188   166   164    1
   189    90    92   ar
   190   161   160    1
   191   161   162    1
   192   157   160    1
   193   157   156    1
   194   164   163    2
   195   164   165    1
   196   163   162    1
   197    93    92   ar
   198    93    94    1
   199   204   203    1
   200   204   205    1
   201   205   206    2
