@<TRIPOS>MOLECULE
tmp/4po3A00.pdb
 180 174 0 0 0
SMALL
GASTEIGER

@<TRIPOS>ATOM
      1  N         -1.4350  -20.9010   19.0410 N.3    13  SER13      -0.1202
      2  CA        -0.8830  -21.5220   17.8510 C.3    13  SER13       0.2020
      3  C         -1.4800  -20.8960   16.5580 C.2    13  SER13       0.2618
      4  O         -0.7370  -20.5980   15.6160 O.2    13  SER13      -0.2717
      5  CB        -1.0470  -23.0320   17.9410 C.3    13  SER13       0.2103
      6  OG        -0.9010  -23.6570   16.6950 O.3    13  SER13      -0.2182
      7  N         -2.7870  -20.6320   16.5380 N.am   14  TRP14      -0.1975
      8  CA        -3.4050  -20.0140   15.3490 C.3    14  TRP14       0.1640
      9  C         -3.0070  -18.5490   15.2220 C.2    14  TRP14       0.2290
     10  O         -2.9080  -18.0680   14.0910 O.2    14  TRP14      -0.2864
     11  CB        -4.9430  -20.2460   15.2780 C.3    14  TRP14       0.0576
     12  CG        -5.1960  -21.7170   15.0550 C.ar   14  TRP14       0.0006
     13  CD1       -5.7010  -22.6090   15.9840 C.ar   14  TRP14       0.0946
     14  CD2       -4.7910  -22.5220   13.9120 C.ar   14  TRP14       0.0152
     15  NE1       -5.6640  -23.8890   15.4740 N.ar   14  TRP14      -0.2442
     16  CE2       -5.1520  -23.8680   14.2020 C.ar   14  TRP14       0.0810
     17  CE3       -4.2420  -22.2320   12.6560 C.ar   14  TRP14       0.0012
     18  CZ2       -4.9310  -24.9040   13.3120 C.ar   14  TRP14       0.0191
     19  CZ3       -4.0240  -23.2550   11.7660 C.ar   14  TRP14       0.0001
     20  CH2       -4.3830  -24.5960   12.0960 C.ar   14  TRP14       0.0015
     21  N          0.0900  -18.6630   13.4000 N.3    17  THR17      -0.1218
     22  CA        -0.1280  -18.9460   11.9740 C.3    17  THR17       0.1862
     23  C         -0.5600  -17.6660   11.2850 C.2    17  THR17       0.2287
     24  O         -0.1390  -17.3530   10.1570 O.2    17  THR17      -0.2866
     25  CB        -1.1680  -20.0590   11.8190 C.3    17  THR17       0.1770
     26  OG1       -0.7340  -21.1910   12.5950 O.3    17  THR17      -0.2211
     27  CG2       -1.3050  -20.5060   10.3450 C.3    17  THR17       0.0375
     28  N          2.2960  -15.4770   10.3960 N.3    20  ARG20      -0.1245
     29  CA         3.0940  -15.9620    9.2670 C.3    20  ARG20       0.1563
     30  C          2.2900  -15.6910    8.0140 C.2    20  ARG20       0.2260
     31  O          2.8170  -15.1850    7.0630 O.2    20  ARG20      -0.2867
     32  CB         3.4620  -17.4720    9.3690 C.3    20  ARG20       0.0307
     33  CG         4.4590  -17.8820   10.4700 C.3    20  ARG20       0.0489
     34  CD         4.8860  -19.3850   10.4360 C.3    20  ARG20       0.2205
     35  NE         3.7670  -20.3250   10.6370 N.pl3  20  ARG20      -0.0865
     36  CZ         3.2550  -20.6740   11.8320 C.cat  20  ARG20       0.5346
     37  NH1        3.7170  -20.1570   12.9690 N.pl3  20  ARG20       0.1354
     38  NH2        2.2570  -21.5400   11.8950 N.pl3  20  ARG20       0.1354
     39  N         -8.5930  -23.9550    4.6910 N.3    73  GLY73      -0.1210
     40  CA        -8.1920  -24.7280    5.8540 C.3    73  GLY73       0.1956
     41  C         -7.8790  -23.8020    7.0350 C.2    73  GLY73       0.2612
     42  O         -8.2980  -22.6680    7.0650 O.2    73  GLY73      -0.2717
     43  N         -7.1100  -24.3090    8.0010 N.am   74  GLY74      -0.1942
     44  CA        -6.9090  -23.6630    9.2720 C.3    74  GLY74       0.2014
     45  C         -7.3960  -24.4510   10.4880 C.2    74  GLY74       0.2639
     46  O         -7.7120  -23.8890   11.5190 O.2    74  GLY74      -0.2714
     47  N         -7.3910  -25.7590   10.4220 N.am   75  GLY75      -0.1939
     48  CA        -7.6870  -26.5670   11.6260 C.3    75  GLY75       0.2014
     49  C         -9.0420  -26.3850   12.2410 C.2    75  GLY75       0.2638
     50  O         -9.2390  -26.6910   13.4310 O.2    75  GLY75      -0.2714
     51  N        -10.0130  -25.9260   11.4300 N.am   76  TRP76      -0.1973
     52  CA       -11.3950  -25.7350   11.8420 C.3    76  TRP76       0.1640
     53  C        -11.5400  -24.5960   12.8390 C.2    76  TRP76       0.2290
     54  O        -12.6530  -24.1050   13.0250 O.2    76  TRP76      -0.2864
     55  CB       -12.0240  -27.0390   12.4020 C.3    76  TRP76       0.0576
     56  CG       -11.9720  -28.2330   11.4770 C.ar   76  TRP76       0.0006
     57  CD1      -12.8500  -28.5520   10.4870 C.ar   76  TRP76       0.0946
     58  CD2      -11.0500  -29.3150   11.5610 C.ar   76  TRP76       0.0152
     59  NE1      -12.4320  -29.7090    9.8620 N.ar   76  TRP76      -0.2442
     60  CE2      -11.3560  -30.2150   10.5280 C.ar   76  TRP76       0.0810
     61  CE3       -9.9420  -29.5800   12.3790 C.ar   76  TRP76       0.0012
     62  CZ2      -10.6250  -31.4090   10.3190 C.ar   76  TRP76       0.0191
     63  CZ3       -9.1990  -30.7270   12.1530 C.ar   76  TRP76       0.0001
     64  CH2       -9.5400  -31.6310   11.1240 C.ar   76  TRP76       0.0015
     65  N         -9.4910  -21.6280   12.5610 N.3    78  TYR78      -0.1241
     66  CA        -8.8320  -20.4780   11.9890 C.3    78  TYR78       0.1605
     67  C         -9.1630  -20.2500   10.5000 C.2    78  TYR78       0.2264
     68  O         -9.3770  -21.2010    9.7120 O.2    78  TYR78      -0.2867
     69  CB        -7.3140  -20.6250   12.2110 C.3    78  TYR78       0.0534
     70  CG        -6.4520  -19.7020   11.3770 C.ar   78  TYR78      -0.0201
     71  CD1       -5.8060  -20.1780   10.2570 C.ar   78  TYR78      -0.0009
     72  CD2       -6.2960  -18.3580   11.7000 C.ar   78  TYR78      -0.0009
     73  CE1       -5.0470  -19.3310    9.4350 C.ar   78  TYR78       0.0417
     74  CE2       -5.5570  -17.4980   10.8830 C.ar   78  TYR78       0.0417
     75  CZ        -4.9500  -17.9750    9.7690 C.ar   78  TYR78       0.1957
     76  OH        -4.1830  -17.1220    8.9920 O.3    78  TYR78      -0.2866
     77  N         -8.2780  -27.4210    1.1790 N.3   144  ASP144     -0.1225
     78  CA        -6.9480  -27.7490    1.7030 C.3   144  ASP144      0.1805
     79  C         -6.9520  -28.0250    3.2210 C.2   144  ASP144      0.2598
     80  O         -7.5720  -27.2710    3.9860 O.2   144  ASP144     -0.2718
     81  CB        -5.9140  -26.6830    1.4130 C.3   144  ASP144      0.1424
     82  CG        -6.2380  -25.3260    2.0150 C.2   144  ASP144      0.3668
     83  OD1       -7.2570  -24.6550    1.6640 O.co2 144  ASP144     -0.2456
     84  OD2       -5.4560  -24.9310    2.8790 O.co2 144  ASP144     -0.2456
     85  N         -6.2810  -29.1160    3.6210 N.am  145  SER145     -0.1938
     86  CA        -6.1050  -29.5000    5.0540 C.3   145  SER145      0.2055
     87  C         -7.5160  -29.7420    5.7560 C.2   145  SER145      0.2642
     88  O         -8.2940  -30.5880    5.3090 O.2   145  SER145     -0.2714
     89  CB        -5.1770  -28.4760    5.7050 C.3   145  SER145      0.2130
     90  OG        -4.7150  -28.8670    7.0120 O.3   145  SER145     -0.2179
     91  N         -7.8570  -28.9870    6.7860 N.am  146  ALA146     -0.1977
     92  CA        -9.2400  -29.0270    7.3230 C.3   146  ALA146      0.1597
     93  C        -10.3120  -28.7100    6.2810 C.2   146  ALA146      0.2287
     94  O        -11.4000  -29.2940    6.2690 O.2   146  ALA146     -0.2864
     95  CB        -9.3360  -28.0390    8.4730 C.3   146  ALA146      0.0319
     96  N         -6.9950  -33.5590    5.8750 N.3   185  VAL185     -0.1245
     97  CA        -7.0530  -34.3240    7.1330 C.3   185  VAL185      0.1561
     98  C         -8.3910  -34.9780    7.1900 C.2   185  VAL185      0.2260
     99  O         -9.2500  -34.5570    7.8700 O.2   185  VAL185     -0.2867
    100  CB        -6.7440  -33.4650    8.3350 C.3   185  VAL185      0.0252
    101  CG1       -6.7450  -34.2990    9.6520 C.3   185  VAL185      0.0019
    102  CG2       -5.3220  -32.9560    8.1860 C.3   185  VAL185      0.0019
    103  N         -5.8340  -38.9740   13.9900 N.3   191  LEU191     -0.1245
    104  CA        -4.7660  -38.0600   14.4230 C.3   191  LEU191      0.1561
    105  C         -4.0370  -38.5400   15.7250 C.2   191  LEU191      0.2260
    106  O         -2.8010  -38.6100   15.7470 O.2   191  LEU191     -0.2867
    107  CB        -5.2740  -36.6090   14.5660 C.3   191  LEU191      0.0270
    108  CG        -5.3440  -35.7370   13.3220 C.3   191  LEU191      0.0019
    109  CD1       -6.3940  -36.2100   12.3330 C.3   191  LEU191      0.0001
    110  CD2       -5.6310  -34.2840   13.7130 C.3   191  LEU191      0.0001
    111  N          1.0110  -34.7770   22.1040 N.3   193  MET193     -0.1245
    112  CA        -0.0550  -33.8330   21.7750 C.3   193  MET193      0.1570
    113  C         -1.3780  -34.5730   21.5970 C.2   193  MET193      0.2261
    114  O         -2.2220  -34.1720   20.7970 O.2   193  MET193     -0.2867
    115  CB         0.2820  -33.0770   20.4950 C.3   193  MET193      0.0387
    116  CG         1.6660  -32.4440   20.4930 C.3   193  MET193      0.0595
    117  SD         2.5030  -32.7000   18.9070 S.3   193  MET193     -0.1393
    118  CE         3.6090  -34.1020   19.1670 C.3   193  MET193      0.0692
    119  N         -4.4790  -32.5630   23.0590 N.3   196  MET196     -0.1230
    120  CA        -4.8550  -31.5160   22.0900 C.3   196  MET196      0.1702
    121  C         -5.6460  -32.1010   20.8950 C.2   196  MET196      0.2592
    122  O         -6.6690  -31.5730   20.5640 O.2   196  MET196     -0.2718
    123  CB        -3.6360  -30.7410   21.6110 C.3   196  MET196      0.0401
    124  CG        -4.0060  -29.6760   20.5910 C.3   196  MET196      0.0596
    125  SD        -2.6470  -28.5330   20.2670 S.3   196  MET196     -0.1393
    126  CE        -2.6040  -27.6310   21.8420 C.3   196  MET196      0.0692
    127  N         -5.2070  -33.2080   20.3070 N.am  197  ALA197     -0.1980
    128  CA        -5.9520  -33.8430   19.2690 C.3   197  ALA197      0.1597
    129  C         -7.3600  -34.2210   19.7540 C.2   197  ALA197      0.2287
    130  O         -8.3560  -34.0890   19.0110 O.2   197  ALA197     -0.2864
    131  CB        -5.2320  -35.0850   18.7740 C.3   197  ALA197      0.0319
    132  N         -9.5760  -31.2200   19.8400 N.3   200  TYR200     -0.1241
    133  CA       -10.1310  -30.8530   18.5320 C.3   200  TYR200      0.1605
    134  C        -11.3970  -31.7090   18.1950 C.2   200  TYR200      0.2264
    135  O        -12.3550  -31.1950   17.6560 O.2   200  TYR200     -0.2867
    136  CB        -9.0990  -31.0650   17.4330 C.3   200  TYR200      0.0534
    137  CG        -8.1600  -29.8890   17.2060 C.ar  200  TYR200     -0.0201
    138  CD1       -8.2090  -29.1630   16.0110 C.ar  200  TYR200     -0.0009
    139  CD2       -7.2250  -29.5180   18.1490 C.ar  200  TYR200     -0.0009
    140  CE1       -7.3510  -28.0950   15.7640 C.ar  200  TYR200      0.0417
    141  CE2       -6.3580  -28.4170   17.9180 C.ar  200  TYR200      0.0417
    142  CZ        -6.4110  -27.7310   16.7080 C.ar  200  TYR200      0.1957
    143  OH        -5.5620  -26.6330   16.4400 O.3   200  TYR200     -0.2866
    144  N          1.2370  -33.8130    7.1850 N.3   239  PHE239     -0.1241
    145  CA         0.0800  -34.7170    7.3000 C.3   239  PHE239      0.1605
    146  C          0.0460  -35.7490    6.1970 C.2   239  PHE239      0.2264
    147  O         -1.0090  -36.2160    5.7950 O.2   239  PHE239     -0.2867
    148  CB        -1.2500  -33.8810    7.2930 C.3   239  PHE239      0.0534
    149  CG        -1.4450  -33.0550    8.5400 C.ar  239  PHE239     -0.0203
    150  CD1       -1.2330  -31.6830    8.5270 C.ar  239  PHE239     -0.0042
    151  CD2       -1.7880  -33.6700    9.7440 C.ar  239  PHE239     -0.0042
    152  CE1       -1.3880  -30.9280    9.6910 C.ar  239  PHE239     -0.0003
    153  CE2       -1.9600  -32.9290   10.9130 C.ar  239  PHE239     -0.0003
    154  CZ        -1.7490  -31.5550   10.8910 C.ar  239  PHE239     -0.0000
    155  N          3.4190  -28.5140    3.6940 N.3   272  HIS272     -0.1226
    156  CA         2.0200  -28.4250    3.8690 C.3   272  HIS272      0.1752
    157  C          1.4110  -27.2690    3.0500 C.2   272  HIS272      0.2595
    158  O          1.6880  -26.1490    3.1510 O.2   272  HIS272     -0.2718
    159  CB         1.6700  -28.3230    5.3870 C.3   272  HIS272      0.0759
    160  CG         0.2810  -28.7470    5.6960 C.ar  272  HIS272      0.0818
    161  ND1       -0.2420  -29.9430    5.2510 N.ar  272  HIS272     -0.2268
    162  CD2       -0.7030  -28.1450    6.4030 C.ar  272  HIS272      0.1154
    163  CE1       -1.4930  -30.0510    5.6510 C.ar  272  HIS272      0.1986
    164  NE2       -1.8010  -28.9690    6.3410 N.ar  272  HIS272     -0.2212
    165  N          0.4930  -27.6740    2.2460 N.am  273  VAL273     -0.1980
    166  CA        -0.3280  -26.8690    1.3480 C.3   273  VAL273      0.1595
    167  C          0.4440  -25.8220    0.5640 C.2   273  VAL273      0.2287
    168  O         -0.0960  -24.7770    0.3010 O.2   273  VAL273     -0.2864
    169  CB        -1.6280  -26.3150    1.9990 C.3   273  VAL273      0.0276
    170  CG1       -2.4350  -27.4530    2.6140 C.3   273  VAL273      0.0022
    171  CG2       -1.3960  -25.2370    3.0230 C.3   273  VAL273      0.0022
    172  N         -0.5110  -21.8380   -0.6080 N.3   277  GLN277     -0.1245
    173  CA         0.1710  -20.7430    0.0610 C.3   277  GLN277      0.1566
    174  C          1.1690  -19.9900   -0.8290 C.2   277  GLN277      0.2260
    175  O          1.3500  -18.7990   -0.6120 O.2   277  GLN277     -0.2867
    176  CB         0.9120  -21.2230    1.2760 C.3   277  GLN277      0.0367
    177  CG        -0.0160  -21.7800    2.3470 C.3   277  GLN277      0.0905
    178  CD         0.7160  -22.0110    3.6570 C.2   277  GLN277      0.2608
    179  OE1        1.8860  -22.2740    3.6790 O.2   277  GLN277     -0.2717
    180  NE2        0.0200  -21.8780    4.7200 N.am  277  GLN277     -0.0878
@<TRIPOS>BOND
     1   174   175    2
     2   174   173    1
     3   172   173    1
     4   173   176    1
     5   168   167    2
     6   167   166    1
     7    77    78    1
     8   176   177    1
     9   166   169    1
    10   166   165    1
    11    81    78    1
    12    81    82    1
    13    83    82   ar
    14    78    79    1
    15   169   170    1
    16   169   171    1
    17    82    84   ar
    18   165   157   am
    19   177   178    1
    20   157   158    2
    21   157   156    1
    22    79    85   am
    23    79    80    2
    24    85    86    1
    25   178   179    2
    26   178   180   am
    27   155   156    1
    28   156   159    1
    29    39    40    1
    30    86    89    1
    31    86    87    1
    32   161   163   ar
    33   161   160   ar
    34    88    87    2
    35   159   160    1
    36   163   164   ar
    37   160   162   ar
    38    89    90    1
    39    87    91   am
    40   147   146    2
    41    40    41    1
    42    96    97    1
    43   146   145    1
    44    94    93    2
    45    93    92    1
    46   164   162   ar
    47    91    92    1
    48    41    42    2
    49    41    43   am
    50    31    30    2
    51    97    98    1
    52    97   100    1
    53   144   145    1
    54    98    99    2
    55   148   145    1
    56   148   149    1
    57    92    95    1
    58    43    44    1
    59    30    29    1
    60   102   100    1
    61   100   101    1
    62   150   149   ar
    63   150   152   ar
    64   149   151   ar
    65    76    75    1
    66    29    32    1
    67    29    28    1
    68    44    45    1
    69    32    33    1
    70    73    75   ar
    71    73    71   ar
    72   152   154   ar
    73    68    67    2
    74   151   153   ar
    75    75    74   ar
    76    59    57   ar
    77    59    60   ar
    78    24    23    2
    79    71    70   ar
    80    62    60   ar
    81    62    64   ar
    82    27    25    1
    83    47    45   am
    84    47    48    1
    85    34    33    1
    86    34    35    1
    87    57    56   ar
    88    45    46    2
    89    67    66    1
    90    60    58   ar
    91    35    36    2
    92    74    72   ar
    93   154   153   ar
    94    64    63   ar
    95    23    22    1
    96    70    72   ar
    97    70    69    1
    98    51    52    1
    99    51    49   am
   100    56    58   ar
   101    56    55    1
   102    58    61   ar
   103    48    49    1
   104    19    20   ar
   105    19    17   ar
   106    25    22    1
   107    25    26    1
   108    36    38    1
   109    36    37    1
   110    52    55    1
   111    52    53    1
   112    22    21    1
   113    66    69    1
   114    66    65    1
   115    20    18   ar
   116    63    61   ar
   117    49    50    2
   118   109   108    1
   119    17    14   ar
   120    53    54    2
   121    18    16   ar
   122   108   110    1
   123   108   107    1
   124    14    16   ar
   125    14    12   ar
   126   103   104    1
   127    10     9    2
   128    16    15   ar
   129   104   107    1
   130   104   105    1
   131    12    11    1
   132    12    13   ar
   133     9     8    1
   134    11     8    1
   135     8     7    1
   136    15    13   ar
   137     4     3    2
   138   105   106    2
   139   140   138   ar
   140   140   142   ar
   141   138   137   ar
   142   143   142    1
   143     7     3   am
   144     3     2    1
   145     6     5    1
   146   142   141   ar
   147   137   136    1
   148   137   139   ar
   149   136   133    1
   150   135   134    2
   151     2     5    1
   152     2     1    1
   153   141   139   ar
   154   134   133    1
   155   133   132    1
   156   131   128    1
   157   117   118    1
   158   117   116    1
   159   130   129    2
   160   128   129    1
   161   128   127    1
   162   125   124    1
   163   125   126    1
   164   127   121   am
   165   116   115    1
   166   115   112    1
   167   122   121    2
   168   124   123    1
   169   114   113    2
   170   121   120    1
   171   113   112    1
   172   123   120    1
   173   112   111    1
   174   120   119    1
