@<TRIPOS>MOLECULE
tmp/4po7A02.pdb
 113 106 0 0 0
SMALL
GASTEIGER

@<TRIPOS>ATOM
      1  N         -4.4380   -1.1310   32.2150 N.3    35  SER35      -0.1217
      2  CA        -3.2650   -1.6690   32.9100 C.3    35  SER35       0.1889
      3  C         -3.0680   -1.0950   34.3180 C.2    35  SER35       0.2288
      4  O         -1.9670   -1.1490   34.8640 O.2    35  SER35      -0.2866
      5  CB        -1.9960   -1.4350   32.0820 C.3    35  SER35       0.2089
      6  OG        -2.0210   -2.1750   30.8740 O.3    35  SER35      -0.2183
      7  N         -7.4190   -2.0740   43.2210 N.3    63  GLU63      -0.1231
      8  CA        -6.3120   -1.7610   42.3250 C.3    63  GLU63       0.1699
      9  C         -5.5980   -3.0380   41.9010 C.2    63  GLU63       0.2592
     10  O         -4.4990   -2.9900   41.3470 O.2    63  GLU63      -0.2718
     11  CB        -5.3330   -0.7900   42.9860 C.3    63  GLU63       0.0402
     12  CG        -4.6430   -1.3450   44.2070 C.3    63  GLU63       0.1161
     13  CD        -3.7640   -0.3200   44.8890 C.2    63  GLU63       0.3649
     14  OE1       -3.7780    0.8530   44.4610 O.co2  63  GLU63      -0.2457
     15  OE2       -3.0600   -0.6870   45.8520 O.co2  63  GLU63      -0.2457
     16  N         -6.2390   -4.1770   42.1550 N.am   64  ASP64      -0.1960
     17  CA        -5.7040   -5.4750   41.7550 C.3    64  ASP64       0.1840
     18  C         -6.7000   -6.2740   40.8990 C.2    64  ASP64       0.2622
     19  O         -6.8470   -7.4850   41.0710 O.2    64  ASP64      -0.2715
     20  CB        -5.2970   -6.2860   42.9900 C.3    64  ASP64       0.1450
     21  CG        -6.3870   -6.3390   44.0510 C.2    64  ASP64       0.3671
     22  OD1       -7.5660   -6.1040   43.7200 O.co2  64  ASP64      -0.2456
     23  OD2       -6.0640   -6.6260   45.2240 O.co2  64  ASP64      -0.2456
     24  N         -7.3760   -5.5850   39.9830 N.am   65  TYR65      -0.1974
     25  CA        -8.3570   -6.1990   39.0840 C.3    65  TYR65       0.1639
     26  C         -9.5000   -6.8980   39.8240 C.2    65  TYR65       0.2290
     27  O        -10.0270   -7.9070   39.3510 O.2    65  TYR65      -0.2864
     28  CB        -7.6700   -7.1900   38.1280 C.3    65  TYR65       0.0560
     29  CG        -6.8680   -6.5130   37.0390 C.ar   65  TYR65      -0.0198
     30  CD1       -7.4080   -6.3170   35.7740 C.ar   65  TYR65      -0.0009
     31  CD2       -5.5820   -6.0470   37.2830 C.ar   65  TYR65      -0.0009
     32  CE1       -6.6850   -5.6880   34.7790 C.ar   65  TYR65       0.0417
     33  CE2       -4.8520   -5.4180   36.2960 C.ar   65  TYR65       0.0417
     34  CZ        -5.4090   -5.2380   35.0480 C.ar   65  TYR65       0.1957
     35  OH        -4.6890   -4.6100   34.0610 O.3    65  TYR65      -0.2866
     36  N         -9.5660   -8.2630   42.9630 N.3    67  LYS67      -0.1245
     37  CA        -9.2370   -9.3010   43.9350 C.3    67  LYS67       0.1561
     38  C         -9.5370   -8.8460   45.3590 C.2    67  LYS67       0.2260
     39  O        -10.0340   -9.6220   46.1760 O.2    67  LYS67      -0.2867
     40  CB        -7.7670   -9.7040   43.8060 C.3    67  LYS67       0.0271
     41  CG        -7.4530  -10.3770   42.4880 C.3    67  LYS67       0.0035
     42  CD        -6.0060  -10.7940   42.3970 C.3    67  LYS67       0.0206
     43  CE        -5.7460  -11.5210   41.0880 C.3    67  LYS67       0.1093
     44  NZ        -4.3040  -11.8150   40.8820 N.3    67  LYS67      -0.1314
     45  N         -7.1930  -12.6520   27.3770 N.3   444  ASP444     -0.1239
     46  CA        -5.8970  -12.8230   26.7220 C.3   444  ASP444      0.1674
     47  C         -6.0040  -12.9740   25.2020 C.2   444  ASP444      0.2266
     48  O         -5.4210  -13.8900   24.6210 O.2   444  ASP444     -0.2867
     49  CB        -5.1660  -14.0350   27.3070 C.3   444  ASP444      0.1410
     50  CG        -3.7090  -14.1120   26.8640 C.2   444  ASP444      0.3668
     51  OD1       -3.0100  -13.0720   26.8820 O.co2 444  ASP444     -0.2456
     52  OD2       -3.2730  -15.2160   26.4780 O.co2 444  ASP444     -0.2456
     53  N         -7.5210   -8.2190   27.3310 N.3   494  ARG494     -0.1231
     54  CA        -6.0910   -8.5160   27.4140 C.3   494  ARG494      0.1694
     55  C         -5.6650   -9.0270   28.7830 C.2   494  ARG494      0.2593
     56  O         -4.5610   -9.5440   28.9400 O.2   494  ARG494     -0.2718
     57  CB        -5.2710   -7.2780   27.0650 C.3   494  ARG494      0.0321
     58  CG        -5.2220   -6.9910   25.5890 C.3   494  ARG494      0.0489
     59  CD        -4.4660   -5.7190   25.2880 C.3   494  ARG494      0.2205
     60  NE        -4.6150   -5.3790   23.8780 N.pl3 494  ARG494     -0.0865
     61  CZ        -3.8490   -5.8680   22.9070 C.cat 494  ARG494      0.5346
     62  NH1       -2.8630   -6.7100   23.1970 N.pl3 494  ARG494      0.1354
     63  NH2       -4.0640   -5.5100   21.6470 N.pl3 494  ARG494      0.1354
     64  N         -6.5300   -8.8740   29.7790 N.am  495  SER495     -0.1938
     65  CA        -6.1910   -9.3220   31.1210 C.3   495  SER495      0.2055
     66  C         -6.3420  -10.8340   31.2220 C.2   495  SER495      0.2643
     67  O         -6.8280  -11.4860   30.2970 O.2   495  SER495     -0.2714
     68  CB        -7.0620   -8.6240   32.1710 C.3   495  SER495      0.2130
     69  OG        -8.1230   -9.4560   32.6050 O.3   495  SER495     -0.2179
     70  N         -5.9050  -11.3910   32.3430 N.am  496  MET496     -0.1962
     71  CA        -6.0580  -12.8130   32.5900 C.3   496  MET496      0.1736
     72  C         -6.8190  -12.9770   33.8950 C.2   496  MET496      0.2616
     73  O         -6.8640  -14.0550   34.4880 O.2   496  MET496     -0.2715
     74  CB        -4.7040  -13.5150   32.6340 C.3   496  MET496      0.0427
     75  CG        -4.7310  -14.8970   32.0220 C.3   496  MET496      0.0599
     76  SD        -3.2240  -15.2580   31.1200 S.3   496  MET496     -0.1393
     77  CE        -2.0150  -14.9090   32.3870 C.3   496  MET496      0.0692
     78  N         -7.4170  -11.8710   34.3240 N.am  497  ASN497     -0.1972
     79  CA        -8.3010  -11.8460   35.4720 C.3   497  ASN497      0.1688
     80  C         -9.7640  -11.7160   35.0400 C.2   497  ASN497      0.2292
     81  O        -10.0870  -10.9220   34.1560 O.2   497  ASN497     -0.2864
     82  CB        -7.9390  -10.6850   36.3990 C.3   497  ASN497      0.1181
     83  CG        -6.5230  -10.7700   36.9410 C.2   497  ASN497      0.2629
     84  OD1       -6.2220  -11.6170   37.7820 O.2   497  ASN497     -0.2716
     85  ND2       -5.6480   -9.8770   36.4700 N.am  497  ASN497     -0.0877
     86  N         -7.4200  -15.4600   38.8300 N.3   517  ASP517     -0.1239
     87  CA        -6.2550  -15.1340   38.0180 C.3   517  ASP517      0.1674
     88  C         -5.7460  -16.4000   37.3400 C.2   517  ASP517      0.2266
     89  O         -5.2390  -17.3120   37.9950 O.2   517  ASP517     -0.2867
     90  CB        -5.1540  -14.4970   38.8710 C.3   517  ASP517      0.1410
     91  CG        -4.1060  -13.7710   38.0390 C.2   517  ASP517      0.3668
     92  OD1       -4.0210  -14.0210   36.8170 O.co2 517  ASP517     -0.2456
     93  OD2       -3.3630  -12.9460   38.6120 O.co2 517  ASP517     -0.2456
     94  N          0.0510  -18.0300   27.1280 N.3   566  GLN566     -0.1245
     95  CA        -0.4350  -16.6650   27.2920 C.3   566  GLN566      0.1566
     96  C          0.0850  -15.7280   26.1970 C.2   566  GLN566      0.2260
     97  O          1.2980  -15.6190   25.9900 O.2   566  GLN566     -0.2867
     98  CB        -0.0270  -16.1320   28.6680 C.3   566  GLN566      0.0367
     99  CG        -0.3270  -14.6620   28.8870 C.3   566  GLN566      0.0905
    100  CD         0.3620  -14.1020   30.1150 C.2   566  GLN566      0.2608
    101  OE1        1.2090  -14.7610   30.7250 O.2   566  GLN566     -0.2717
    102  NE2       -0.0000  -12.8800   30.4880 N.am  566  GLN566     -0.0878
    103  N         -0.2180   -9.0930   27.6870 N.3   569  ARG569     -0.1245
    104  CA        -0.8990   -7.8060   27.6220 C.3   569  ARG569      0.1563
    105  C         -0.4310   -6.9700   26.4340 C.2   569  ARG569      0.2260
    106  O         -1.2200   -6.2520   25.8180 O.2   569  ARG569     -0.2867
    107  CB        -0.6870   -7.0220   28.9170 C.3   569  ARG569      0.0307
    108  CG        -1.2600   -7.6930   30.1510 C.3   569  ARG569      0.0489
    109  CD        -1.2780   -6.7400   31.3350 C.3   569  ARG569      0.2205
    110  NE        -2.0210   -5.5200   31.0270 N.pl3 569  ARG569     -0.0865
    111  CZ        -3.3430   -5.4060   31.1170 C.cat 569  ARG569      0.5346
    112  NH1       -4.0810   -6.4390   31.5110 N.pl3 569  ARG569      0.1354
    113  NH2       -3.9290   -4.2560   30.8170 N.pl3 569  ARG569      0.1354
@<TRIPOS>BOND
     1    63    61    1
     2    61    62    1
     3    61    60    2
     4    60    59    1
     5    48    47    2
     6    47    46    1
     7    59    58    1
     8    58    57    1
     9   106   105    2
    10    97    96    2
    11    96    95    1
    12   105   104    1
    13    52    50   ar
    14    46    49    1
    15    46    45    1
    16    50    51   ar
    17    50    49    1
    18    57    54    1
    19    94    95    1
    20    95    98    1
    21    53    54    1
    22    54    55    1
    23   104   103    1
    24   104   107    1
    25    98    99    1
    26    55    56    2
    27    55    64   am
    28    99   100    1
    29   107   108    1
    30    64    65    1
    31   100   102   am
    32   100   101    2
    33   108   109    1
    34    67    66    2
    35   113   111    1
    36     6     5    1
    37   110   111    2
    38   110   109    1
    39   111   112    1
    40    76    75    1
    41    76    77    1
    42    65    66    1
    43    65    68    1
    44    66    70   am
    45    75    74    1
    46     5     2    1
    47    68    69    1
    48     1     2    1
    49    70    71    1
    50    71    74    1
    51    71    72    1
    52     2     3    1
    53    72    78   am
    54    72    73    2
    55    35    34    1
    56    81    80    2
    57     3     4    2
    58    78    79    1
    59    32    34   ar
    60    32    30   ar
    61    80    79    1
    62    34    33   ar
    63    79    82    1
    64    30    29   ar
    65    33    31   ar
    66    82    83    1
    67    85    83   am
    68    92    91   ar
    69    83    84    2
    70    29    31   ar
    71    29    28    1
    72    88    89    2
    73    88    87    1
    74    87    86    1
    75    87    90    1
    76    91    93   ar
    77    91    90    1
    78    28    25    1
    79    25    26    1
    80    25    24    1
    81    27    26    2
    82    24    18   am
    83    44    43    1
    84    18    19    2
    85    18    17    1
    86    43    42    1
    87    10     9    2
    88    17    16    1
    89    17    20    1
    90     9    16   am
    91     9     8    1
    92     8    11    1
    93     8     7    1
    94    42    41    1
    95    41    40    1
    96    36    37    1
    97    11    12    1
    98    20    21    1
    99    22    21   ar
   100    40    37    1
   101    37    38    1
   102    21    23   ar
   103    12    13    1
   104    14    13   ar
   105    13    15   ar
   106    38    39    2
