@<TRIPOS>MOLECULE
tmp/4po7A04.pdb
 105 102 0 0 0
SMALL
GASTEIGER

@<TRIPOS>ATOM
      1  N        -23.1220  -30.3340   12.5200 N.3   360  ASN360     -0.1225
      2  CA       -23.7750  -31.3820   13.2960 C.3   360  ASN360      0.1785
      3  C        -25.1780  -31.0230   13.7710 C.2   360  ASN360      0.2598
      4  O        -25.9500  -31.8980   14.1640 O.2   360  ASN360     -0.2718
      5  CB       -22.9110  -31.7510   14.5030 C.3   360  ASN360      0.1169
      6  CG       -21.5860  -32.3610   14.1020 C.2   360  ASN360      0.2627
      7  OD1      -21.4590  -32.9490   13.0270 O.2   360  ASN360     -0.2716
      8  ND2      -20.5880  -32.2280   14.9680 N.am  360  ASN360     -0.0877
      9  N        -25.5090  -29.7390   13.7340 N.am  361  SER361     -0.1938
     10  CA       -26.7970  -29.2840   14.2400 C.3   361  SER361      0.2055
     11  C        -27.9670  -29.7530   13.3760 C.2   361  SER361      0.2643
     12  O        -27.9140  -29.6840   12.1470 O.2   361  SER361     -0.2714
     13  CB       -26.8120  -27.7600   14.3540 C.3   361  SER361      0.2130
     14  OG       -26.1660  -27.3370   15.5420 O.3   361  SER361     -0.2179
     15  N        -29.0150  -30.2440   14.0340 N.am  362  GLU362     -0.1963
     16  CA       -30.2840  -30.5250   13.3750 C.3   362  GLU362      0.1733
     17  C        -31.1160  -29.2490   13.3320 C.2   362  GLU362      0.2616
     18  O        -30.7800  -28.2620   13.9860 O.2   362  GLU362     -0.2715
     19  CB       -31.0490  -31.6390   14.0960 C.3   362  GLU362      0.0429
     20  CG       -30.4810  -33.0380   13.8880 C.3   362  GLU362      0.1163
     21  CD       -31.3470  -34.1190   14.5150 C.2   362  GLU362      0.3649
     22  OE1      -32.2310  -33.7740   15.3290 O.co2 362  GLU362     -0.2457
     23  OE2      -31.1490  -35.3110   14.1910 O.co2 362  GLU362     -0.2457
     24  N        -32.2090  -29.2720   12.5760 N.am  363  CYS363     -0.1954
     25  CA       -33.0050  -28.0680   12.3580 C.3   363  CYS363      0.1843
     26  C        -34.2230  -27.9710   13.2840 C.2   363  CYS363      0.2625
     27  O        -34.7480  -28.9810   13.7460 O.2   363  CYS363     -0.2714
     28  CB       -33.4480  -28.0010   10.8950 C.3   363  CYS363      0.0997
     29  SG       -32.0860  -27.8080    9.7110 S.3   363  CYS363     -0.0797
     30  N        -34.6550  -26.7370   13.5440 N.am  364  ASP364     -0.1971
     31  CA       -35.7920  -26.4410   14.4190 C.3   364  ASP364      0.1709
     32  C        -37.1250  -26.8990   13.8580 C.2   364  ASP364      0.2293
     33  O        -37.2030  -27.4160   12.7440 O.2   364  ASP364     -0.2864
     34  CB       -35.8850  -24.9350   14.6800 C.3   364  ASP364      0.1436
     35  CG       -35.1560  -24.5100   15.9270 C.2   364  ASP364      0.3671
     36  OD1      -34.8980  -25.3730   16.7900 O.co2 364  ASP364     -0.2456
     37  OD2      -34.8510  -23.3060   16.0500 O.co2 364  ASP364     -0.2456
     38  N        -27.8900  -18.5890   19.9180 N.3   407  GLY407     -0.1210
     39  CA       -28.6010  -18.6870   18.6660 C.3   407  GLY407      0.1956
     40  C        -29.5510  -19.8580   18.6070 C.2   407  GLY407      0.2613
     41  O        -29.8170  -20.5090   19.6200 O.2   407  GLY407     -0.2717
     42  N        -30.0730  -20.1130   17.4130 N.am  408  SER408     -0.1938
     43  CA       -30.8890  -21.2930   17.1610 C.3   408  SER408      0.2055
     44  C        -30.7370  -21.7010   15.7050 C.2   408  SER408      0.2642
     45  O        -30.4810  -20.8630   14.8400 O.2   408  SER408     -0.2714
     46  CB       -32.3640  -21.0460   17.5040 C.3   408  SER408      0.2130
     47  OG       -32.9550  -20.0900   16.6410 O.3   408  SER408     -0.2179
     48  N        -30.8880  -22.9940   15.4500 N.am  409  VAL409     -0.1977
     49  CA       -30.6980  -23.5530   14.1220 C.3   409  VAL409      0.1596
     50  C        -32.0360  -23.9380   13.4900 C.2   409  VAL409      0.2287
     51  O        -32.6780  -24.9070   13.9020 O.2   409  VAL409     -0.2864
     52  CB       -29.7750  -24.7830   14.1710 C.3   409  VAL409      0.0276
     53  CG1      -29.7110  -25.4610   12.8170 C.3   409  VAL409      0.0022
     54  CG2      -28.3890  -24.3800   14.6450 C.3   409  VAL409      0.0022
     55  N        -37.3440  -20.9090   21.8790 N.3   416  MET416     -0.1230
     56  CA       -36.8150  -21.9180   22.7890 C.3   416  MET416      0.1702
     57  C        -35.5860  -21.4110   23.5380 C.2   416  MET416      0.2592
     58  O        -34.9820  -20.4100   23.1530 O.2   416  MET416     -0.2718
     59  CB       -36.4640  -23.1980   22.0220 C.3   416  MET416      0.0401
     60  CG       -37.6590  -23.9560   21.4320 C.3   416  MET416      0.0596
     61  SD       -38.4630  -25.0490   22.6170 S.3   416  MET416     -0.1393
     62  CE       -39.7190  -23.9700   23.3110 C.3   416  MET416      0.0692
     63  N        -35.2230  -22.1130   24.6080 N.am  417  VAL417     -0.1966
     64  CA       -34.0230  -21.8010   25.3760 C.3   417  VAL417      0.1712
     65  C        -32.7850  -22.1140   24.5390 C.2   417  VAL417      0.2458
     66  O        -32.5680  -23.2580   24.1400 O.2   417  VAL417     -0.2730
     67  CB       -33.9890  -22.5860   26.7060 C.3   417  VAL417      0.0289
     68  CG1      -32.7400  -22.2590   27.4950 C.3   417  VAL417      0.0023
     69  CG2      -35.2170  -22.2620   27.5280 C.3   417  VAL417      0.0023
     70  N        -31.9690  -21.0900   24.2660 N.am  418  PRO418     -0.2716
     71  CA       -30.8700  -21.1830   23.3010 C.3   418  PRO418      0.1536
     72  C        -29.5520  -21.7400   23.8500 C.2   418  PRO418      0.2598
     73  O        -29.1630  -21.4330   24.9780 O.2   418  PRO418     -0.2715
     74  CB       -30.6870  -19.7280   22.8750 C.3   418  PRO418      0.0310
     75  CG       -31.0060  -18.9560   24.1140 C.3   418  PRO418      0.0237
     76  CD       -32.0910  -19.7320   24.8270 C.3   418  PRO418      0.0939
     77  N        -28.8790  -22.5570   23.0440 N.am  419  ASP419     -0.1972
     78  CA       -27.4990  -22.9460   23.3120 C.3   419  ASP419      0.1709
     79  C        -26.5810  -21.8120   22.8880 C.2   419  ASP419      0.2293
     80  O        -27.0420  -20.7880   22.3860 O.2   419  ASP419     -0.2864
     81  CB       -27.1070  -24.2190   22.5620 C.3   419  ASP419      0.1436
     82  CG       -28.1300  -25.3180   22.6940 C.2   419  ASP419      0.3671
     83  OD1      -28.7620  -25.4280   23.7660 O.co2 419  ASP419     -0.2456
     84  OD2      -28.2970  -26.0780   21.7170 O.co2 419  ASP419     -0.2456
     85  N        -23.2650  -20.6260   20.5440 N.3   421  TYR421     -0.1241
     86  CA       -22.4990  -20.9840   19.3540 C.3   421  TYR421      0.1605
     87  C        -21.2620  -20.1210   19.2190 C.2   421  TYR421      0.2264
     88  O        -21.2600  -18.9510   19.6120 O.2   421  TYR421     -0.2867
     89  CB       -23.3610  -20.8480   18.0960 C.3   421  TYR421      0.0534
     90  CG       -24.5310  -21.7990   18.0770 C.ar  421  TYR421     -0.0201
     91  CD1      -24.4380  -23.0180   17.4250 C.ar  421  TYR421     -0.0009
     92  CD2      -25.7200  -21.4860   18.7250 C.ar  421  TYR421     -0.0009
     93  CE1      -25.4890  -23.8930   17.4110 C.ar  421  TYR421      0.0417
     94  CE2      -26.7830  -22.3610   18.7170 C.ar  421  TYR421      0.0417
     95  CZ       -26.6580  -23.5640   18.0570 C.ar  421  TYR421      0.1957
     96  OH       -27.7020  -24.4520   18.0300 O.3   421  TYR421     -0.2866
     97  N        -21.5450  -25.4360   17.9230 N.3   432  LYS432     -0.1245
     98  CA       -22.1400  -25.2600   19.2400 C.3   432  LYS432      0.1561
     99  C        -21.0280  -25.2640   20.2850 C.2   432  LYS432      0.2260
    100  O        -20.2970  -26.2460   20.4230 O.2   432  LYS432     -0.2867
    101  CB       -23.1740  -26.3490   19.5420 C.3   432  LYS432      0.0271
    102  CG       -24.0120  -26.0630   20.7830 C.3   432  LYS432      0.0035
    103  CD       -24.9340  -27.2160   21.1220 C.3   432  LYS432      0.0206
    104  CE       -25.9330  -27.4830   20.0130 C.3   432  LYS432      0.1093
    105  NZ       -26.8700  -28.5790   20.3910 N.3   432  LYS432     -0.1314
@<TRIPOS>BOND
     1    29    28    1
     2    28    25    1
     3    12    11    2
     4    25    24    1
     5    25    26    1
     6     1     2    1
     7    24    17   am
     8    33    32    2
     9    53    52    1
    10     7     6    2
    11    26    30   am
    12    26    27    2
    13     2     3    1
    14     2     5    1
    15    17    16    1
    16    17    18    2
    17    16    15    1
    18    16    19    1
    19    11    15   am
    20    11    10    1
    21    50    51    2
    22    50    49    1
    23    30    31    1
    24     9     3   am
    25     9    10    1
    26     3     4    2
    27    32    31    1
    28    20    19    1
    29    20    21    1
    30     6     5    1
    31     6     8   am
    32    49    52    1
    33    49    48    1
    34    52    54    1
    35    23    21   ar
    36    10    13    1
    37    13    14    1
    38    31    34    1
    39    21    22   ar
    40    34    35    1
    41    45    44    2
    42    48    44   am
    43    44    43    1
    44    35    37   ar
    45    35    36   ar
    46    47    46    1
    47    43    42    1
    48    43    46    1
    49    93    91   ar
    50    93    95   ar
    51    42    40   am
    52    91    90   ar
    53    97    98    1
    54    96    95    1
    55    95    94   ar
    56    90    89    1
    57    90    92   ar
    58    89    86    1
    59    40    39    1
    60    40    41    2
    61    39    38    1
    62    94    92   ar
    63    87    86    1
    64    87    88    2
    65    98   101    1
    66    98    99    1
    67    86    85    1
    68   101   102    1
    69   104   105    1
    70   104   103    1
    71    99   100    2
    72   102   103    1
    73    60    59    1
    74    60    61    1
    75    84    82   ar
    76    55    56    1
    77    59    56    1
    78    80    79    2
    79    81    82    1
    80    81    78    1
    81    61    62    1
    82    82    83   ar
    83    56    57    1
    84    74    71    1
    85    74    75    1
    86    79    78    1
    87    77    78    1
    88    77    72   am
    89    58    57    2
    90    71    72    1
    91    71    70    1
    92    57    63   am
    93    72    73    2
    94    75    76    1
    95    66    65    2
    96    70    65   am
    97    70    76    1
    98    65    64    1
    99    63    64    1
   100    64    67    1
   101    67    68    1
   102    67    69    1
