@<TRIPOS>MOLECULE
tmp/4po7A00.pdb
 133 132 0 0 0
SMALL
GASTEIGER

@<TRIPOS>ATOM
      1  N        -28.4380   -0.8940   44.7260 N.3    26  SER26      -0.1202
      2  CA       -27.9200   -1.0300   43.3690 C.3    26  SER26       0.2020
      3  C        -26.3960   -0.9380   43.3340 C.2    26  SER26       0.2619
      4  O        -25.7830   -0.3560   44.2240 O.2    26  SER26      -0.2717
      5  CB       -28.5270    0.0420   42.4620 C.3    26  SER26       0.2103
      6  OG       -28.2030    1.3420   42.9240 O.3    26  SER26      -0.2182
      7  N        -25.7930   -1.5120   42.2980 N.am   27  VAL27      -0.1965
      8  CA       -24.3400   -1.5450   42.1710 C.3    27  VAL27       0.1727
      9  C        -23.8790   -1.0830   40.7890 C.2    27  VAL27       0.2617
     10  O        -24.4220   -1.5160   39.7730 O.2    27  VAL27      -0.2715
     11  CB       -23.7950   -2.9630   42.4340 C.3    27  VAL27       0.0290
     12  CG1      -22.3130   -3.0380   42.1180 C.3    27  VAL27       0.0023
     13  CG2      -24.0570   -3.3720   43.8710 C.3    27  VAL27       0.0023
     14  N        -22.8850   -0.1980   40.7560 N.am   28  SER28      -0.1936
     15  CA       -22.2610    0.2090   39.4970 C.3    28  SER28       0.2055
     16  C        -20.7520   -0.0160   39.5300 C.2    28  SER28       0.2643
     17  O        -20.0810    0.4040   40.4700 O.2    28  SER28      -0.2714
     18  CB       -22.5450    1.6800   39.1910 C.3    28  SER28       0.2130
     19  OG       -23.9280    1.9600   39.2410 O.3    28  SER28      -0.2179
     20  N        -20.2300   -0.6810   38.5020 N.am   29  LEU29      -0.1963
     21  CA       -18.7880   -0.8510   38.3310 C.3    29  LEU29       0.1728
     22  C        -18.2350    0.0680   37.2550 C.2    29  LEU29       0.2617
     23  O        -18.8670    0.2750   36.2140 O.2    29  LEU29      -0.2715
     24  CB       -18.4380   -2.2910   37.9600 C.3    29  LEU29       0.0311
     25  CG       -18.2430   -3.3430   39.0410 C.3    29  LEU29       0.0022
     26  CD1      -19.5790   -3.7370   39.6450 C.3    29  LEU29       0.0001
     27  CD2      -17.5360   -4.5440   38.4410 C.3    29  LEU29       0.0001
     28  N        -17.0450    0.6000   37.5030 N.am   30  SER30      -0.1936
     29  CA       -16.3130    1.3520   36.4910 C.3    30  SER30       0.2055
     30  C        -14.8310    1.0200   36.5640 C.2    30  SER30       0.2643
     31  O        -14.2320    1.0230   37.6420 O.2    30  SER30      -0.2714
     32  CB       -16.5120    2.8610   36.6620 C.3    30  SER30       0.2130
     33  OG       -17.8630    3.2350   36.4880 O.3    30  SER30      -0.2179
     34  N        -14.2420    0.7310   35.4140 N.am   31  TRP31      -0.1973
     35  CA       -12.7990    0.5880   35.3320 C.3    31  TRP31       0.1640
     36  C        -12.1640    1.9550   35.1330 C.2    31  TRP31       0.2290
     37  O        -12.6480    2.7570   34.3400 O.2    31  TRP31      -0.2864
     38  CB       -12.4140   -0.3490   34.1940 C.3    31  TRP31       0.0576
     39  CG       -12.8120   -1.7580   34.4370 C.ar   31  TRP31       0.0006
     40  CD1      -14.0330   -2.3180   34.2010 C.ar   31  TRP31       0.0946
     41  CD2      -11.9860   -2.7990   34.9640 C.ar   31  TRP31       0.0152
     42  NE1      -14.0180   -3.6480   34.5500 N.ar   31  TRP31      -0.2442
     43  CE2      -12.7710   -3.9670   35.0200 C.ar   31  TRP31       0.0810
     44  CE3      -10.6550   -2.8600   35.3840 C.ar   31  TRP31       0.0012
     45  CZ2      -12.2710   -5.1770   35.4840 C.ar   31  TRP31       0.0191
     46  CZ3      -10.1600   -4.0650   35.8480 C.ar   31  TRP31       0.0001
     47  CH2      -10.9650   -5.2070   35.8890 C.ar   31  TRP31       0.0015
     48  N        -27.5390    8.4720   41.5140 N.3    83  THR83      -0.1218
     49  CA       -27.4270    7.2400   40.7430 C.3    83  THR83       0.1862
     50  C        -27.3950    7.5310   39.2490 C.2    83  THR83       0.2287
     51  O        -26.6310    6.9210   38.5010 O.2    83  THR83      -0.2866
     52  CB       -28.6000    6.2820   41.0480 C.3    83  THR83       0.1770
     53  OG1      -28.5890    5.9360   42.4380 O.3    83  THR83      -0.2211
     54  CG2      -28.5040    5.0120   40.2050 C.3    83  THR83       0.0375
     55  N        -20.7650    7.3560   37.6800 N.3    87  MET87      -0.1245
     56  CA       -19.3520    7.7040   37.7690 C.3    87  MET87       0.1570
     57  C        -18.8290    8.1580   36.4140 C.2    87  MET87       0.2261
     58  O        -18.7740    7.3760   35.4640 O.2    87  MET87      -0.2867
     59  CB       -18.5380    6.5140   38.2880 C.3    87  MET87       0.0387
     60  CG       -19.1000    5.9140   39.5720 C.3    87  MET87       0.0595
     61  SD       -17.9970    4.7600   40.4080 S.3    87  MET87      -0.1393
     62  CE       -18.4660    3.2110   39.6490 C.3    87  MET87       0.0692
     63  N        -16.0620    8.7290   34.2480 N.3    89  ILE89      -0.1245
     64  CA       -14.6480    8.3900   34.1110 C.3    89  ILE89       0.1561
     65  C        -13.9820    9.1310   32.9530 C.2    89  ILE89       0.2260
     66  O        -14.5100    9.1730   31.8420 O.2    89  ILE89      -0.2867
     67  CB       -14.4510    6.8750   33.9070 C.3    89  ILE89       0.0252
     68  CG1      -15.2600    6.0800   34.9350 C.3    89  ILE89       0.0019
     69  CG2      -12.9660    6.5170   33.9840 C.3    89  ILE89       0.0019
     70  CD1      -14.8340    6.3120   36.3740 C.3    89  ILE89       0.0001
     71  N        -24.8220  -12.7550   39.0020 N.3   485  THR485     -0.1203
     72  CA       -25.3560  -11.5170   38.4420 C.3   485  THR485      0.1997
     73  C        -24.5570  -11.0560   37.2230 C.2   485  THR485      0.2657
     74  O        -25.1380  -10.6640   36.2140 O.2   485  THR485     -0.2713
     75  CB       -25.3800  -10.3820   39.4840 C.3   485  THR485      0.1784
     76  OG1      -24.0820  -10.2390   40.0710 O.3   485  THR485     -0.2211
     77  CG2      -26.3850  -10.6910   40.5790 C.3   485  THR485      0.0376
     78  N        -23.2290  -11.1070   37.3050 N.am  486  GLY486     -0.1718
     79  CA       -22.4120  -10.6440   36.1980 C.2   486  GLY486      0.1480
     80  C        -20.9470  -11.0370   36.1880 C.2   486  GLY486      0.2820
     81  O        -20.3810  -11.4360   37.2050 O.2   486  GLY486     -0.2669
     82  N        -20.3430  -10.9270   35.0080 N.am  487  LEU487     -0.1929
     83  CA       -18.9050  -11.0900   34.8260 C.3   487  LEU487      0.1731
     84  C        -18.2610   -9.7370   34.5750 C.2   487  LEU487      0.2616
     85  O        -18.6750   -9.0050   33.6800 O.2   487  LEU487     -0.2715
     86  CB       -18.5920  -12.0120   33.6480 C.3   487  LEU487      0.0311
     87  CG       -18.9500  -13.4900   33.7190 C.3   487  LEU487      0.0022
     88  CD1      -18.7730  -14.1180   32.3390 C.3   487  LEU487      0.0001
     89  CD2      -18.0860  -14.1820   34.7440 C.3   487  LEU487      0.0001
     90  N        -17.2460   -9.4020   35.3560 N.am  488  ALA488     -0.1977
     91  CA       -16.4860   -8.1950   35.0840 C.3   488  ALA488      0.1597
     92  C        -15.0570   -8.5620   34.7000 C.2   488  ALA488      0.2287
     93  O        -14.4780   -9.5050   35.2390 O.2   488  ALA488     -0.2864
     94  CB       -16.5050   -7.2640   36.2820 C.3   488  ALA488      0.0319
     95  N        -19.4680  -11.8720   39.7640 N.3   501  TRP501     -0.1241
     96  CA       -20.3040  -11.1750   40.7360 C.3   501  TRP501      0.1605
     97  C        -21.6130  -11.9120   41.0080 C.2   501  TRP501      0.2264
     98  O        -22.1120  -12.6590   40.1660 O.2   501  TRP501     -0.2867
     99  CB       -20.6020   -9.7570   40.2580 C.3   501  TRP501      0.0550
    100  CG       -19.4740   -8.8030   40.4660 C.ar  501  TRP501      0.0003
    101  CD1      -18.3090   -8.7440   39.7600 C.ar  501  TRP501      0.0946
    102  CD2      -19.4060   -7.7570   41.4420 C.ar  501  TRP501      0.0152
    103  NE1      -17.5160   -7.7300   40.2410 N.ar  501  TRP501     -0.2442
    104  CE2      -18.1670   -7.1090   41.2740 C.ar  501  TRP501      0.0810
    105  CE3      -20.2700   -7.3090   42.4440 C.ar  501  TRP501      0.0012
    106  CZ2      -17.7700   -6.0370   42.0710 C.ar  501  TRP501      0.0191
    107  CZ3      -19.8750   -6.2460   43.2340 C.ar  501  TRP501      0.0001
    108  CH2      -18.6370   -5.6210   43.0420 C.ar  501  TRP501      0.0015
    109  N        -24.8410  -12.6180   44.5110 N.3   503  PHE503     -0.1241
    110  CA       -25.1770  -12.5100   45.9230 C.3   503  PHE503      0.1605
    111  C        -25.4380  -13.8780   46.5380 C.2   503  PHE503      0.2264
    112  O        -25.9310  -14.7890   45.8740 O.2   503  PHE503     -0.2867
    113  CB       -26.3840  -11.5870   46.1300 C.3   503  PHE503      0.0534
    114  CG       -27.5960  -11.9690   45.3330 C.ar  503  PHE503     -0.0203
    115  CD1      -27.8030  -11.4410   44.0700 C.ar  503  PHE503     -0.0042
    116  CD2      -28.5420  -12.8380   45.8540 C.ar  503  PHE503     -0.0042
    117  CE1      -28.9220  -11.7820   43.3350 C.ar  503  PHE503     -0.0003
    118  CE2      -29.6680  -13.1840   45.1210 C.ar  503  PHE503     -0.0003
    119  CZ       -29.8570  -12.6540   43.8600 C.ar  503  PHE503     -0.0000
    120  N        -23.6960   -9.0250   48.6860 N.3   511  TRP511     -0.1241
    121  CA       -22.9300   -9.0070   47.4480 C.3   511  TRP511      0.1605
    122  C        -21.5820   -9.7000   47.6380 C.2   511  TRP511      0.2264
    123  O        -20.9330   -9.5430   48.6770 O.2   511  TRP511     -0.2867
    124  CB       -22.7100   -7.5720   46.9700 C.3   511  TRP511      0.0550
    125  CG       -23.9220   -6.9050   46.4100 C.ar  511  TRP511      0.0003
    126  CD1      -24.6660   -5.9230   46.9970 C.ar  511  TRP511      0.0946
    127  CD2      -24.5250   -7.1590   45.1370 C.ar  511  TRP511      0.0152
    128  NE1      -25.6980   -5.5530   46.1690 N.ar  511  TRP511     -0.2442
    129  CE2      -25.6330   -6.2990   45.0210 C.ar  511  TRP511      0.0810
    130  CE3      -24.2360   -8.0340   44.0850 C.ar  511  TRP511      0.0012
    131  CZ2      -26.4530   -6.2880   43.8930 C.ar  511  TRP511      0.0191
    132  CZ3      -25.0520   -8.0210   42.9670 C.ar  511  TRP511      0.0001
    133  CH2      -26.1460   -7.1540   42.8810 C.ar  511  TRP511      0.0015
@<TRIPOS>BOND
     1    66    65    2
     2    88    87    1
     3    65    64    1
     4    86    87    1
     5    86    83    1
     6    85    84    2
     7    87    89    1
     8    67    69    1
     9    67    64    1
    10    67    68    1
    11    64    63    1
    12    38    39    1
    13    38    35    1
    14    40    39   ar
    15    40    42   ar
    16    37    36    2
    17    39    41   ar
    18    42    43   ar
    19    84    83    1
    20    84    90   am
    21    92    91    1
    22    92    93    2
    23    83    82    1
    24    68    70    1
    25    41    43   ar
    26    41    44   ar
    27    82    80   am
    28    43    45   ar
    29    91    90    1
    30    91    94    1
    31    36    35    1
    32    35    34    1
    33    44    46   ar
    34    34    30   am
    35    58    57    2
    36    45    47   ar
    37    46    47   ar
    38    80    79    1
    39    80    81    2
    40    79    78    2
    41    74    73    2
    42    23    22    2
    43    57    56    1
    44    33    32    1
    45    29    30    1
    46    29    32    1
    47    29    28    1
    48    30    31    2
    49    73    78    1
    50    73    72    1
    51    22    28   am
    52    22    21    1
    53    55    56    1
    54    56    59    1
    55    24    21    1
    56    24    25    1
    57    59    60    1
    58    21    20    1
    59    27    25    1
    60    72    71    1
    61    72    75    1
    62    51    50    2
    63    20    16   am
    64    25    26    1
    65    18    19    1
    66    18    15    1
    67    50    49    1
    68    75    76    1
    69    75    77    1
    70    15    16    1
    71    15    14    1
    72    16    17    2
    73    60    61    1
    74    62    61    1
    75   101   103   ar
    76   101   100   ar
    77    95    96    1
    78    10     9    2
    79    98    97    2
    80    54    52    1
    81   103   104   ar
    82    99   100    1
    83    99    96    1
    84   100   102   ar
    85    96    97    1
    86    49    52    1
    87    49    48    1
    88    14     9   am
    89     9     8    1
    90    52    53    1
    91   104   102   ar
    92   104   106   ar
    93   102   105   ar
    94   106   108   ar
    95    12    11    1
    96     8     7    1
    97     8    11    1
    98     7     3   am
    99    11    13    1
   100   105   107   ar
   101     5     6    1
   102     5     2    1
   103   133   132   ar
   104   133   131   ar
   105   132   130   ar
   106   108   107   ar
   107     3     2    1
   108     3     4    2
   109   117   119   ar
   110   117   115   ar
   111     2     1    1
   112   119   118   ar
   113   131   129   ar
   114   115   114   ar
   115   130   127   ar
   116   109   110    1
   117   129   127   ar
   118   129   128   ar
   119   118   116   ar
   120   127   125   ar
   121   114   116   ar
   122   114   113    1
   123   112   111    2
   124   110   113    1
   125   110   111    1
   126   128   126   ar
   127   125   124    1
   128   125   126   ar
   129   124   121    1
   130   121   122    1
   131   121   120    1
   132   122   123    2
