@<TRIPOS>MOLECULE
tmp/4po7A01.pdb
 99 93 0 0 0
SMALL
GASTEIGER

@<TRIPOS>ATOM
      1  N        -23.7350    2.5900   12.5010 N.3   270  ALA270     -0.1231
      2  CA       -22.3010    2.4710   12.6850 C.3   270  ALA270      0.1694
      3  C        -21.6060    3.4310   11.7330 C.2   270  ALA270      0.2592
      4  O        -22.0640    3.6440   10.6080 O.2   270  ALA270     -0.2718
      5  CB       -21.8430    1.0390   12.4440 C.3   270  ALA270      0.0304
      6  N        -20.5050    4.0160   12.1890 N.am  271  ALA271     -0.1966
      7  CA       -19.7620    4.9710   11.3800 C.3   271  ALA271      0.1728
      8  C        -18.2720    4.9030   11.6840 C.2   271  ALA271      0.2616
      9  O        -17.8630    4.8610   12.8460 O.2   271  ALA271     -0.2715
     10  CB       -20.2840    6.3770   11.6130 C.3   271  ALA271      0.0334
     11  N        -17.4600    4.8810   10.6360 N.am  272  ASN272     -0.1958
     12  CA       -16.0220    4.9480   10.8220 C.3   272  ASN272      0.1819
     13  C        -15.4230    6.0850   10.0030 C.2   272  ASN272      0.2621
     14  O        -16.0900    7.0820    9.7280 O.2   272  ASN272     -0.2715
     15  CB       -15.3620    3.6070   10.4750 C.3   272  ASN272      0.1195
     16  CG       -15.6530    3.1440    9.0590 C.2   272  ASN272      0.2630
     17  OD1      -15.9170    3.9440    8.1620 O.2   272  ASN272     -0.2716
     18  ND2      -15.5890    1.8360    8.8510 N.am  272  ASN272     -0.0877
     19  N        -14.1680    5.9340    9.6070 N.am  273  ASP273     -0.1971
     20  CA       -13.4860    6.9970    8.8950 C.3   273  ASP273      0.1709
     21  C        -13.7760    6.9390    7.3970 C.2   273  ASP273      0.2293
     22  O        -13.5280    7.8990    6.6680 O.2   273  ASP273     -0.2864
     23  CB       -11.9830    6.9190    9.1550 C.3   273  ASP273      0.1436
     24  CG       -11.3060    8.2580    9.0120 C.2   273  ASP273      0.3671
     25  OD1      -11.6670    9.1770    9.7770 O.co2 273  ASP273     -0.2456
     26  OD2      -10.4210    8.3930    8.1390 O.co2 273  ASP273     -0.2456
     27  N        -16.9900    5.4270    6.0320 N.3   275  MET275     -0.1245
     28  CA       -18.4060    5.4240    5.6700 C.3   275  MET275      0.1570
     29  C        -19.3350    5.3050    6.8710 C.2   275  MET275      0.2261
     30  O        -18.8810    5.2260    8.0110 O.2   275  MET275     -0.2867
     31  CB       -18.6900    4.2770    4.6950 C.3   275  MET275      0.0387
     32  CG       -18.2230    2.9120    5.1910 C.3   275  MET275      0.0595
     33  SD       -19.3620    2.0940    6.3310 S.3   275  MET275     -0.1393
     34  CE       -20.6740    1.6330    5.2060 C.3   275  MET275      0.0692
     35  N        -23.2230    3.2990    8.1010 N.3   277  PHE277     -0.1241
     36  CA       -24.4580    2.5380    7.9090 C.3   277  PHE277      0.1605
     37  C        -25.6230    3.3700    8.4180 C.2   277  PHE277      0.2264
     38  O        -25.6880    3.6910    9.6020 O.2   277  PHE277     -0.2867
     39  CB       -24.4360    1.2040    8.6580 C.3   277  PHE277      0.0534
     40  CG       -23.4990    0.1730    8.0830 C.ar  277  PHE277     -0.0203
     41  CD1      -23.9790   -0.8420    7.2720 C.ar  277  PHE277     -0.0042
     42  CD2      -22.1500    0.1850    8.4010 C.ar  277  PHE277     -0.0042
     43  CE1      -23.1250   -1.8120    6.7670 C.ar  277  PHE277     -0.0003
     44  CE2      -21.2960   -0.7780    7.9010 C.ar  277  PHE277     -0.0003
     45  CZ       -21.7840   -1.7780    7.0870 C.ar  277  PHE277     -0.0000
     46  N        -21.7900   -4.9960   14.7590 N.3   321  ASN321     -0.1240
     47  CA       -20.4440   -5.0330   14.2010 C.3   321  ASN321      0.1653
     48  C        -19.6900   -6.2280   14.7710 C.2   321  ASN321      0.2266
     49  O        -19.3740   -6.2620   15.9570 O.2   321  ASN321     -0.2867
     50  CB       -19.6880   -3.7320   14.5030 C.3   321  ASN321      0.1155
     51  CG       -18.3330   -3.6590   13.8080 C.2   321  ASN321      0.2627
     52  OD1      -17.8010   -4.6620   13.3220 O.2   321  ASN321     -0.2716
     53  ND2      -17.7710   -2.4590   13.7580 N.am  321  ASN321     -0.0877
     54  N        -16.6570   -7.2880   15.4100 N.3   323  THR323     -0.1218
     55  CA       -15.4410   -6.4890   15.4660 C.3   323  THR323      0.1862
     56  C        -14.1570   -7.3020   15.3820 C.2   323  THR323      0.2287
     57  O        -13.0770   -6.7310   15.3300 O.2   323  THR323     -0.2866
     58  CB       -15.3950   -5.6440   16.7550 C.3   323  THR323      0.1770
     59  OG1      -15.6290   -6.4830   17.8920 O.3   323  THR323     -0.2211
     60  CG2      -16.4530   -4.5620   16.7140 C.3   323  THR323      0.0375
     61  N        -12.6150   -7.7880    9.8520 N.3   326  ARG326     -0.1245
     62  CA       -12.8810   -6.6710    8.9530 C.3   326  ARG326      0.1563
     63  C        -14.0530   -6.9310    8.0050 C.2   326  ARG326      0.2260
     64  O        -14.0990   -7.9560    7.3250 O.2   326  ARG326     -0.2867
     65  CB       -11.6200   -6.3610    8.1470 C.3   326  ARG326      0.0307
     66  CG       -11.6970   -5.1160    7.3060 C.3   326  ARG326      0.0489
     67  CD       -10.3500   -4.8200    6.6580 C.3   326  ARG326      0.2205
     68  NE        -9.8540   -5.9590    5.8890 N.pl3 326  ARG326     -0.0865
     69  CZ       -10.0580   -6.1230    4.5870 C.cat 326  ARG326      0.5346
     70  NH1      -10.7390   -5.2140    3.9030 N.pl3 326  ARG326      0.1354
     71  NH2       -9.5820   -7.1960    3.9700 N.pl3 326  ARG326      0.1354
     72  N        -20.6110   -7.8530    9.5900 N.3   329  TYR329     -0.1241
     73  CA       -21.7100   -7.3750   10.4140 C.3   329  TYR329      0.1605
     74  C        -22.8580   -8.3790   10.3530 C.2   329  TYR329      0.2264
     75  O        -23.1140   -8.9580    9.2970 O.2   329  TYR329     -0.2867
     76  CB       -22.1880   -5.9990    9.9460 C.3   329  TYR329      0.0534
     77  CG       -21.1000   -4.9500    9.8210 C.ar  329  TYR329     -0.0201
     78  CD1      -20.9290   -3.9760   10.7990 C.ar  329  TYR329     -0.0009
     79  CD2      -20.2530   -4.9250    8.7210 C.ar  329  TYR329     -0.0009
     80  CE1      -19.9420   -3.0140   10.6850 C.ar  329  TYR329      0.0417
     81  CE2      -19.2610   -3.9700    8.6010 C.ar  329  TYR329      0.0417
     82  CZ       -19.1100   -3.0170    9.5810 C.ar  329  TYR329      0.1957
     83  OH       -18.1250   -2.0670    9.4580 O.3   329  TYR329     -0.2866
     84  N        -11.6770   -7.2490   18.9410 N.3   397  PRO397     -0.2116
     85  CA       -10.7550   -7.0600   17.8090 C.3   397  PRO397      0.1372
     86  C         -9.3750   -7.6980   17.9840 C.2   397  PRO397      0.2244
     87  O         -8.6940   -7.9220   16.9820 O.2   397  PRO397     -0.2868
     88  CB       -10.6270   -5.5330   17.7060 C.3   397  PRO397      0.0268
     89  CG       -11.1950   -4.9890   18.9720 C.3   397  PRO397      0.0207
     90  CD       -12.2180   -5.9710   19.4320 C.3   397  PRO397      0.0892
     91  N         -0.5500   -9.0460   11.0920 N.3   575  LYS575     -0.1245
     92  CA        -1.2560   -9.3070    9.8440 C.3   575  LYS575      0.1561
     93  C         -0.5640   -8.6430    8.6530 C.2   575  LYS575      0.2260
     94  O          0.0000   -7.5570    8.7780 O.2   575  LYS575     -0.2867
     95  CB        -2.7090   -8.8390    9.9440 C.3   575  LYS575      0.0271
     96  CG        -2.8650   -7.3670   10.2780 C.3   575  LYS575      0.0035
     97  CD        -4.3230   -6.9620   10.3490 C.3   575  LYS575      0.0206
     98  CE        -4.4650   -5.4600   10.5290 C.3   575  LYS575      0.1093
     99  NZ        -5.8350   -5.1070   10.9930 N.3   575  LYS575     -0.1314
@<TRIPOS>BOND
     1    70    69    1
     2    71    69    1
     3    69    68    2
     4    31    32    1
     5    31    28    1
     6    32    33    1
     7    34    33    1
     8    28    27    1
     9    28    29    1
    10    68    67    1
    11    67    66    1
    12    22    21    2
    13    43    45   ar
    14    43    41   ar
    15    29    30    2
    16    45    44   ar
    17    41    40   ar
    18    66    65    1
    19    64    63    2
    20    21    20    1
    21    44    42   ar
    22    36    35    1
    23    36    37    1
    24    36    39    1
    25    63    62    1
    26    40    42   ar
    27    40    39    1
    28    26    24   ar
    29    65    62    1
    30    17    16    2
    31    37    38    2
    32    81    79   ar
    33    81    82   ar
    34    93    94    2
    35    93    92    1
    36    79    77   ar
    37    18    16   am
    38    20    23    1
    39    20    19    1
    40    62    61    1
    41    24    23    1
    42    24    25   ar
    43    16    15    1
    44    75    74    2
    45    83    82    1
    46    82    80   ar
    47    72    73    1
    48    19    13   am
    49    14    13    2
    50    77    76    1
    51    77    78   ar
    52    92    95    1
    53    92    91    1
    54    95    96    1
    55    76    73    1
    56    13    12    1
    57    96    97    1
    58    97    98    1
    59    74    73    1
    60    15    12    1
    61    98    99    1
    62     4     3    2
    63    11    12    1
    64    11     8   am
    65    80    78   ar
    66     7    10    1
    67     7     8    1
    68     7     6    1
    69     8     9    2
    70     3     6   am
    71     3     2    1
    72     5     2    1
    73     1     2    1
    74    52    51    2
    75    53    51   am
    76    51    50    1
    77    47    50    1
    78    47    46    1
    79    47    48    1
    80    48    49    2
    81    57    56    2
    82    56    55    1
    83    54    55    1
    84    55    58    1
    85    60    58    1
    86    58    59    1
    87    87    86    2
    88    88    85    1
    89    88    89    1
    90    85    86    1
    91    85    84    1
    92    84    90    1
    93    89    90    1
