@<TRIPOS>MOLECULE
tmp/4pogK00.pdb
 142 138 0 0 0
SMALL
GASTEIGER

@<TRIPOS>ATOM
      1  N         22.7280  136.7130   85.9510 N.3   125  ARG125     -0.1245
      2  CA        22.2440  135.7830   84.9300 C.3   125  ARG125      0.1563
      3  C         21.4870  136.4610   83.7990 C.2   125  ARG125      0.2260
      4  O         20.8700  137.5040   83.9940 O.2   125  ARG125     -0.2867
      5  CB        21.2860  134.7870   85.5510 C.3   125  ARG125      0.0307
      6  CG        21.8830  133.8330   86.5340 C.3   125  ARG125      0.0489
      7  CD        20.8510  132.8300   86.8630 C.3   125  ARG125      0.2205
      8  NE        21.1560  132.1020   88.0770 N.pl3 125  ARG125     -0.0865
      9  CZ        20.3280  131.2090   88.5950 C.cat 125  ARG125      0.5346
     10  NH1       19.1610  130.9640   87.9930 N.pl3 125  ARG125      0.1354
     11  NH2       20.6560  130.5690   89.7070 N.pl3 125  ARG125      0.1354
     12  N         18.0880  133.0620   77.3480 N.3   128  GLU128     -0.1245
     13  CA        18.1900  133.0070   75.8960 C.3   128  GLU128      0.1567
     14  C         17.2220  134.0340   75.3660 C.2   128  GLU128      0.2260
     15  O         16.2550  134.3680   76.0460 O.2   128  GLU128     -0.2867
     16  CB        17.8240  131.6120   75.3680 C.3   128  GLU128      0.0388
     17  CG        17.9910  131.4410   73.8370 C.3   128  GLU128      0.1160
     18  CD        17.5480  130.0720   73.3060 C.2   128  GLU128      0.3649
     19  OE1       17.4980  129.9040   72.0640 O.co2 128  GLU128     -0.2457
     20  OE2       17.2520  129.1660   74.1220 O.co2 128  GLU128     -0.2457
     21  N         14.3510  134.7300   73.5830 N.3   130  LYS130     -0.1245
     22  CA        13.2230  133.9760   73.0820 C.3   130  LYS130      0.1561
     23  C         12.1650  134.9150   72.5370 C.2   130  LYS130      0.2260
     24  O         12.0880  136.0750   72.9260 O.2   130  LYS130     -0.2867
     25  CB        12.6450  133.1030   74.1970 C.3   130  LYS130      0.0271
     26  CG        13.6600  132.1950   74.8890 C.3   130  LYS130      0.0035
     27  CD        13.1520  131.7390   76.2360 C.3   130  LYS130      0.0206
     28  CE        14.0780  130.7260   76.8570 C.3   130  LYS130      0.1093
     29  NZ        14.1310  129.4920   76.0310 N.3   130  LYS130     -0.1314
     30  N         18.6560  138.1760   85.8090 N.3   187  ARG187     -0.1245
     31  CA        18.6360  138.3160   87.2280 C.3   187  ARG187      0.1563
     32  C         19.7570  139.2670   87.7030 C.2   187  ARG187      0.2260
     33  O         20.8560  139.2630   87.1530 O.2   187  ARG187     -0.2867
     34  CB        18.7990  136.9340   87.8190 C.3   187  ARG187      0.0307
     35  CG        19.0130  136.9460   89.2850 C.3   187  ARG187      0.0489
     36  CD        19.1870  135.5650   89.7560 C.3   187  ARG187      0.2205
     37  NE        17.9430  134.8220   89.6440 N.pl3 187  ARG187     -0.0865
     38  CZ        17.7720  133.6280   90.1810 C.cat 187  ARG187      0.5346
     39  NH1       18.7650  133.0550   90.8660 N.pl3 187  ARG187      0.1354
     40  NH2       16.6090  133.0190   90.0420 N.pl3 187  ARG187      0.1354
     41  N         22.1530  138.3890  103.6400 N.3   200  MET200     -0.1231
     42  CA        22.2980  137.6420  102.3820 C.3   200  MET200      0.1687
     43  C         21.9190  138.4450  101.1310 C.2   200  MET200      0.2434
     44  O         20.9250  139.1670  101.1380 O.2   200  MET200     -0.2733
     45  CB        21.5540  136.3130  102.4010 C.3   200  MET200      0.0400
     46  CG        21.9730  135.4590  101.2230 C.3   200  MET200      0.0596
     47  SD        22.1550  133.7110  101.5240 S.3   200  MET200     -0.1393
     48  CE        20.4430  133.1770  101.2320 C.3   200  MET200      0.0692
     49  N         22.7540  138.3510  100.0670 N.am  201  PRO201     -0.2718
     50  CA        22.4260  139.0340   98.8350 C.3   201  PRO201      0.1535
     51  C         21.1610  138.4690   98.2930 C.2   201  PRO201      0.2598
     52  O         21.0830  137.2780   98.0090 O.2   201  PRO201     -0.2715
     53  CB        23.6080  138.7030   97.9150 C.3   201  PRO201      0.0310
     54  CG        24.3900  137.6350   98.6080 C.3   201  PRO201      0.0237
     55  CD        24.1390  137.8330  100.0450 C.3   201  PRO201      0.0939
     56  N         20.1570  139.3270   98.2020 N.am  202  ARG202     -0.1964
     57  CA        18.8620  138.9400   97.6570 C.3   202  ARG202      0.1729
     58  C         18.8690  139.3470   96.1910 C.2   202  ARG202      0.2616
     59  O         19.4270  140.3670   95.8230 O.2   202  ARG202     -0.2715
     60  CB        17.7160  139.6530   98.3820 C.3   202  ARG202      0.0348
     61  CG        17.9170  139.9280   99.8730 C.3   202  ARG202      0.0492
     62  CD        17.0990  139.0280  100.7850 C.3   202  ARG202      0.2205
     63  NE        17.6450  137.6850  100.8780 N.pl3 202  ARG202     -0.0865
     64  CZ        17.5590  136.9330  101.9630 C.cat 202  ARG202      0.5346
     65  NH1       16.9580  137.3990  103.0440 N.pl3 202  ARG202      0.1354
     66  NH2       18.0910  135.7230  101.9750 N.pl3 202  ARG202      0.1354
     67  N         18.2580  138.5500   95.3410 N.am  203  PHE203     -0.1960
     68  CA        18.2440  138.8860   93.9390 C.3   203  PHE203      0.1771
     69  C         16.8100  139.1240   93.4830 C.2   203  PHE203      0.2619
     70  O         15.8500  138.7970   94.1830 O.2   203  PHE203     -0.2715
     71  CB        18.8660  137.7540   93.1270 C.3   203  PHE203      0.0574
     72  CG        18.1350  136.4410   93.2710 C.ar  203  PHE203     -0.0200
     73  CD1       18.5360  135.5050   94.2080 C.ar  203  PHE203     -0.0042
     74  CD2       17.0320  136.1530   92.4820 C.ar  203  PHE203     -0.0042
     75  CE1       17.8680  134.3040   94.3430 C.ar  203  PHE203     -0.0003
     76  CE2       16.3610  134.9590   92.6160 C.ar  203  PHE203     -0.0003
     77  CZ        16.7850  134.0340   93.5440 C.ar  203  PHE203     -0.0000
     78  N         16.6800  139.6910   92.2930 N.am  204  ILE204     -0.1963
     79  CA        15.4180  139.7460   91.6210 C.3   204  ILE204      0.1727
     80  C         15.5780  139.4710   90.1250 C.2   204  ILE204      0.2616
     81  O         16.5190  139.9730   89.4730 O.2   204  ILE204     -0.2715
     82  CB        14.6920  141.0820   91.8660 C.3   204  ILE204      0.0290
     83  CG1       13.2610  141.0110   91.2210 C.3   204  ILE204      0.0022
     84  CG2       15.6150  142.2790   91.4660 C.3   204  ILE204      0.0023
     85  CD1       12.3550  142.1960   91.4430 C.3   204  ILE204      0.0001
     86  N         14.6200  138.6830   89.6070 N.am  205  ASP205     -0.1971
     87  CA        14.5120  138.3490   88.1880 C.3   205  ASP205      0.1709
     88  C         13.7640  139.4550   87.4680 C.2   205  ASP205      0.2293
     89  O         13.0000  140.1920   88.0760 O.2   205  ASP205     -0.2864
     90  CB        13.8160  137.0070   87.9940 C.3   205  ASP205      0.1436
     91  CG        14.6980  135.8110   88.3720 C.2   205  ASP205      0.3671
     92  OD1       15.9090  135.8390   88.0470 O.co2 205  ASP205     -0.2456
     93  OD2       14.1730  134.8380   88.9790 O.co2 205  ASP205     -0.2456
     94  N          4.2740  131.8820   93.7090 N.3   233  GLU233     -0.1231
     95  CA         5.4860  131.0760   93.7340 C.3   233  GLU233      0.1699
     96  C          5.1720  129.7280   93.1230 C.2   233  GLU233      0.2592
     97  O          4.1340  129.1440   93.4340 O.2   233  GLU233     -0.2718
     98  CB         6.0510  130.9450   95.1540 C.3   233  GLU233      0.0402
     99  CG         7.1990  131.9010   95.4220 C.3   233  GLU233      0.1161
    100  CD         7.2230  132.4450   96.8380 C.2   233  GLU233      0.3649
    101  OE1        6.9530  131.6710   97.7800 O.co2 233  GLU233     -0.2457
    102  OE2        7.5230  133.6520   97.0070 O.co2 233  GLU233     -0.2457
    103  N          6.0490  129.2700   92.2270 N.am  234  LYS234     -0.1980
    104  CA         5.9230  127.9700   91.5530 C.3   234  LYS234      0.1596
    105  C          4.6730  127.1980   91.9660 C.2   234  LYS234      0.2287
    106  O          3.6720  127.1730   91.2430 O.2   234  LYS234     -0.2864
    107  CB         7.1560  127.1080   91.8320 C.3   234  LYS234      0.0298
    108  CG         8.2370  127.1570   90.7780 C.3   234  LYS234      0.0038
    109  CD         9.1870  125.9850   90.9860 C.3   234  LYS234      0.0206
    110  CE        10.6120  126.2960   90.5480 C.3   234  LYS234      0.1093
    111  NZ        11.5930  125.5610   91.3990 N.3   234  LYS234     -0.1314
    112  N          4.0970  135.8660   97.3280 N.3   241  PHE241     -0.1227
    113  CA         4.3010  136.2190   95.9280 C.3   241  PHE241      0.1736
    114  C          5.7390  136.3420   95.4530 C.2   241  PHE241      0.2595
    115  O          6.7010  136.4240   96.2490 O.2   241  PHE241     -0.2718
    116  CB         3.5030  137.4580   95.5870 C.3   241  PHE241      0.0547
    117  CG         2.0340  137.1880   95.4190 C.ar  241  PHE241     -0.0202
    118  CD1        1.4830  137.0610   94.1570 C.ar  241  PHE241     -0.0042
    119  CD2        1.2150  137.0380   96.5240 C.ar  241  PHE241     -0.0042
    120  CE1        0.1630  136.8070   93.9990 C.ar  241  PHE241     -0.0003
    121  CE2       -0.1010  136.7810   96.3750 C.ar  241  PHE241     -0.0003
    122  CZ        -0.6380  136.6690   95.1100 C.ar  241  PHE241     -0.0000
    123  N          5.8840  136.3540   94.1370 N.am  242  ARG242     -0.1966
    124  CA         7.2020  136.4520   93.5270 C.3   242  ARG242      0.1729
    125  C          7.3650  137.8280   92.8870 C.2   242  ARG242      0.2616
    126  O          6.5120  138.2710   92.0840 O.2   242  ARG242     -0.2715
    127  CB         7.3730  135.3440   92.4900 C.3   242  ARG242      0.0348
    128  CG         8.8030  135.0010   92.1170 C.3   242  ARG242      0.0492
    129  CD         8.8060  133.7300   91.2460 C.3   242  ARG242      0.2205
    130  NE         9.0100  133.9490   89.8110 N.pl3 242  ARG242     -0.0865
    131  CZ        10.1570  134.3880   89.2790 C.cat 242  ARG242      0.5346
    132  NH1       10.2810  134.5430   87.9660 N.pl3 242  ARG242      0.1354
    133  NH2       11.1970  134.6930   90.0590 N.pl3 242  ARG242      0.1354
    134  N          8.4500  138.5130   93.2560 N.am  243  LYS243     -0.1977
    135  CA         8.6820  139.8550   92.7130 C.3   243  LYS243      0.1596
    136  C          9.4280  139.7640   91.3860 C.2   243  LYS243      0.2287
    137  O         10.4810  139.1250   91.3050 O.2   243  LYS243     -0.2864
    138  CB         9.4280  140.7520   93.7060 C.3   243  LYS243      0.0298
    139  CG         8.8460  140.7710   95.1120 C.3   243  LYS243      0.0038
    140  CD         9.4170  141.8720   96.0260 C.3   243  LYS243      0.0206
    141  CE        10.9470  141.7940   96.2330 C.3   243  LYS243      0.1093
    142  NZ        11.5080  140.4800   96.6530 N.3   243  LYS243     -0.1314
@<TRIPOS>BOND
     1    19    18   ar
     2    23    24    2
     3    23    22    1
     4    22    21    1
     5    22    25    1
     6    18    17    1
     7    18    20   ar
     8    17    16    1
     9    25    26    1
    10    26    27    1
    11    14    13    1
    12    14    15    2
    13    16    13    1
    14    13    12    1
    15    29    28    1
    16    27    28    1
    17     3     4    2
    18     3     2    1
    19     2     5    1
    20     2     1    1
    21     5     6    1
    22    30    31    1
    23     6     7    1
    24     7     8    1
    25    33    32    2
    26    31    32    1
    27    31    34    1
    28    88    89    2
    29    88    87    1
    30    34    35    1
    31   132   131    1
    32    10     9    1
    33    90    87    1
    34    90    91    1
    35    92    91   ar
    36     8     9    2
    37    87    86    1
    38    91    93   ar
    39     9    11    1
    40   131   130    2
    41   131   133    1
    42    35    36    1
    43    81    80    2
    44    86    80   am
    45    37    36    1
    46    37    38    2
    47   130   129    1
    48    40    38    1
    49    80    79    1
    50    38    39    1
    51   110   109    1
    52   110   111    1
    53   108   109    1
    54   108   107    1
    55    83    85    1
    56    83    82    1
    57   106   105    2
    58   129   128    1
    59   137   136    2
    60   136   135    1
    61    84    82    1
    62   104   107    1
    63   104   105    1
    64   104   103    1
    65    79    82    1
    66    79    78    1
    67   126   125    2
    68   128   127    1
    69   103    96   am
    70    78    69   am
    71    74    76   ar
    72    74    72   ar
    73   127   124    1
    74    76    77   ar
    75   135   134    1
    76   135   138    1
    77   125   134   am
    78   125   124    1
    79    96    97    2
    80    96    95    1
    81    71    72    1
    82    71    68    1
    83    72    73   ar
    84    69    68    1
    85    69    70    2
    86   124   123    1
    87    77    75   ar
    88   138   139    1
    89    94    95    1
    90    95    98    1
    91    68    67    1
    92   120   118   ar
    93   120   122   ar
    94   123   114   am
    95   118   117   ar
    96    73    75   ar
    97   122   121   ar
    98   139   140    1
    99    98    99    1
   100    67    58   am
   101   117   116    1
   102   117   119   ar
   103    99   100    1
   104   114   113    1
   105   114   115    2
   106   116   113    1
   107    59    58    2
   108   113   112    1
   109   140   141    1
   110    58    57    1
   111   141   142    1
   112   121   119   ar
   113   100   102   ar
   114   100   101   ar
   115    57    56    1
   116    57    60    1
   117    53    54    1
   118    53    50    1
   119    52    51    2
   120    56    51   am
   121    51    50    1
   122    60    61    1
   123    54    55    1
   124    50    49    1
   125    61    62    1
   126    55    49    1
   127    49    43   am
   128    62    63    1
   129    63    64    2
   130    43    44    2
   131    43    42    1
   132    46    47    1
   133    46    45    1
   134    48    47    1
   135    64    66    1
   136    64    65    1
   137    42    45    1
   138    42    41    1
