@<TRIPOS>MOLECULE
tmp/4pomA00.pdb
 88 82 0 0 0
SMALL
GASTEIGER

@<TRIPOS>ATOM
      1  N         23.2950    7.6240   -4.9010 N.3    10  LYS10      -0.1245
      2  CA        24.2560    8.4570   -4.1950 C.3    10  LYS10       0.1561
      3  C         24.4600    9.7870   -4.9410 C.2    10  LYS10       0.2260
      4  O         24.5780   10.8470   -4.3190 O.2    10  LYS10      -0.2867
      5  CB        25.5870    7.7220   -4.0320 C.3    10  LYS10       0.0271
      6  CG        26.5520    8.4590   -3.1270 C.3    10  LYS10       0.0035
      7  CD        27.9630    8.1050   -3.5210 C.3    10  LYS10       0.0206
      8  CE        28.6220    7.2200   -2.5290 C.3    10  LYS10       0.1093
      9  NZ        29.6350    8.0370   -1.8470 N.3    10  LYS10      -0.1314
     10  N         21.6000   12.0950   -4.3380 N.3    13  PHE13      -0.1227
     11  CA        21.7010   12.5930   -2.9810 C.3    13  PHE13       0.1736
     12  C         22.6520   13.7770   -2.8970 C.2    13  PHE13       0.2595
     13  O         22.3040   14.8150   -2.3330 O.2    13  PHE13      -0.2718
     14  CB        22.1420   11.4650   -2.0440 C.3    13  PHE13       0.0547
     15  CG        22.1210   11.8360   -0.5860 C.ar   13  PHE13      -0.0202
     16  CD1       20.9100   12.0460    0.0740 C.ar   13  PHE13      -0.0042
     17  CD2       23.3010   11.9580    0.1350 C.ar   13  PHE13      -0.0042
     18  CE1       20.8800   12.3980    1.4430 C.ar   13  PHE13      -0.0003
     19  CE2       23.2830   12.2970    1.5210 C.ar   13  PHE13      -0.0003
     20  CZ        22.0490   12.5190    2.1650 C.ar   13  PHE13      -0.0000
     21  N         23.8630   13.6200   -3.4370 N.am   14  GLN14      -0.1979
     22  CA        24.8550   14.6930   -3.3810 C.3    14  GLN14       0.1601
     23  C         24.3330   15.9590   -4.0640 C.2    14  GLN14       0.2287
     24  O         24.5610   17.0760   -3.5890 O.2    14  GLN14      -0.2864
     25  CB        26.1830   14.2650   -4.0330 C.3    14  GLN14       0.0394
     26  CG        26.9050   13.1950   -3.2010 C.3    14  GLN14       0.0908
     27  CD        28.1920   12.6830   -3.8480 C.2    14  GLN14       0.2608
     28  OE1       28.4140   12.8250   -5.0500 O.2    14  GLN14      -0.2717
     29  NE2       29.0300   12.0600   -3.0450 N.am   14  GLN14      -0.0878
     30  N         21.6620   17.7650   -2.0910 N.3    17  LEU17      -0.1245
     31  CA        22.2280   18.5160   -0.9900 C.3    17  LEU17       0.1561
     32  C         22.7500   19.8780   -1.4790 C.2    17  LEU17       0.2260
     33  O         22.6120   20.9000   -0.7820 O.2    17  LEU17      -0.2867
     34  CB        23.3010   17.7170   -0.2510 C.3    17  LEU17       0.0270
     35  CG        22.7770   16.6580    0.7310 C.3    17  LEU17       0.0019
     36  CD1       23.9300   15.8860    1.3150 C.3    17  LEU17       0.0001
     37  CD2       21.9470   17.2920    1.8490 C.3    17  LEU17       0.0001
     38  N         24.1680    5.0690   -0.0020 N.3    67  VAL67      -0.1245
     39  CA        23.8410    6.2280    0.8100 C.3    67  VAL67       0.1561
     40  C         23.6340    5.8070    2.2660 C.2    67  VAL67       0.2260
     41  O         24.1010    6.4860    3.1740 O.2    67  VAL67      -0.2867
     42  CB        22.6290    7.0120    0.2580 C.3    67  VAL67       0.0252
     43  CG1       22.3960    8.2840    1.0860 C.3    67  VAL67       0.0019
     44  CG2       22.8730    7.4040   -1.1940 C.3    67  VAL67       0.0019
     45  N         27.1400    4.9510    3.9330 N.3    70  GLU70      -0.1231
     46  CA        27.9720    6.1550    4.0640 C.3    70  GLU70       0.1699
     47  C         27.4220    7.0830    5.1360 C.2    70  GLU70       0.2592
     48  O         28.1770    7.7360    5.8380 O.2    70  GLU70      -0.2718
     49  CB        28.0290    6.9410    2.7470 C.3    70  GLU70       0.0402
     50  CG        28.5900    6.2070    1.5300 C.3    70  GLU70       0.1161
     51  CD        30.0970    6.3390    1.3560 C.2    70  GLU70       0.3649
     52  OE1       30.6980    7.3250    1.8570 O.co2  70  GLU70      -0.2457
     53  OE2       30.6800    5.4530    0.6870 O.co2  70  GLU70      -0.2457
     54  N         26.0940    7.1640    5.2290 N.am   71  CYS71      -0.1970
     55  CA        25.4530    8.0230    6.2170 C.3    71  CYS71       0.1712
     56  C         25.2970    7.3330    7.5510 C.2    71  CYS71       0.2296
     57  O         24.7650    7.9120    8.4890 O.2    71  CYS71      -0.2864
     58  CB        24.1060    8.5350    5.7130 C.3    71  CYS71       0.0983
     59  SG        24.2300    9.6480    4.2860 S.3    71  CYS71      -0.0798
     60  N         18.3780   12.6560    9.2950 N.3    80  GLN80      -0.1245
     61  CA        19.5570   13.5170    9.3160 C.3    80  GLN80       0.1566
     62  C         19.3070   14.8940    8.7010 C.2    80  GLN80       0.2260
     63  O         18.5580   15.0480    7.7200 O.2    80  GLN80      -0.2867
     64  CB        20.7560   12.8220    8.6730 C.3    80  GLN80       0.0367
     65  CG        21.1310   11.4950    9.3900 C.3    80  GLN80       0.0905
     66  CD        22.2830   10.7760    8.7180 C.2    80  GLN80       0.2608
     67  OE1       22.8070   11.2350    7.6990 O.2    80  GLN80      -0.2717
     68  NE2       22.6680    9.6320    9.2750 N.am   80  GLN80      -0.0878
     69  N         20.8480   18.6610    7.3550 N.3    82  PHE82      -0.1241
     70  CA        22.0390   19.2570    6.6870 C.3    82  PHE82       0.1605
     71  C         21.8400   20.7340    6.3930 C.2    82  PHE82       0.2264
     72  O         20.7130   21.1950    6.1890 O.2    82  PHE82      -0.2867
     73  CB        22.3830   18.5200    5.3840 C.3    82  PHE82       0.0534
     74  CG        22.5940   17.0300    5.5620 C.ar   82  PHE82      -0.0203
     75  CD1       21.5000   16.1680    5.6670 C.ar   82  PHE82      -0.0042
     76  CD2       23.8660   16.4970    5.6420 C.ar   82  PHE82      -0.0042
     77  CE1       21.6750   14.8150    5.8620 C.ar   82  PHE82      -0.0003
     78  CE2       24.0720   15.1120    5.8280 C.ar   82  PHE82      -0.0003
     79  CZ        22.9610   14.2700    5.9320 C.ar   82  PHE82      -0.0000
     80  N         26.1390   17.9280    7.8380 N.3    87  LYS87      -0.1245
     81  CA        25.2250   17.3920    8.8690 C.3    87  LYS87       0.1561
     82  C         25.2510   18.2540   10.1200 C.2    87  LYS87       0.2260
     83  O         26.3130   18.4520   10.7180 O.2    87  LYS87      -0.2867
     84  CB        25.5720   15.9440    9.2330 C.3    87  LYS87       0.0271
     85  CG        24.6140   15.3200   10.2430 C.3    87  LYS87       0.0035
     86  CD        24.7040   13.8050   10.2160 C.3    87  LYS87       0.0206
     87  CE        26.0010   13.2850   10.8220 C.3    87  LYS87       0.1093
     88  NZ        25.9290   11.7890   10.9370 N.3    87  LYS87      -0.1314
@<TRIPOS>BOND
     1    28    27    2
     2     3     4    2
     3     3     2    1
     4     1     2    1
     5    10    11    1
     6     2     5    1
     7    23    24    2
     8    23    22    1
     9    25    22    1
    10    25    26    1
    11     5     6    1
    12    27    26    1
    13    27    29   am
    14     7     6    1
    15     7     8    1
    16    21    22    1
    17    21    12   am
    18    11    12    1
    19    11    14    1
    20    12    13    2
    21     8     9    1
    22    30    31    1
    23    14    15    1
    24    32    31    1
    25    32    33    2
    26    44    42    1
    27    31    34    1
    28    15    16   ar
    29    15    17   ar
    30    34    35    1
    31    38    39    1
    32    16    18   ar
    33    17    19   ar
    34    42    39    1
    35    42    43    1
    36    53    51   ar
    37    35    36    1
    38    35    37    1
    39    39    40    1
    40    51    50    1
    41    51    52   ar
    42    18    20   ar
    43    19    20   ar
    44    50    49    1
    45    40    41    2
    46    49    46    1
    47    45    46    1
    48    46    47    1
    49    59    58    1
    50    47    54   am
    51    47    48    2
    52    54    55    1
    53    73    74    1
    54    73    70    1
    55    74    76   ar
    56    74    75   ar
    57    76    78   ar
    58    75    77   ar
    59    58    55    1
    60    78    79   ar
    61    77    79   ar
    62    72    71    2
    63    55    56    1
    64    71    70    1
    65    70    69    1
    66    56    57    2
    67    67    66    2
    68    63    62    2
    69    80    81    1
    70    64    61    1
    71    64    65    1
    72    62    61    1
    73    66    68   am
    74    66    65    1
    75    81    84    1
    76    81    82    1
    77    84    85    1
    78    60    61    1
    79    82    83    2
    80    86    85    1
    81    86    87    1
    82    87    88    1
