@<TRIPOS>MOLECULE
tmp/4popB06.pdb
 83 77 0 0 0
SMALL
GASTEIGER

@<TRIPOS>ATOM
      1  N         34.8960   10.5710    5.6550 N.3     9  ALA9       -0.1245
      2  CA        35.0950    9.2970    4.9770 C.3     9  ALA9        0.1562
      3  C         36.0020    8.3470    5.7620 C.2     9  ALA9        0.2260
      4  O         35.6580    7.2060    6.0230 O.2     9  ALA9       -0.2867
      5  CB        35.6850    9.5490    3.5380 C.3     9  ALA9        0.0290
      6  N         35.5480    4.7040    7.3780 N.3    13  ALA13      -0.1245
      7  CA        36.3320    3.5700    6.8800 C.3    13  ALA13       0.1562
      8  C         37.0260    2.8760    8.0600 C.2    13  ALA13       0.2260
      9  O         37.2270    1.6550    8.0640 O.2    13  ALA13      -0.2867
     10  CB        37.3480    4.0350    5.8650 C.3    13  ALA13       0.0290
     11  N         34.5560    0.6590   10.2460 N.3    16  PHE16      -0.1227
     12  CA        34.3750   -0.6190    9.5720 C.3    16  PHE16       0.1736
     13  C         35.5840   -1.5160    9.7570 C.2    16  PHE16       0.2595
     14  O         35.4570   -2.6630   10.1650 O.2    16  PHE16      -0.2718
     15  CB        34.1220   -0.4000    8.1020 C.3    16  PHE16       0.0547
     16  CG        34.1970   -1.6620    7.2750 C.ar   16  PHE16      -0.0202
     17  CD1       33.1610   -2.5910    7.3110 C.ar   16  PHE16      -0.0042
     18  CD2       35.2940   -1.9200    6.4690 C.ar   16  PHE16      -0.0042
     19  CE1       33.2210   -3.7670    6.5660 C.ar   16  PHE16      -0.0003
     20  CE2       35.3590   -3.0970    5.7040 C.ar   16  PHE16      -0.0003
     21  CZ        34.3120   -4.0160    5.7550 C.ar   16  PHE16      -0.0000
     22  N         36.7600   -0.9870    9.4460 N.am   17  ILE17      -0.1980
     23  CA        37.9940   -1.7270    9.6490 C.3    17  ILE17       0.1595
     24  C         38.0640   -2.2380   11.0910 C.2    17  ILE17       0.2287
     25  O         38.3390   -3.4130   11.3250 O.2    17  ILE17      -0.2864
     26  CB        39.2110   -0.8560    9.3060 C.3    17  ILE17       0.0276
     27  CG1       39.2990   -0.6800    7.7830 C.3    17  ILE17       0.0022
     28  CG2       40.4950   -1.4870    9.8060 C.3    17  ILE17       0.0022
     29  CD1       40.2270    0.4200    7.3480 C.3    17  ILE17       0.0001
     30  N         26.5270   11.7430    9.2850 N.3    52  VAL52      -0.1245
     31  CA        26.8930   11.3100    7.9520 C.3    52  VAL52       0.1561
     32  C         27.9440   10.2260    8.0680 C.2    52  VAL52       0.2260
     33  O         27.9310    9.2560    7.3050 O.2    52  VAL52      -0.2867
     34  CB        27.4150   12.4970    7.0960 C.3    52  VAL52       0.0252
     35  CG1       28.0210   12.0180    5.7660 C.3    52  VAL52       0.0019
     36  CG2       26.2940   13.4970    6.8610 C.3    52  VAL52       0.0019
     37  N         26.1930    7.0420    8.9500 N.3    55  LEU55      -0.1231
     38  CA        25.5290    6.5490    7.7690 C.3    55  LEU55       0.1693
     39  C         26.5060    5.7840    6.8760 C.2    55  LEU55       0.2591
     40  O         26.2190    4.6680    6.4360 O.2    55  LEU55      -0.2718
     41  CB        24.9020    7.6950    6.9900 C.3    55  LEU55       0.0284
     42  CG        24.1470    7.3250    5.7080 C.3    55  LEU55       0.0019
     43  CD1       22.8160    6.7420    6.1080 C.3    55  LEU55       0.0001
     44  CD2       23.9830    8.5020    4.7720 C.3    55  LEU55       0.0001
     45  N         27.6510    6.3800    6.5960 N.am   56  ILE56      -0.1980
     46  CA        28.5960    5.7310    5.6950 C.3    56  ILE56       0.1595
     47  C         29.0630    4.3920    6.3120 C.2    56  ILE56       0.2287
     48  O         29.1150    3.3820    5.6190 O.2    56  ILE56      -0.2864
     49  CB        29.7900    6.6360    5.3710 C.3    56  ILE56       0.0276
     50  CG1       29.3110    7.8830    4.6100 C.3    56  ILE56       0.0022
     51  CG2       30.7890    5.8930    4.5000 C.3    56  ILE56       0.0022
     52  CD1       30.3750    8.9780    4.4930 C.3    56  ILE56       0.0001
     53  N         26.4400    1.7200    5.9090 N.3    59  ILE59      -0.1231
     54  CA        26.3530    1.2530    4.5330 C.3    59  ILE59       0.1692
     55  C         27.5300    0.3190    4.2320 C.2    59  ILE59       0.2591
     56  O         27.3560   -0.7410    3.6330 O.2    59  ILE59      -0.2718
     57  CB        26.3190    2.4290    3.5420 C.3    59  ILE59       0.0266
     58  CG1       25.0340    3.2330    3.7680 C.3    59  ILE59       0.0019
     59  CG2       26.4030    1.9270    2.0900 C.3    59  ILE59       0.0020
     60  CD1       24.9950    4.5510    3.0370 C.3    59  ILE59       0.0001
     61  N         28.7260    0.7070    4.6560 N.am   60  LEU60      -0.1980
     62  CA        29.9150   -0.0950    4.4050 C.3    60  LEU60       0.1596
     63  C         29.6880   -1.4920    4.9540 C.2    60  LEU60       0.2287
     64  O         29.9910   -2.4690    4.2980 O.2    60  LEU60      -0.2864
     65  CB        31.1160    0.5560    5.0570 C.3    60  LEU60       0.0297
     66  CG        32.3600    0.9630    4.2880 C.3    60  LEU60       0.0022
     67  CD1       32.1140    1.4800    2.8380 C.3    60  LEU60       0.0001
     68  CD2       33.0280    2.0170    5.1470 C.3    60  LEU60       0.0001
     69  N         27.0770   -3.3780    2.5790 N.3    63  ILE63      -0.1231
     70  CA        27.4250   -3.7110    1.1740 C.3    63  ILE63       0.1692
     71  C         28.5720   -4.7070    1.0810 C.2    63  ILE63       0.2592
     72  O         28.7590   -5.3600    0.0490 O.2    63  ILE63      -0.2718
     73  CB        27.7950   -2.4550    0.3400 C.3    63  ILE63       0.0266
     74  CG1       29.0700   -1.7910    0.8740 C.3    63  ILE63       0.0019
     75  CG2       26.6250   -1.4720    0.3180 C.3    63  ILE63       0.0020
     76  CD1       29.5230   -0.5560    0.0890 C.3    63  ILE63       0.0001
     77  N         29.3610   -4.8070    2.1420 N.am   64  THR64      -0.1953
     78  CA        30.4610   -5.7580    2.1920 C.3    64  THR64       0.1897
     79  C         30.0340   -7.0910    2.7780 C.2    64  THR64       0.2313
     80  O         30.8640   -7.9490    3.0540 O.2    64  THR64      -0.2863
     81  CB        31.6220   -5.2280    3.0160 C.3    64  THR64       0.1794
     82  OG1       31.2240   -5.1120    4.3840 O.3    64  THR64      -0.2208
     83  CG2       32.0610   -3.8700    2.5030 C.3    64  THR64       0.0378
@<TRIPOS>BOND
     1    72    71    2
     2    76    74    1
     3    75    73    1
     4    73    74    1
     5    73    70    1
     6    71    70    1
     7    71    77   am
     8    70    69    1
     9    59    57    1
    10    77    78    1
    11    78    79    1
    12    78    81    1
    13    83    81    1
    14    79    80    2
    15    67    66    1
    16    81    82    1
    17    60    58    1
    18     5     2    1
    19    57    58    1
    20    57    54    1
    21    56    55    2
    22    55    54    1
    23    55    61   am
    24    66    65    1
    25    66    68    1
    26    64    63    2
    27    62    61    1
    28    62    63    1
    29    62    65    1
    30    52    50    1
    31    51    49    1
    32    54    53    1
    33    50    49    1
    34    44    42    1
    35     2     1    1
    36     2     3    1
    37    49    46    1
    38    48    47    2
    39    46    47    1
    40    46    45    1
    41    20    21   ar
    42    20    18   ar
    43    42    43    1
    44    42    41    1
    45    21    19   ar
    46     3     4    2
    47    35    34    1
    48    10     7    1
    49    40    39    2
    50    18    16   ar
    51    19    17   ar
    52    45    39   am
    53    36    34    1
    54    39    38    1
    55     7     6    1
    56     7     8    1
    57    41    38    1
    58    34    31    1
    59    16    17   ar
    60    16    15    1
    61    33    32    2
    62    29    27    1
    63    38    37    1
    64    27    26    1
    65    31    32    1
    66    31    30    1
    67     8     9    2
    68    15    12    1
    69    26    23    1
    70    26    28    1
    71    22    23    1
    72    22    13   am
    73    12    13    1
    74    12    11    1
    75    23    24    1
    76    13    14    2
    77    24    25    2
