@<TRIPOS>MOLECULE
tmp/4popA06.pdb
 101 94 0 0 0
SMALL
GASTEIGER

@<TRIPOS>ATOM
      1  N         31.6360   -8.6680   56.8050 N.3    11  PHE11      -0.1227
      2  CA        32.7120   -7.8170   56.3240 C.3    11  PHE11       0.1736
      3  C         32.3400   -7.0540   55.0540 C.2    11  PHE11       0.2595
      4  O         32.8340   -5.9600   54.8230 O.2    11  PHE11      -0.2718
      5  CB        33.9670   -8.6480   56.0710 C.3    11  PHE11       0.0547
      6  CG        35.1500   -7.8360   55.6130 C.ar   11  PHE11      -0.0202
      7  CD1       35.7110   -6.8790   56.4360 C.ar   11  PHE11      -0.0042
      8  CD2       35.7140   -8.0490   54.3720 C.ar   11  PHE11      -0.0042
      9  CE1       36.8000   -6.1440   56.0160 C.ar   11  PHE11      -0.0003
     10  CE2       36.8020   -7.3120   53.9460 C.ar   11  PHE11      -0.0003
     11  CZ        37.3490   -6.3690   54.7710 C.ar   11  PHE11      -0.0000
     12  N         31.4920   -7.6320   54.2190 N.am   12  MET12      -0.1979
     13  CA        31.2190   -7.0160   52.9360 C.3    12  MET12       0.1605
     14  C         30.1660   -5.9580   53.1520 C.2    12  MET12       0.2287
     15  O         30.1350   -4.9860   52.4180 O.2    12  MET12      -0.2864
     16  CB        30.7560   -8.0350   51.8780 C.3    12  MET12       0.0413
     17  CG        31.8550   -8.9480   51.3690 C.3    12  MET12       0.0598
     18  SD        33.1390   -8.2370   50.3840 S.3    12  MET12      -0.1393
     19  CE        34.5270   -8.1980   51.4900 C.3    12  MET12       0.0692
     20  N         32.1430   -3.1110   54.4400 N.3    15  LEU15      -0.1245
     21  CA        32.9100   -2.5660   53.3160 C.3    15  LEU15       0.1561
     22  C         32.0320   -1.6690   52.4490 C.2    15  LEU15       0.2260
     23  O         32.4330   -0.5900   52.0850 O.2    15  LEU15      -0.2867
     24  CB        33.5110   -3.6860   52.4660 C.3    15  LEU15       0.0270
     25  CG        34.5290   -3.3010   51.3760 C.3    15  LEU15       0.0019
     26  CD1       35.6630   -2.4110   51.9200 C.3    15  LEU15       0.0001
     27  CD2       35.1200   -4.5480   50.7300 C.3    15  LEU15       0.0001
     28  N         32.6030    2.2000   51.8720 N.3    19  ILE19      -0.1245
     29  CA        32.7940    2.7570   50.5450 C.3    19  ILE19       0.1561
     30  C         31.7240    3.8100   50.2750 C.2    19  ILE19       0.2260
     31  O         32.0120    4.8280   49.6650 O.2    19  ILE19      -0.2867
     32  CB        32.8080    1.6530   49.4510 C.3    19  ILE19       0.0252
     33  CG1       34.1570    0.9260   49.5190 C.3    19  ILE19       0.0019
     34  CG2       32.6740    2.2480   48.0520 C.3    19  ILE19       0.0019
     35  CD1       34.2310   -0.3320   48.6660 C.3    19  ILE19       0.0001
     36  N         32.6400    7.6190   50.3940 N.3    22  ILE22      -0.1245
     37  CA        33.3410    8.3520   49.3600 C.3    22  ILE22       0.1561
     38  C         32.3400    9.1890   48.5650 C.2    22  ILE22       0.2260
     39  O         31.2920    8.6770   48.1800 O.2    22  ILE22      -0.2867
     40  CB        34.0920    7.4000   48.4220 C.3    22  ILE22       0.0252
     41  CG1       35.1300    6.6230   49.2340 C.3    22  ILE22       0.0019
     42  CG2       34.7460    8.1780   47.2850 C.3    22  ILE22       0.0019
     43  CD1       35.9870    5.6880   48.4450 C.3    22  ILE22       0.0001
     44  N         29.2990    3.0380   43.9090 N.3    34  ILE34      -0.1245
     45  CA        30.3440    2.0330   43.9460 C.3    34  ILE34       0.1561
     46  C         30.2240    1.1370   45.1680 C.2    34  ILE34       0.2260
     47  O         30.9060    0.1020   45.2500 O.2    34  ILE34      -0.2867
     48  CB        31.7710    2.6710   43.9210 C.3    34  ILE34       0.0252
     49  CG1       31.8840    3.7710   44.9600 C.3    34  ILE34       0.0019
     50  CG2       32.1210    3.1650   42.5130 C.3    34  ILE34       0.0019
     51  CD1       33.2920    4.3040   45.1400 C.3    34  ILE34       0.0001
     52  N         29.2320   -2.6020   45.1900 N.3    37  ILE37      -0.1231
     53  CA        30.1510   -3.5980   44.6290 C.3    37  ILE37       0.1678
     54  C         30.4560   -4.7220   45.6290 C.2    37  ILE37       0.2434
     55  O         30.3610   -5.8760   45.2570 O.2    37  ILE37      -0.2733
     56  CB        31.4590   -2.9330   44.1110 C.3    37  ILE37       0.0265
     57  CG1       31.1300   -2.0350   42.9000 C.3    37  ILE37       0.0019
     58  CG2       32.5040   -3.9730   43.6690 C.3    37  ILE37       0.0020
     59  CD1       32.2350   -1.0410   42.5230 C.3    37  ILE37       0.0001
     60  N         30.7700   -4.3980   46.9000 N.am   38  PRO38      -0.2729
     61  CA        31.0000   -5.5100   47.8330 C.3    38  PRO38       0.1401
     62  C         29.7640   -6.3990   48.0070 C.2    38  PRO38       0.2269
     63  O         29.8830   -7.5890   48.2210 O.2    38  PRO38      -0.2865
     64  CB        31.3570   -4.7980   49.1400 C.3    38  PRO38       0.0296
     65  CG        31.9110   -3.4550   48.7010 C.3    38  PRO38       0.0237
     66  CD        31.1340   -3.0910   47.4840 C.3    38  PRO38       0.0939
     67  N         29.6740   -8.6590   44.9100 N.3    41  LEU41      -0.1245
     68  CA        30.6700   -9.6880   44.9770 C.3    41  LEU41       0.1561
     69  C         30.2080  -10.7710   45.9730 C.2    41  LEU41       0.2260
     70  O         30.3190  -11.9520   45.6750 O.2    41  LEU41      -0.2867
     71  CB        32.0380   -9.1340   45.3690 C.3    41  LEU41       0.0270
     72  CG        33.1300  -10.2260   45.3400 C.3    41  LEU41       0.0019
     73  CD1       33.3260  -10.8770   43.9090 C.3    41  LEU41       0.0001
     74  CD2       34.4650   -9.6760   45.8610 C.3    41  LEU41       0.0001
     75  N         35.2030   -2.7220   37.7620 N.3   160  ILE160     -0.1245
     76  CA        35.8460   -3.3600   38.8850 C.3   160  ILE160      0.1561
     77  C         35.7220   -4.9130   38.8800 C.2   160  ILE160      0.2260
     78  O         36.6920   -5.6000   39.1300 O.2   160  ILE160     -0.2867
     79  CB        35.2890   -2.8040   40.2040 C.3   160  ILE160      0.0252
     80  CG1       35.4960   -1.2980   40.2420 C.3   160  ILE160      0.0019
     81  CG2       35.9650   -3.4590   41.3990 C.3   160  ILE160      0.0019
     82  CD1       36.9440   -0.8210   40.4000 C.3   160  ILE160      0.0001
     83  N         38.5630   -7.8960   38.5300 N.3   164  PHE164     -0.1241
     84  CA        38.6190   -9.0020   39.4790 C.3   164  PHE164      0.1605
     85  C         38.5530  -10.3860   38.7630 C.2   164  PHE164      0.2264
     86  O         39.3260  -11.2810   39.1110 O.2   164  PHE164     -0.2867
     87  CB        37.4980   -8.8790   40.5020 C.3   164  PHE164      0.0534
     88  CG        37.7240   -7.7890   41.5290 C.ar  164  PHE164     -0.0203
     89  CD1       38.7920   -6.8960   41.4080 C.ar  164  PHE164     -0.0042
     90  CD2       36.8710   -7.6530   42.6190 C.ar  164  PHE164     -0.0042
     91  CE1       39.0080   -5.9020   42.3560 C.ar  164  PHE164     -0.0003
     92  CE2       37.0760   -6.6480   43.5590 C.ar  164  PHE164     -0.0003
     93  CZ        38.1480   -5.7730   43.4270 C.ar  164  PHE164     -0.0000
     94  N         37.9470  -15.1450   43.7770 N.3   171  LEU171     -0.1245
     95  CA        37.0660  -14.3640   44.6440 C.3   171  LEU171      0.1561
     96  C         35.6120  -14.7890   44.4340 C.2   171  LEU171      0.2260
     97  O         34.7830  -14.6570   45.3180 O.2   171  LEU171     -0.2867
     98  CB        37.1740  -12.8640   44.3580 C.3   171  LEU171      0.0270
     99  CG        38.2680  -11.9630   44.9290 C.3   171  LEU171      0.0019
    100  CD1       38.1090  -10.5420   44.3250 C.3   171  LEU171      0.0001
    101  CD2       38.1930  -11.9220   46.4410 C.3   171  LEU171      0.0001
@<TRIPOS>BOND
     1    75    76    1
     2    83    84    1
     3    85    86    2
     4    85    84    1
     5    77    76    1
     6    77    78    2
     7    76    79    1
     8    84    87    1
     9    79    80    1
    10    79    81    1
    11    80    82    1
    12    87    88    1
    13    89    88   ar
    14    89    91   ar
    15    88    90   ar
    16    91    93   ar
    17    50    48    1
    18    59    57    1
    19    90    92   ar
    20    57    56    1
    21    93    92   ar
    22    58    56    1
    23    94    95    1
    24    73    72    1
    25    44    45    1
    26    48    45    1
    27    48    49    1
    28    45    46    1
    29    56    53    1
    30   100    99    1
    31    98    95    1
    32    98    99    1
    33    96    95    1
    34    96    97    2
    35    53    52    1
    36    53    54    1
    37    67    68    1
    38    99   101    1
    39    49    51    1
    40    68    71    1
    41    68    69    1
    42    46    47    2
    43    55    54    2
    44    72    71    1
    45    72    74    1
    46    54    60   am
    47    70    69    2
    48    60    66    1
    49    60    61    1
    50    42    40    1
    51    66    65    1
    52    61    62    1
    53    61    64    1
    54    62    63    2
    55    34    32    1
    56    39    38    2
    57    40    41    1
    58    40    37    1
    59    43    41    1
    60    38    37    1
    61    35    33    1
    62    65    64    1
    63    37    36    1
    64    32    33    1
    65    32    29    1
    66    31    30    2
    67    30    29    1
    68    18    17    1
    69    18    19    1
    70    29    28    1
    71    27    25    1
    72    17    16    1
    73    25    26    1
    74    25    24    1
    75    16    13    1
    76    23    22    2
    77    15    14    2
    78    22    21    1
    79    24    21    1
    80    13    14    1
    81    13    12    1
    82    21    20    1
    83    10     8   ar
    84    10    11   ar
    85    12     3   am
    86     8     6   ar
    87    11     9   ar
    88     4     3    2
    89     3     2    1
    90     6     5    1
    91     6     7   ar
    92     9     7   ar
    93     5     2    1
    94     2     1    1
