@<TRIPOS>MOLECULE
tmp/4potJ01.pdb
 104 99 0 0 0
SMALL
GASTEIGER

@<TRIPOS>ATOM
      1  N         25.4430  -18.3310   29.4470 N.3    32  GLU32      -0.1231
      2  CA        24.4260  -17.3050   29.2710 C.3    32  GLU32       0.1699
      3  C         24.5640  -16.6070   27.9120 C.2    32  GLU32       0.2592
      4  O         23.5570  -16.2850   27.2670 O.2    32  GLU32      -0.2718
      5  CB        24.4880  -16.2850   30.4110 C.3    32  GLU32       0.0402
      6  CG        23.5070  -15.1390   30.2400 C.3    32  GLU32       0.1161
      7  CD        23.2560  -14.3710   31.5210 C.2    32  GLU32       0.3649
      8  OE1       22.5360  -14.8880   32.4000 O.co2  32  GLU32      -0.2457
      9  OE2       23.7670  -13.2380   31.6370 O.co2  32  GLU32      -0.2457
     10  N         25.8090  -16.3840   27.4920 N.am   33  LEU33      -0.1980
     11  CA        26.0740  -15.7240   26.2240 C.3    33  LEU33       0.1596
     12  C         26.6160  -16.6740   25.1660 C.2    33  LEU33       0.2287
     13  O         27.4540  -16.2850   24.3470 O.2    33  LEU33      -0.2864
     14  CB        26.9980  -14.5190   26.4080 C.3    33  LEU33       0.0297
     15  CG        26.4410  -13.3760   27.2510 C.3    33  LEU33       0.0022
     16  CD1       27.4200  -12.2140   27.1700 C.3    33  LEU33       0.0001
     17  CD2       25.0520  -12.9630   26.7840 C.3    33  LEU33       0.0001
     18  N         28.0850  -16.0480   21.5940 N.3    36  TYR36      -0.1241
     19  CA        28.8300  -14.7880   21.6510 C.3    36  TYR36       0.1605
     20  C         30.1850  -14.9870   22.3160 C.2    36  TYR36       0.2264
     21  O         30.4030  -15.9830   23.0330 O.2    36  TYR36      -0.2867
     22  CB        28.0760  -13.7580   22.4810 C.3    36  TYR36       0.0534
     23  CG        26.7180  -13.3340   21.9860 C.ar   36  TYR36      -0.0201
     24  CD1       26.5650  -12.1440   21.2950 C.ar   36  TYR36      -0.0009
     25  CD2       25.5770  -14.0900   22.2660 C.ar   36  TYR36      -0.0009
     26  CE1       25.3210  -11.7200   20.8720 C.ar   36  TYR36       0.0417
     27  CE2       24.3220  -13.6780   21.8460 C.ar   36  TYR36       0.0417
     28  CZ        24.2020  -12.4900   21.1440 C.ar   36  TYR36       0.1957
     29  OH        22.9720  -12.0550   20.7080 O.3    36  TYR36      -0.2866
     30  N         33.0140  -10.1160   27.0360 N.3    39  ASP39      -0.1239
     31  CA        33.4140   -8.7160   26.8500 C.3    39  ASP39       0.1674
     32  C         34.8670   -8.6800   26.3950 C.2    39  ASP39       0.2266
     33  O         35.7410   -9.2430   27.0600 O.2    39  ASP39      -0.2867
     34  CB        33.2380   -7.9190   28.1520 C.3    39  ASP39       0.1410
     35  CG        31.7730   -7.6930   28.5240 C.2    39  ASP39       0.3668
     36  OD1       30.8690   -8.0520   27.7440 O.co2  39  ASP39      -0.2456
     37  OD2       31.5160   -7.1260   29.6100 O.co2  39  ASP39      -0.2456
     38  N         16.8810   -5.6260   21.6530 N.3   101  GLN101     -0.1231
     39  CA        17.8610   -6.2690   22.5310 C.3   101  GLN101      0.1698
     40  C         18.6500   -5.1990   23.3060 C.2   101  GLN101      0.2593
     41  O         19.0300   -4.1620   22.7400 O.2   101  GLN101     -0.2718
     42  CB        18.8080   -7.1560   21.7150 C.3   101  GLN101      0.0381
     43  CG        19.8400   -7.9000   22.5610 C.3   101  GLN101      0.0905
     44  CD        20.8450   -8.6900   21.7340 C.2   101  GLN101      0.2608
     45  OE1       20.9590   -8.5110   20.5160 O.2   101  GLN101     -0.2717
     46  NE2       21.5800   -9.5780   22.3960 N.am  101  GLN101     -0.0878
     47  N         18.8820   -5.4490   24.5960 N.am  102  GLY102     -0.1942
     48  CA        19.6240   -4.5220   25.4610 C.3   102  GLY102      0.2014
     49  C         20.9530   -4.1280   24.8470 C.2   102  GLY102      0.2639
     50  O         21.6440   -4.9730   24.2780 O.2   102  GLY102     -0.2714
     51  N         21.3000   -2.8430   24.9260 N.am  103  GLY103     -0.1954
     52  CA        22.5210   -2.3540   24.3000 C.3   103  GLY103      0.1869
     53  C         22.6340   -0.8490   24.2180 C.2   103  GLY103      0.2309
     54  O         22.0930   -0.1160   25.0710 O.2   103  GLY103     -0.2863
     55  N         28.2610   -7.1740   18.8880 N.3   242  HIS242     -0.1241
     56  CA        27.2000   -6.5340   19.6240 C.3   242  HIS242      0.1621
     57  C         27.7750   -5.6080   20.6630 C.2   242  HIS242      0.2264
     58  O         28.6180   -6.0120   21.4680 O.2   242  HIS242     -0.2867
     59  CB        26.2580   -7.5450   20.2650 C.3   242  HIS242      0.0745
     60  CG        25.1350   -6.8860   21.0240 C.ar  242  HIS242      0.0817
     61  ND1       25.1780   -6.6960   22.3580 N.ar  242  HIS242     -0.2268
     62  CD2       23.9580   -6.2830   20.5730 C.ar  242  HIS242      0.1154
     63  CE1       24.0660   -6.0370   22.7460 C.ar  242  HIS242      0.1986
     64  NE2       23.3230   -5.7840   21.6480 N.ar  242  HIS242     -0.2212
     65  N         27.3200   -3.3690   24.0170 N.3   244  ASN244     -0.1225
     66  CA        26.4970   -3.3240   25.2190 C.3   244  ASN244      0.1785
     67  C         26.2760   -1.9060   25.7800 C.2   244  ASN244      0.2597
     68  O         26.8790   -0.9410   25.3070 O.2   244  ASN244     -0.2718
     69  CB        27.0940   -4.2600   26.2710 C.3   244  ASN244      0.1169
     70  CG        27.1360   -5.7060   25.8000 C.2   244  ASN244      0.2627
     71  OD1       26.1780   -6.2010   25.2070 O.2   244  ASN244     -0.2716
     72  ND2       28.2450   -6.3910   26.0650 N.am  244  ASN244     -0.0877
     73  N         25.4170   -1.7760   26.7910 N.am  245  TYR245     -0.1962
     74  CA        25.0670   -0.4540   27.2900 C.3   245  TYR245      0.1771
     75  C         26.2740    0.3450   27.7870 C.2   245  TYR245      0.2620
     76  O         26.3530    1.5560   27.5450 O.2   245  TYR245     -0.2715
     77  CB        24.0050   -0.5230   28.3860 C.3   245  TYR245      0.0574
     78  CG        23.5680    0.8460   28.8460 C.ar  245  TYR245     -0.0198
     79  CD1       22.8120    1.6780   28.0130 C.ar  245  TYR245     -0.0009
     80  CD2       23.9300    1.3250   30.1030 C.ar  245  TYR245     -0.0009
     81  CE1       22.4130    2.9400   28.4320 C.ar  245  TYR245      0.0417
     82  CE2       23.5380    2.5840   30.5310 C.ar  245  TYR245      0.0417
     83  CZ        22.7840    3.3840   29.6920 C.ar  245  TYR245      0.1957
     84  OH        22.3890    4.6270   30.1310 O.3   245  TYR245     -0.2866
     85  N         27.1970   -0.3330   28.4740 N.am  246  SER246     -0.1950
     86  CA        28.4250    0.2910   28.9770 C.3   246  SER246      0.1924
     87  C         29.4760    0.4670   27.8790 C.2   246  SER246      0.2314
     88  O         30.5710    0.9710   28.1480 O.2   246  SER246     -0.2863
     89  CB        29.0300   -0.5580   30.1010 C.3   246  SER246      0.2116
     90  OG        29.3140   -1.8790   29.6320 O.3   246  SER246     -0.2180
     91  N         30.8700   -2.1160   26.3710 N.3   248  SER248     -0.1217
     92  CA        31.5860   -3.3740   26.2270 C.3   248  SER248      0.1889
     93  C         31.0670   -4.0750   24.9640 C.2   248  SER248      0.2288
     94  O         29.9590   -3.7820   24.4960 O.2   248  SER248     -0.2866
     95  CB        31.4180   -4.2610   27.4650 C.3   248  SER248      0.2089
     96  OG        30.0560   -4.5720   27.6910 O.3   248  SER248     -0.2183
     97  N         30.8340   -7.7720   22.4400 N.3   250  ASN250     -0.1240
     98  CA        30.8940   -9.2180   22.2530 C.3   250  ASN250      0.1653
     99  C         30.7710   -9.5520   20.7730 C.2   250  ASN250      0.2266
    100  O         29.8700   -9.0390   20.0900 O.2   250  ASN250     -0.2867
    101  CB        29.7460   -9.9280   22.9790 C.3   250  ASN250      0.1155
    102  CG        29.5600   -9.4560   24.4060 C.2   250  ASN250      0.2627
    103  OD1       28.4720   -9.0320   24.7860 O.2   250  ASN250     -0.2716
    104  ND2       30.6190   -9.5260   25.2020 N.am  250  ASN250     -0.0877
@<TRIPOS>BOND
     1    55    56    1
     2    56    59    1
     3    56    57    1
     4   100    99    2
     5    59    60    1
     6    45    44    2
     7    62    60   ar
     8    62    64   ar
     9    57    58    2
    10    29    28    1
    11    99    98    1
    12    26    28   ar
    13    26    24   ar
    14    60    61   ar
    15    28    27   ar
    16    24    23   ar
    17    18    19    1
    18    64    63   ar
    19    19    20    1
    20    19    22    1
    21    38    39    1
    22    42    39    1
    23    42    43    1
    24    44    46   am
    25    44    43    1
    26    27    25   ar
    27    23    25   ar
    28    23    22    1
    29    98    97    1
    30    98   101    1
    31    20    21    2
    32    61    63   ar
    33    39    40    1
    34    41    40    2
    35   101   102    1
    36    40    47   am
    37    65    66    1
    38    53    52    1
    39    53    54    2
    40    50    49    2
    41    52    51    1
    42    13    12    2
    43   102   103    2
    44   102   104   am
    45    94    93    2
    46    47    48    1
    47    49    51   am
    48    49    48    1
    49    93    92    1
    50    12    11    1
    51    71    70    2
    52    66    67    1
    53    66    69    1
    54    68    67    2
    55    67    73   am
    56    70    72   am
    57    70    69    1
    58    11    14    1
    59    11    10    1
    60    92    91    1
    61    92    95    1
    62    32    31    1
    63    32    33    2
    64    14    15    1
    65    17    15    1
    66    73    74    1
    67    31    30    1
    68    31    34    1
    69    16    15    1
    70     4     3    2
    71    74    75    1
    72    74    77    1
    73    95    96    1
    74    10     3   am
    75    76    75    2
    76    36    35   ar
    77    75    85   am
    78    87    88    2
    79    87    86    1
    80     3     2    1
    81    79    81   ar
    82    79    78   ar
    83    34    35    1
    84    77    78    1
    85    81    83   ar
    86    85    86    1
    87    35    37   ar
    88    78    80   ar
    89    86    89    1
    90     2     1    1
    91     2     5    1
    92    90    89    1
    93    83    84    1
    94    83    82   ar
    95    80    82   ar
    96     6     5    1
    97     6     7    1
    98     7     9   ar
    99     7     8   ar
