@<TRIPOS>MOLECULE
tmp/4povA05.pdb
 99 94 0 0 0
SMALL
GASTEIGER

@<TRIPOS>ATOM
      1  N         23.6150   -3.7440   36.1030 N.3   111  PHE111     -0.1241
      2  CA        22.6760   -2.9470   35.3130 C.3   111  PHE111      0.1605
      3  C         21.2740   -3.0890   35.8650 C.2   111  PHE111      0.2264
      4  O         20.6120   -2.0910   36.1510 O.2   111  PHE111     -0.2867
      5  CB        22.7030   -3.3700   33.8190 C.3   111  PHE111      0.0534
      6  CG        21.7880   -2.5540   32.9400 C.ar  111  PHE111     -0.0203
      7  CD1       22.2360   -1.3460   32.3710 C.ar  111  PHE111     -0.0042
      8  CD2       20.4680   -2.9850   32.6820 C.ar  111  PHE111     -0.0042
      9  CE1       21.4080   -0.5810   31.5620 C.ar  111  PHE111     -0.0003
     10  CE2       19.6160   -2.2310   31.8730 C.ar  111  PHE111     -0.0003
     11  CZ        20.0980   -1.0020   31.3040 C.ar  111  PHE111     -0.0000
     12  N         21.0610   -1.4770   39.5970 N.3   114  VAL114     -0.1231
     13  CA        21.0940   -0.0180   39.6150 C.3   114  VAL114      0.1692
     14  C         19.7760    0.5130   38.9920 C.2   114  VAL114      0.2591
     15  O         19.1650    1.4360   39.5020 O.2   114  VAL114     -0.2718
     16  CB        22.3080    0.5100   38.8690 C.3   114  VAL114      0.0266
     17  CG1       22.1950    2.1030   38.5600 C.3   114  VAL114      0.0020
     18  CG2       23.5880    0.1510   39.6110 C.3   114  VAL114      0.0020
     19  N         19.3390   -0.1130   37.9110 N.am  115  LEU115     -0.1980
     20  CA        18.0910    0.2540   37.2740 C.3   115  LEU115      0.1596
     21  C         16.9510    0.1810   38.2630 C.2   115  LEU115      0.2287
     22  O         16.1010    1.1060   38.3190 O.2   115  LEU115     -0.2864
     23  CB        17.7980   -0.6340   36.0650 C.3   115  LEU115      0.0297
     24  CG        16.3690   -0.4850   35.5140 C.3   115  LEU115      0.0022
     25  CD1       16.1490    0.9440   34.9960 C.3   115  LEU115      0.0001
     26  CD2       16.0760   -1.5010   34.4280 C.3   115  LEU115      0.0001
     27  N         17.1080    2.8790   40.8870 N.3   118  TYR118     -0.1241
     28  CA        16.8330    4.2780   40.5010 C.3   118  TYR118      0.1605
     29  C         15.4200    4.3480   39.9440 C.2   118  TYR118      0.2264
     30  O         14.8070    5.4080   39.8890 O.2   118  TYR118     -0.2867
     31  CB        17.9160    4.8310   39.5870 C.3   118  TYR118      0.0534
     32  CG        18.9560    5.4690   40.4830 C.ar  118  TYR118     -0.0201
     33  CD1       19.9580    4.6970   41.0730 C.ar  118  TYR118     -0.0009
     34  CD2       18.8600    6.8330   40.8550 C.ar  118  TYR118     -0.0009
     35  CE1       20.8830    5.2760   41.9820 C.ar  118  TYR118      0.0417
     36  CE2       19.7590    7.4090   41.7500 C.ar  118  TYR118      0.0417
     37  CZ        20.7780    6.6240   42.3110 C.ar  118  TYR118      0.1957
     38  OH        21.6760    7.1770   43.2030 O.3   118  TYR118     -0.2866
     39  N          9.0910   22.1610   33.5870 N.3   137  TRP137     -0.1241
     40  CA         9.0700   20.6850   33.5780 C.3   137  TRP137      0.1605
     41  C          7.9100   20.0750   34.3570 C.2   137  TRP137      0.2264
     42  O          7.6550   20.4510   35.4910 O.2   137  TRP137     -0.2867
     43  CB        10.3830   20.1420   34.1570 C.3   137  TRP137      0.0550
     44  CG        11.5490   20.3590   33.2470 C.ar  137  TRP137      0.0003
     45  CD1       12.0690   21.5630   32.8360 C.ar  137  TRP137      0.0946
     46  CD2       12.3380   19.3460   32.6220 C.ar  137  TRP137      0.0152
     47  NE1       13.1330   21.3500   31.9880 N.ar  137  TRP137     -0.2442
     48  CE2       13.3150   20.0000   31.8320 C.ar  137  TRP137      0.0810
     49  CE3       12.3030   17.9490   32.6330 C.ar  137  TRP137      0.0012
     50  CZ2       14.2600   19.2990   31.0830 C.ar  137  TRP137      0.0191
     51  CZ3       13.2400   17.2550   31.8980 C.ar  137  TRP137      0.0001
     52  CH2       14.1980   17.9300   31.1190 C.ar  137  TRP137      0.0015
     53  N          8.6970   14.0650   34.1050 N.3   141  ALA141     -0.1245
     54  CA         9.8310   14.3550   33.2180 C.3   141  ALA141      0.1562
     55  C         11.0210   14.7900   34.0460 C.2   141  ALA141      0.2260
     56  O         12.1510   14.3560   33.7940 O.2   141  ALA141     -0.2867
     57  CB         9.4560   15.4430   32.1620 C.3   141  ALA141      0.0290
     58  N         12.3280   11.6470   35.8860 N.3   144  LEU144     -0.1231
     59  CA        12.9940   10.8130   34.8610 C.3   144  LEU144      0.1693
     60  C         14.3810   11.3120   34.5080 C.2   144  LEU144      0.2591
     61  O         15.3400   10.5450   34.4390 O.2   144  LEU144     -0.2718
     62  CB        12.1560   10.7370   33.5930 C.3   144  LEU144      0.0284
     63  CG        12.7460    9.8560   32.4770 C.3   144  LEU144      0.0019
     64  CD1       12.9900    8.4420   32.9770 C.3   144  LEU144      0.0001
     65  CD2       11.8190    9.8280   31.2610 C.3   144  LEU144      0.0001
     66  N         14.4890   12.6100   34.2740 N.am  145  ALA145     -0.1980
     67  CA        15.7690   13.2020   33.9610 C.3   145  ALA145      0.1597
     68  C         16.7210   13.0430   35.1140 C.2   145  ALA145      0.2287
     69  O         17.8320   12.5970   34.9320 O.2   145  ALA145     -0.2864
     70  CB        15.6130   14.7470   33.5990 C.3   145  ALA145      0.0319
     71  N         16.9240    9.2000   36.0090 N.3   148  GLY148     -0.1210
     72  CA        17.4100    8.4790   34.8260 C.3   148  GLY148      0.1956
     73  C         18.8980    8.7680   34.7000 C.2   148  GLY148      0.2611
     74  O         19.7170    7.8510   34.5690 O.2   148  GLY148     -0.2717
     75  N         19.2760   10.0400   34.8080 N.am  149  ILE149     -0.1979
     76  CA        20.6840   10.3780   34.6060 C.3   149  ILE149      0.1595
     77  C         21.5570    9.9050   35.7820 C.2   149  ILE149      0.2287
     78  O         22.6430    9.3970   35.5670 O.2   149  ILE149     -0.2864
     79  CB        20.9010   11.8760   34.3680 C.3   149  ILE149      0.0276
     80  CG1       20.2650   12.2970   33.0510 C.3   149  ILE149      0.0022
     81  CG2       22.3940   12.2070   34.3070 C.3   149  ILE149      0.0022
     82  CD1       20.3180   13.8270   32.8040 C.3   149  ILE149      0.0001
     83  N         20.9340    7.2880   37.6230 N.3   151  GLY151     -0.1210
     84  CA        21.0090    5.8400   37.4180 C.3   151  GLY151      0.1956
     85  C         22.0940    5.4650   36.4110 C.2   151  GLY151      0.2611
     86  O         22.9690    4.6170   36.6870 O.2   151  GLY151     -0.2717
     87  N         22.0950    6.1700   35.2700 N.am  152  ILE152     -0.1979
     88  CA        23.0690    5.9010   34.2330 C.3   152  ILE152      0.1595
     89  C         24.4750    6.1640   34.7290 C.2   152  ILE152      0.2287
     90  O         25.3470    5.3140   34.5200 O.2   152  ILE152     -0.2864
     91  CB        22.7790    6.6830   32.9460 C.3   152  ILE152      0.0276
     92  CG1       21.4820    6.1610   32.3170 C.3   152  ILE152      0.0022
     93  CG2       23.8880    6.4980   31.9340 C.3   152  ILE152      0.0022
     94  CD1       20.9540    7.0400   31.1550 C.3   152  ILE152      0.0001
     95  N         25.6580    3.5700   37.1520 N.3   155  ALA155     -0.1245
     96  CA        26.0050    2.3270   36.4540 C.3   155  ALA155      0.1562
     97  C         27.3330    2.4380   35.7190 C.2   155  ALA155      0.2260
     98  O         28.0870    1.4670   35.6390 O.2   155  ALA155     -0.2867
     99  CB        24.9070    1.9330   35.4990 C.3   155  ALA155      0.0290
@<TRIPOS>BOND
     1    50    52   ar
     2    50    48   ar
     3    52    51   ar
     4    94    92    1
     5    65    63    1
     6    11     9   ar
     7    11    10   ar
     8     9     7   ar
     9    48    47   ar
    10    48    46   ar
    11    10     8   ar
    12    51    49   ar
    13    93    91    1
    14    47    45   ar
    15    57    54    1
    16    92    91    1
    17     7     6   ar
    18    63    64    1
    19    63    62    1
    20    46    49   ar
    21    46    44   ar
    22     8     6   ar
    23    82    80    1
    24    45    44   ar
    25     6     5    1
    26    91    88    1
    27    80    79    1
    28    54    55    1
    29    54    53    1
    30    44    43    1
    31    40    39    1
    32    40    43    1
    33    40    41    1
    34    62    59    1
    35    70    67    1
    36    56    55    2
    37     5     2    1
    38    67    66    1
    39    67    68    1
    40    88    89    1
    41    88    87    1
    42    66    60   am
    43    81    79    1
    44    41    42    2
    45    79    76    1
    46    26    24    1
    47    61    60    2
    48    60    59    1
    49    90    89    2
    50    74    73    2
    51    76    75    1
    52    76    77    1
    53    73    75   am
    54    73    72    1
    55    72    71    1
    56    59    58    1
    57    69    68    2
    58    25    24    1
    59    87    85   am
    60     2     3    1
    61     2     1    1
    62    99    96    1
    63    24    23    1
    64    78    77    2
    65    98    97    2
    66    97    96    1
    67     3     4    2
    68    23    20    1
    69    85    86    2
    70    85    84    1
    71    96    95    1
    72    20    19    1
    73    20    21    1
    74    84    83    1
    75    19    14   am
    76    21    22    2
    77    17    16    1
    78    16    18    1
    79    16    13    1
    80    14    15    2
    81    14    13    1
    82    31    32    1
    83    31    28    1
    84    12    13    1
    85    30    29    2
    86    29    28    1
    87    32    34   ar
    88    32    33   ar
    89    28    27    1
    90    34    36   ar
    91    33    35   ar
    92    36    37   ar
    93    35    37   ar
    94    37    38    1
