@<TRIPOS>MOLECULE
tmp/4povA18.pdb
 92 92 0 0 0
SMALL
GASTEIGER

@<TRIPOS>ATOM
      1  N         29.6260    6.4440   50.9870 N.3    21  SER21      -0.1202
      2  CA        28.5260    7.4090   50.8290 C.3    21  SER21       0.2020
      3  C         28.8730    8.8000   51.3930 C.2    21  SER21       0.2619
      4  O         28.1380    9.7500   51.1700 O.2    21  SER21      -0.2717
      5  CB        27.2370    6.9050   51.5010 C.3    21  SER21       0.2103
      6  OG        27.2070    7.1480   52.9150 O.3    21  SER21      -0.2182
      7  N         29.9930    8.9130   52.1060 N.am   22  LEU22      -0.1965
      8  CA        30.4240   10.1970   52.6920 C.3    22  LEU22       0.1728
      9  C         31.2430   11.0270   51.6920 C.2    22  LEU22       0.2616
     10  O         31.3940   12.2470   51.8360 O.2    22  LEU22      -0.2715
     11  CB        31.2380    9.9500   53.9730 C.3    22  LEU22       0.0311
     12  CG        30.5300    9.1780   55.1070 C.3    22  LEU22       0.0022
     13  CD1       31.4840    8.8900   56.2550 C.3    22  LEU22       0.0001
     14  CD2       29.3150    9.9460   55.6060 C.3    22  LEU22       0.0001
     15  N         31.7590   10.3600   50.6670 N.am   23  ILE23      -0.1964
     16  CA        32.4520   11.0320   49.5780 C.3    23  ILE23       0.1712
     17  C         31.4600   11.9000   48.7730 C.2    23  ILE23       0.2458
     18  O         30.4310   11.4100   48.3630 O.2    23  ILE23      -0.2730
     19  CB        33.1350   10.0030   48.6570 C.3    23  ILE23       0.0289
     20  CG1       34.1490    9.1900   49.4710 C.3    23  ILE23       0.0022
     21  CG2       33.7880   10.6940   47.4760 C.3    23  ILE23       0.0023
     22  CD1       35.0070    8.2380   48.6780 C.3    23  ILE23       0.0001
     23  N         31.7350   13.2150   48.6150 N.am   24  PRO24      -0.2716
     24  CA        30.8500   14.0570   47.7860 C.3    24  PRO24       0.1536
     25  C         30.6490   13.4930   46.3930 C.2    24  PRO24       0.2599
     26  O         31.6570   13.1950   45.7690 O.2    24  PRO24      -0.2715
     27  CB        31.5980   15.3900   47.7230 C.3    24  PRO24       0.0310
     28  CG        32.3280   15.4620   49.0220 C.3    24  PRO24       0.0237
     29  CD        32.7550   14.0250   49.3130 C.3    24  PRO24       0.0939
     30  N         29.4020   13.3870   45.9150 N.am   25  ASN25      -0.1959
     31  CA        29.0910   12.6640   44.6810 C.3    25  ASN25       0.1819
     32  C         28.0370   13.3840   43.8290 C.2    25  ASN25       0.2621
     33  O         27.3870   12.7940   42.9440 O.2    25  ASN25      -0.2715
     34  CB        28.6130   11.2410   45.0310 C.3    25  ASN25       0.1195
     35  CG        27.2780   11.2340   45.7160 C.2    25  ASN25       0.2630
     36  OD1       26.8100   12.2680   46.2080 O.2    25  ASN25      -0.2716
     37  ND2       26.6250   10.0750   45.7290 N.am   25  ASN25      -0.0877
     38  N         27.8630   14.6640   44.1190 N.am   26  THR26      -0.1951
     39  CA        26.8930   15.4890   43.4260 C.3    26  THR26       0.1897
     40  C         27.4500   15.9910   42.0930 C.2    26  THR26       0.2313
     41  O         28.5390   16.5730   42.0310 O.2    26  THR26      -0.2863
     42  CB        26.4680   16.6860   44.3220 C.3    26  THR26       0.1794
     43  OG1       25.6500   16.1900   45.3920 O.3    26  THR26      -0.2208
     44  CG2       25.7030   17.7600   43.5220 C.3    26  THR26       0.0378
     45  N         22.7500   19.3520   41.3980 N.3    29  GLY29      -0.1210
     46  CA        21.5860   19.0980   42.2450 C.3    29  GLY29       0.1956
     47  C         21.4950   17.6370   42.7050 C.2    29  GLY29       0.2611
     48  O         22.4600   17.0990   43.2660 O.2    29  GLY29      -0.2717
     49  N         20.3480   16.9940   42.4710 N.am   30  TRP30      -0.1976
     50  CA        20.1430   15.5900   42.9050 C.3    30  TRP30       0.1640
     51  C         20.6040   14.5950   41.8260 C.2    30  TRP30       0.2290
     52  O         20.3660   13.4030   41.9450 O.2    30  TRP30      -0.2864
     53  CB        18.6740   15.3460   43.2730 C.3    30  TRP30       0.0576
     54  CG        18.4280   15.4330   44.7510 C.ar   30  TRP30       0.0006
     55  CD1       17.7460   16.4200   45.4280 C.ar   30  TRP30       0.0946
     56  CD2       18.8830   14.5060   45.7420 C.ar   30  TRP30       0.0152
     57  NE1       17.7550   16.1510   46.7780 N.ar   30  TRP30      -0.2442
     58  CE2       18.4390   14.9790   46.9940 C.ar   30  TRP30       0.0810
     59  CE3       19.6100   13.2980   45.6870 C.ar   30  TRP30       0.0012
     60  CZ2       18.7080   14.3010   48.1820 C.ar   30  TRP30       0.0191
     61  CZ3       19.8670   12.6260   46.8650 C.ar   30  TRP30       0.0001
     62  CH2       19.4290   13.1340   48.0970 C.ar   30  TRP30       0.0015
     63  N         23.4620   12.5740   40.7830 N.3    32  ILE32      -0.1245
     64  CA        24.5830   12.0970   41.5900 C.3    32  ILE32       0.1561
     65  C         25.1770   10.8620   40.9320 C.2    32  ILE32       0.2260
     66  O         24.5100   10.1980   40.0960 O.2    32  ILE32      -0.2867
     67  CB        24.1480   11.7570   43.0400 C.3    32  ILE32       0.0252
     68  CG1       23.0790   10.6580   43.0450 C.3    32  ILE32       0.0019
     69  CG2       23.6380   13.0230   43.7910 C.3    32  ILE32       0.0019
     70  CD1       22.8400   10.1250   44.4300 C.3    32  ILE32       0.0001
     71  N         22.6370   11.0000   57.6760 N.3    68  HIS68      -0.1241
     72  CA        23.0970   11.3340   56.2990 C.3    68  HIS68       0.1621
     73  C         22.0660   11.1170   55.1980 C.2    68  HIS68       0.2264
     74  O         22.3110   11.4010   54.0370 O.2    68  HIS68      -0.2867
     75  CB        24.3810   10.5680   55.9840 C.3    68  HIS68       0.0745
     76  CG        25.5680   11.0880   56.7530 C.ar   68  HIS68       0.0817
     77  ND1       26.3510   12.1310   56.3050 N.ar   68  HIS68      -0.2268
     78  CD2       26.0600   10.7460   57.9680 C.ar   68  HIS68       0.1154
     79  CE1       27.2940   12.3870   57.1970 C.ar   68  HIS68       0.1986
     80  NE2       27.1390   11.5610   58.2150 N.ar   68  HIS68      -0.2212
     81  N         18.3890   12.0130   53.4320 N.3    70  TYR70      -0.1241
     82  CA        17.5000   13.1510   53.2080 C.3    70  TYR70       0.1605
     83  C         16.0920   12.5960   53.3100 C.2    70  TYR70       0.2264
     84  O         15.6290   11.8430   52.4370 O.2    70  TYR70      -0.2867
     85  CB        17.7890   13.8120   51.8520 C.3    70  TYR70       0.0534
     86  CG        19.1700   14.4200   51.8060 C.ar   70  TYR70      -0.0201
     87  CD1       20.2720   13.6730   51.4180 C.ar   70  TYR70      -0.0009
     88  CD2       19.3820   15.7450   52.1790 C.ar   70  TYR70      -0.0009
     89  CE1       21.5600   14.2510   51.3970 C.ar   70  TYR70       0.0417
     90  CE2       20.6520   16.3160   52.1620 C.ar   70  TYR70       0.0417
     91  CZ        21.7340   15.5640   51.7770 C.ar   70  TYR70       0.1957
     92  OH        22.9930   16.1270   51.7480 O.3    70  TYR70      -0.2866
@<TRIPOS>BOND
     1    66    65    2
     2    63    64    1
     3    65    64    1
     4    45    46    1
     5    64    67    1
     6    51    52    2
     7    51    50    1
     8    41    40    2
     9    40    39    1
    10    46    47    1
    11    49    47   am
    12    49    50    1
    13    47    48    2
    14    50    53    1
    15    33    32    2
    16    67    68    1
    17    67    69    1
    18    68    70    1
    19    53    54    1
    20    39    38    1
    21    39    42    1
    22    44    42    1
    23    32    38   am
    24    32    31    1
    25    42    43    1
    26    31    34    1
    27    31    30    1
    28    54    55   ar
    29    54    56   ar
    30    34    35    1
    31    55    57   ar
    32    59    56   ar
    33    59    61   ar
    34    35    37   am
    35    35    36    2
    36    56    58   ar
    37    26    25    2
    38    30    25   am
    39    25    24    1
    40    57    58   ar
    41    61    62   ar
    42    58    60   ar
    43    21    19    1
    44    27    24    1
    45    27    28    1
    46    24    23    1
    47    62    60   ar
    48    18    17    2
    49    23    17   am
    50    23    29    1
    51    19    20    1
    52    19    16    1
    53    22    20    1
    54    17    16    1
    55    28    29    1
    56    16    15    1
    57    15     9   am
    58     2     1    1
    59     2     3    1
    60     2     5    1
    61     4     3    2
    62     3     7   am
    63    89    87   ar
    64    89    91   ar
    65    87    86   ar
    66     5     6    1
    67     9    10    2
    68     9     8    1
    69    92    91    1
    70    91    90   ar
    71    86    85    1
    72    86    88   ar
    73    85    82    1
    74     7     8    1
    75    90    88   ar
    76    84    83    2
    77     8    11    1
    78    82    83    1
    79    82    81    1
    80    11    12    1
    81    74    73    2
    82    12    14    1
    83    12    13    1
    84    73    72    1
    85    75    72    1
    86    75    76    1
    87    72    71    1
    88    77    76   ar
    89    77    79   ar
    90    76    78   ar
    91    79    80   ar
    92    78    80   ar
