@<TRIPOS>MOLECULE
tmp/4povB03.pdb
 72 68 0 0 0
SMALL
GASTEIGER

@<TRIPOS>ATOM
      1  N         37.3270   -3.7340   14.1400 N.3    21  ILE21      -0.1231
      2  CA        37.9580   -4.3250   15.3100 C.3    21  ILE21       0.1678
      3  C         36.9230   -5.1100   16.1430 C.2    21  ILE21       0.2434
      4  O         35.8070   -4.6580   16.2710 O.2    21  ILE21      -0.2733
      5  CB        38.6220   -3.2400   16.1690 C.3    21  ILE21       0.0265
      6  CG1       39.7440   -2.5560   15.3720 C.3    21  ILE21       0.0019
      7  CG2       39.2020   -3.8320   17.4340 C.3    21  ILE21       0.0020
      8  CD1       40.1820   -1.1940   15.9260 C.3    21  ILE21       0.0001
      9  N         37.2800   -6.3240   16.6480 N.am   22  PRO22      -0.2718
     10  CA        36.4060   -7.1300   17.5220 C.3    22  PRO22       0.1535
     11  C         35.9940   -6.3510   18.7560 C.2    22  PRO22       0.2599
     12  O         36.8920   -5.9180   19.4620 O.2    22  PRO22      -0.2715
     13  CB        37.2940   -8.3280   17.9170 C.3    22  PRO22       0.0310
     14  CG        38.2400   -8.4820   16.7910 C.3    22  PRO22       0.0237
     15  CD        38.4690   -7.0880   16.2100 C.3    22  PRO22       0.0939
     16  N         34.6960   -6.2040   19.0220 N.am   23  ASN23      -0.1959
     17  CA        34.2310   -5.3450   20.1010 C.3    23  ASN23       0.1819
     18  C         33.0700   -5.9600   20.9020 C.2    23  ASN23       0.2622
     19  O         32.3570   -5.2660   21.6220 O.2    23  ASN23      -0.2715
     20  CB        33.8230   -4.0200   19.5010 C.3    23  ASN23       0.1195
     21  CG        32.5950   -4.1490   18.6500 C.2    23  ASN23       0.2630
     22  OD1       32.2150   -5.2610   18.2350 O.2    23  ASN23      -0.2716
     23  ND2       31.9400   -3.0370   18.4110 N.am   23  ASN23      -0.0877
     24  N         32.9190   -7.2750   20.7680 N.am   24  THR24      -0.1937
     25  CA        31.8440   -8.0530   21.3820 C.3    24  THR24       0.2028
     26  C         32.1970   -8.5450   22.7950 C.2    24  THR24       0.2642
     27  O         33.1490   -9.3140   22.9590 O.2    24  THR24      -0.2714
     28  CB        31.5300   -9.3060   20.5090 C.3    24  THR24       0.1808
     29  OG1       31.0530   -8.8940   19.2220 O.3    24  THR24      -0.2208
     30  CG2       30.4970  -10.2250   21.1820 C.3    24  THR24       0.0379
     31  N         31.4220   -8.1470   23.7990 N.am   25  VAL25      -0.1977
     32  CA        31.4970   -8.7860   25.1140 C.3    25  VAL25       0.1596
     33  C         30.7290  -10.1120   25.0820 C.2    25  VAL25       0.2287
     34  O         31.2910  -11.1630   25.3770 O.2    25  VAL25      -0.2864
     35  CB        30.9430   -7.8730   26.2300 C.3    25  VAL25       0.0276
     36  CG1       30.9050   -8.6070   27.5780 C.3    25  VAL25       0.0022
     37  CG2       31.7780   -6.6200   26.3250 C.3    25  VAL25       0.0022
     38  N         31.1170   -2.9460   22.6000 N.3    31  VAL31      -0.1245
     39  CA        31.7330   -1.6660   22.9650 C.3    31  VAL31       0.1561
     40  C         31.9570   -0.9170   21.6490 C.2    31  VAL31       0.2260
     41  O         32.9320   -1.2000   20.9320 O.2    31  VAL31      -0.2867
     42  CB        33.0490   -1.8860   23.7150 C.3    31  VAL31       0.0252
     43  CG1       33.5910   -0.5530   24.2410 C.3    31  VAL31       0.0019
     44  CG2       32.8600   -2.9620   24.8740 C.3    31  VAL31       0.0019
     45  N         33.3280    1.5080   19.9610 N.3    33  ILE33      -0.1245
     46  CA        34.3880    2.4820   19.8770 C.3    33  ILE33       0.1561
     47  C         34.3930    3.2090   18.5320 C.2    33  ILE33       0.2260
     48  O         35.0000    4.2750   18.3940 O.2    33  ILE33      -0.2867
     49  CB        35.7540    1.8170   20.1070 C.3    33  ILE33       0.0252
     50  CG1       35.9560    0.6130   19.1800 C.3    33  ILE33       0.0019
     51  CG2       35.8840    1.4110   21.5570 C.3    33  ILE33       0.0019
     52  CD1       37.3990    0.0180   19.2420 C.3    33  ILE33       0.0001
     53  N         33.9940    3.7790   26.9540 N.3   155  ALA155     -0.1245
     54  CA        35.1330    3.7680   26.0350 C.3   155  ALA155      0.1562
     55  C         35.3540    5.1890   25.4340 C.2   155  ALA155      0.2260
     56  O         36.4860    5.6430   25.3570 O.2   155  ALA155     -0.2867
     57  CB        34.9550    2.7270   24.9180 C.3   155  ALA155      0.0290
     58  N         36.8270    7.5560   28.1240 N.3   158  VAL158     -0.1231
     59  CA        38.2400    7.3330   28.3850 C.3   158  VAL158      0.1692
     60  C         39.1010    7.9080   27.2730 C.2   158  VAL158      0.2591
     61  O         40.0830    8.5990   27.5370 O.2   158  VAL158     -0.2718
     62  CB        38.5500    5.8340   28.5440 C.3   158  VAL158      0.0266
     63  CG1       40.0850    5.5920   28.5680 C.3   158  VAL158      0.0020
     64  CG2       37.9170    5.3230   29.7940 C.3   158  VAL158      0.0020
     65  N         38.7570    7.6030   26.0290 N.am  159  ILE159     -0.1980
     66  CA        39.5290    8.1280   24.9080 C.3   159  ILE159      0.1595
     67  C         39.4830    9.6670   24.7820 C.2   159  ILE159      0.2287
     68  O         40.5210   10.3240   24.6320 O.2   159  ILE159     -0.2864
     69  CB        39.0450    7.5300   23.5910 C.3   159  ILE159      0.0276
     70  CG1       39.1500    5.9920   23.6400 C.3   159  ILE159      0.0022
     71  CG2       39.8550    8.1080   22.4070 C.3   159  ILE159      0.0022
     72  CD1       40.5500    5.4810   23.7340 C.3   159  ILE159      0.0001
@<TRIPOS>BOND
     1     1     2    1
     2     2     3    1
     3     2     5    1
     4     6     8    1
     5     6     5    1
     6     3     4    2
     7     3     9   am
     8     5     7    1
     9    15     9    1
    10    15    14    1
    11     9    10    1
    12    14    13    1
    13    10    13    1
    14    10    11    1
    15    22    21    2
    16    48    47    2
    17    23    21   am
    18    47    46    1
    19    21    20    1
    20    11    16   am
    21    11    12    2
    22    16    17    1
    23    50    52    1
    24    50    49    1
    25    29    28    1
    26    20    17    1
    27    46    45    1
    28    46    49    1
    29    17    18    1
    30    49    51    1
    31    28    30    1
    32    28    25    1
    33    24    18   am
    34    24    25    1
    35    18    19    2
    36    41    40    2
    37    25    26    1
    38    40    39    1
    39    71    69    1
    40    38    39    1
    41    26    27    2
    42    26    31   am
    43    39    42    1
    44    69    70    1
    45    69    66    1
    46    70    72    1
    47    42    43    1
    48    42    44    1
    49    31    32    1
    50    68    67    2
    51    67    66    1
    52    66    65    1
    53    57    54    1
    54    33    32    1
    55    33    34    2
    56    32    35    1
    57    56    55    2
    58    55    54    1
    59    65    60   am
    60    54    53    1
    61    35    37    1
    62    35    36    1
    63    60    61    2
    64    60    59    1
    65    58    59    1
    66    59    62    1
    67    62    63    1
    68    62    64    1
