@<TRIPOS>MOLECULE
tmp/4povA07.pdb
 96 91 0 0 0
SMALL
GASTEIGER

@<TRIPOS>ATOM
      1  N         31.0620  -21.0620   58.3670 N.3     2  PHE2       -0.1227
      2  CA        30.6410  -20.5020   57.0940 C.3     2  PHE2        0.1736
      3  C         29.7770  -19.2620   57.3440 C.2     2  PHE2        0.2595
      4  O         29.8760  -18.2650   56.6280 O.2     2  PHE2       -0.2718
      5  CB        29.8590  -21.5280   56.2650 C.3     2  PHE2        0.0547
      6  CG        29.3520  -20.9890   54.9430 C.ar    2  PHE2       -0.0202
      7  CD1       28.2630  -20.1230   54.8900 C.ar    2  PHE2       -0.0042
      8  CD2       29.9640  -21.3480   53.7530 C.ar    2  PHE2       -0.0042
      9  CE1       27.8110  -19.6310   53.6890 C.ar    2  PHE2       -0.0003
     10  CE2       29.5040  -20.8630   52.5460 C.ar    2  PHE2       -0.0003
     11  CZ        28.4280  -20.0060   52.5170 C.ar    2  PHE2       -0.0000
     12  N         28.9180  -19.3490   58.3540 N.am    3  ASN3       -0.1974
     13  CA        27.9550  -18.3000   58.6330 C.3     3  ASN3        0.1688
     14  C         28.5970  -17.0790   59.2740 C.2     3  ASN3        0.2292
     15  O         28.1900  -15.9440   58.9950 O.2     3  ASN3       -0.2864
     16  CB        26.8420  -18.8370   59.5300 C.3     3  ASN3        0.1181
     17  CG        25.7890  -19.5920   58.7550 C.2     3  ASN3        0.2629
     18  OD1       25.7760  -20.8240   58.7540 O.2     3  ASN3       -0.2716
     19  ND2       24.8980  -18.8580   58.0830 N.am    3  ASN3       -0.0877
     20  N         30.1790  -15.3520   56.4900 N.3     6  LEU6       -0.1231
     21  CA        29.1620  -14.6980   55.6630 C.3     6  LEU6        0.1693
     22  C         28.6060  -13.4360   56.3220 C.2     6  LEU6        0.2591
     23  O         28.4260  -12.4130   55.6740 O.2     6  LEU6       -0.2718
     24  CB        28.0130  -15.6720   55.3540 C.3     6  LEU6        0.0284
     25  CG        26.8050  -15.0830   54.6190 C.3     6  LEU6        0.0019
     26  CD1       27.2030  -14.5050   53.2240 C.3     6  LEU6        0.0001
     27  CD2       25.7200  -16.1450   54.5110 C.3     6  LEU6        0.0001
     28  N         28.3260  -13.5180   57.6180 N.am    7  LEU7       -0.1980
     29  CA        27.8090  -12.3750   58.3370 C.3     7  LEU7        0.1596
     30  C         28.8430  -11.2660   58.4000 C.2     7  LEU7        0.2287
     31  O         28.4770  -10.0820   58.3110 O.2     7  LEU7       -0.2864
     32  CB        27.3670  -12.7810   59.7470 C.3     7  LEU7        0.0297
     33  CG        25.9710  -13.4080   59.8940 C.3     7  LEU7        0.0022
     34  CD1       25.4610  -14.1040   58.6340 C.3     7  LEU7        0.0001
     35  CD2       25.9810  -14.3970   61.0550 C.3     7  LEU7        0.0001
     36  N         28.8250   -9.4760   54.9340 N.3    10  ILE10      -0.1245
     37  CA        27.6580   -8.6170   54.8620 C.3    10  ILE10       0.1561
     38  C         27.9330   -7.3220   55.6390 C.2    10  ILE10       0.2260
     39  O         27.8290   -6.2210   55.0890 O.2    10  ILE10      -0.2867
     40  CB        26.4170   -9.3450   55.4030 C.3    10  ILE10       0.0252
     41  CG1       26.0990  -10.5310   54.4860 C.3    10  ILE10       0.0019
     42  CG2       25.2100   -8.3950   55.5310 C.3    10  ILE10       0.0019
     43  CD1       24.9750  -11.4100   54.9680 C.3    10  ILE10       0.0001
     44  N         27.8450  -13.4380   46.9430 N.3    47  ARG47      -0.1231
     45  CA        27.1690  -14.2140   47.9900 C.3    47  ARG47       0.1694
     46  C         25.6920  -14.4440   47.7230 C.2    47  ARG47       0.2593
     47  O         25.0340  -15.2070   48.4260 O.2    47  ARG47      -0.2718
     48  CB        27.3320  -13.5210   49.3490 C.3    47  ARG47       0.0321
     49  CG        28.7370  -13.5340   49.8480 C.3    47  ARG47       0.0489
     50  CD        29.2590  -14.9690   49.9130 C.3    47  ARG47       0.2205
     51  NE        30.3390  -15.0480   50.8720 N.pl3  47  ARG47      -0.0865
     52  CZ        30.4550  -15.9660   51.8200 C.cat  47  ARG47       0.5346
     53  NH1       29.5710  -16.9560   51.9490 N.pl3  47  ARG47       0.1354
     54  NH2       31.4840  -15.8910   52.6370 N.pl3  47  ARG47       0.1354
     55  N         25.1740  -13.7840   46.7030 N.am   48  GLY48      -0.1942
     56  CA        23.8180  -14.0280   46.2640 C.3    48  GLY48       0.2014
     57  C         22.7580  -13.1070   46.8550 C.2    48  GLY48       0.2639
     58  O         23.0350  -12.2100   47.6480 O.2    48  GLY48      -0.2714
     59  N         21.5230  -13.3820   46.4590 N.am   49  LEU49      -0.1963
     60  CA        20.4050  -12.4890   46.6600 C.3    49  LEU49       0.1728
     61  C         20.2020  -12.0660   48.1250 C.2    49  LEU49       0.2617
     62  O         20.1730  -10.8750   48.4480 O.2    49  LEU49      -0.2715
     63  CB        19.1260  -13.1690   46.1320 C.3    49  LEU49       0.0311
     64  CG        17.8240  -12.4040   46.4180 C.3    49  LEU49       0.0022
     65  CD1       17.7780  -11.0770   45.5870 C.3    49  LEU49       0.0001
     66  CD2       16.6280  -13.2610   46.1430 C.3    49  LEU49       0.0001
     67  N         20.0300  -13.0450   48.9930 N.am   50  THR50      -0.1937
     68  CA        19.6710  -12.7890   50.3920 C.3    50  THR50       0.2028
     69  C         20.7440  -11.9660   51.0940 C.2    50  THR50       0.2642
     70  O         20.4240  -10.9880   51.7710 O.2    50  THR50      -0.2714
     71  CB        19.4480  -14.1290   51.1360 C.3    50  THR50       0.1808
     72  OG1       18.3640  -14.8170   50.5050 O.3    50  THR50      -0.2208
     73  CG2       19.1250  -13.8970   52.6140 C.3    50  THR50       0.0379
     74  N         22.0080  -12.3480   50.9040 N.am   51  ALA51      -0.1977
     75  CA        23.1260  -11.6110   51.4650 C.3    51  ALA51       0.1597
     76  C         23.0570  -10.1200   51.0600 C.2    51  ALA51       0.2287
     77  O         23.1630   -9.2480   51.9090 O.2    51  ALA51      -0.2864
     78  CB        24.4260  -12.2080   51.0180 C.3    51  ALA51       0.0319
     79  N         20.1870   -8.0020   52.5340 N.3    54  VAL54      -0.1245
     80  CA        20.4720   -7.7050   53.9300 C.3    54  VAL54       0.1561
     81  C         21.5700   -6.6470   54.0370 C.2    54  VAL54       0.2260
     82  O         21.5290   -5.8050   54.9150 O.2    54  VAL54      -0.2867
     83  CB        20.9070   -8.9960   54.7460 C.3    54  VAL54       0.0252
     84  CG1       21.2900   -8.6130   56.1690 C.3    54  VAL54       0.0019
     85  CG2       19.7800  -10.0490   54.7960 C.3    54  VAL54       0.0019
     86  N         24.8380  -14.1970   40.2940 N.3    95  ARG95      -0.1245
     87  CA        26.0410  -14.7760   40.8920 C.3    95  ARG95       0.1563
     88  C         26.5720  -15.9320   40.0640 C.2    95  ARG95       0.2260
     89  O         25.8070  -16.8030   39.6310 O.2    95  ARG95      -0.2867
     90  CB        25.7990  -15.3090   42.3230 C.3    95  ARG95       0.0307
     91  CG        26.8960  -16.3330   42.6680 C.3    95  ARG95       0.0489
     92  CD        27.0930  -16.6220   44.1080 C.3    95  ARG95       0.2205
     93  NE        25.8710  -17.0140   44.7330 N.pl3  95  ARG95      -0.0865
     94  CZ        25.7970  -17.5830   45.9300 C.cat  95  ARG95       0.5346
     95  NH1       26.9120  -17.8420   46.6280 N.pl3  95  ARG95       0.1354
     96  NH2       24.5950  -17.8870   46.4120 N.pl3  95  ARG95       0.1354
@<TRIPOS>BOND
     1    89    88    2
     2    88    87    1
     3    86    87    1
     4    87    90    1
     5    90    91    1
     6    91    92    1
     7    92    93    1
     8    93    94    2
     9    65    64    1
    10    94    96    1
    11    94    95    1
    12    63    64    1
    13    63    60    1
    14    66    64    1
    15    56    55    1
    16    56    57    1
    17    59    60    1
    18    59    57   am
    19    60    61    1
    20    55    46   am
    21    57    58    2
    22    44    45    1
    23    46    45    1
    24    46    47    2
    25    45    48    1
    26    61    62    2
    27    61    67   am
    28    67    68    1
    29    48    49    1
    30    49    50    1
    31    50    51    1
    32    68    69    1
    33    68    71    1
    34    72    71    1
    35    51    52    2
    36    74    69   am
    37    74    75    1
    38    78    75    1
    39    76    75    1
    40    76    77    2
    41    69    70    2
    42    71    73    1
    43    52    53    1
    44    52    54    1
    45    11    10   ar
    46    11     9   ar
    47    79    80    1
    48    10     8   ar
    49    26    25    1
    50     9     7   ar
    51     8     6   ar
    52    80    81    1
    53    80    83    1
    54    81    82    2
    55    41    43    1
    56    41    40    1
    57    27    25    1
    58    25    24    1
    59    83    85    1
    60    83    84    1
    61    37    36    1
    62    37    40    1
    63    37    38    1
    64     7     6   ar
    65     6     5    1
    66    39    38    2
    67    24    21    1
    68    40    42    1
    69    21    22    1
    70    21    20    1
    71    23    22    2
    72     5     2    1
    73    22    28   am
    74     4     3    2
    75     2     3    1
    76     2     1    1
    77     3    12   am
    78    28    29    1
    79    19    17   am
    80    31    30    2
    81    29    30    1
    82    29    32    1
    83    12    13    1
    84    13    14    1
    85    13    16    1
    86    34    33    1
    87    18    17    2
    88    17    16    1
    89    15    14    2
    90    32    33    1
    91    33    35    1
