@<TRIPOS>MOLECULE
tmp/4povA12.pdb
 167 164 0 0 0
SMALL
GASTEIGER

@<TRIPOS>ATOM
      1  N         20.3480   16.9940   42.4710 N.3    30  TRP30      -0.1241
      2  CA        20.1430   15.5900   42.9050 C.3    30  TRP30       0.1605
      3  C         20.6040   14.5950   41.8260 C.2    30  TRP30       0.2264
      4  O         20.3660   13.4030   41.9450 O.2    30  TRP30      -0.2867
      5  CB        18.6740   15.3460   43.2730 C.3    30  TRP30       0.0550
      6  CG        18.4280   15.4330   44.7510 C.ar   30  TRP30       0.0003
      7  CD1       17.7460   16.4200   45.4280 C.ar   30  TRP30       0.0946
      8  CD2       18.8830   14.5060   45.7420 C.ar   30  TRP30       0.0152
      9  NE1       17.7550   16.1510   46.7780 N.ar   30  TRP30      -0.2442
     10  CE2       18.4390   14.9790   46.9940 C.ar   30  TRP30       0.0810
     11  CE3       19.6100   13.2980   45.6870 C.ar   30  TRP30       0.0012
     12  CZ2       18.7080   14.3010   48.1820 C.ar   30  TRP30       0.0191
     13  CZ3       19.8670   12.6260   46.8650 C.ar   30  TRP30       0.0001
     14  CH2       19.4290   13.1340   48.0970 C.ar   30  TRP30       0.0015
     15  N         23.4620   12.5740   40.7830 N.3    32  ILE32      -0.1245
     16  CA        24.5830   12.0970   41.5900 C.3    32  ILE32       0.1561
     17  C         25.1770   10.8620   40.9320 C.2    32  ILE32       0.2260
     18  O         24.5100   10.1980   40.0960 O.2    32  ILE32      -0.2867
     19  CB        24.1480   11.7570   43.0400 C.3    32  ILE32       0.0252
     20  CG1       23.0790   10.6580   43.0450 C.3    32  ILE32       0.0019
     21  CG2       23.6380   13.0230   43.7910 C.3    32  ILE32       0.0019
     22  CD1       22.8400   10.1250   44.4300 C.3    32  ILE32       0.0001
     23  N         26.2670    7.4540   42.4010 N.3    34  GLU34      -0.1245
     24  CA        26.2500    6.7500   43.7020 C.3    34  GLU34       0.1567
     25  C         27.2340    5.5730   43.8130 C.2    34  GLU34       0.2260
     26  O         26.8130    4.4240   43.8700 O.2    34  GLU34      -0.2867
     27  CB        24.8380    6.2710   44.0440 C.3    34  GLU34       0.0388
     28  CG        24.6800    5.8930   45.5460 C.3    34  GLU34       0.1160
     29  CD        23.2230    5.6450   45.9550 C.2    34  GLU34       0.3649
     30  OE1       22.4190    5.2520   45.0820 O.co2  34  GLU34      -0.2457
     31  OE2       22.8810    5.8480   47.1390 O.co2  34  GLU34      -0.2457
     32  N         18.3890   12.0130   53.4320 N.3    70  TYR70      -0.1241
     33  CA        17.5000   13.1510   53.2080 C.3    70  TYR70       0.1605
     34  C         16.0920   12.5960   53.3100 C.2    70  TYR70       0.2264
     35  O         15.6290   11.8430   52.4370 O.2    70  TYR70      -0.2867
     36  CB        17.7890   13.8120   51.8520 C.3    70  TYR70       0.0534
     37  CG        19.1700   14.4200   51.8060 C.ar   70  TYR70      -0.0201
     38  CD1       20.2720   13.6730   51.4180 C.ar   70  TYR70      -0.0009
     39  CD2       19.3820   15.7450   52.1790 C.ar   70  TYR70      -0.0009
     40  CE1       21.5600   14.2510   51.3970 C.ar   70  TYR70       0.0417
     41  CE2       20.6520   16.3160   52.1620 C.ar   70  TYR70       0.0417
     42  CZ        21.7340   15.5640   51.7770 C.ar   70  TYR70       0.1957
     43  OH        22.9930   16.1270   51.7480 O.3    70  TYR70      -0.2866
     44  N          8.4930    8.1160   52.4950 N.3    76  GLN76      -0.1245
     45  CA         9.5440    8.4530   51.5280 C.3    76  GLN76       0.1566
     46  C         10.8740    7.8580   51.9750 C.2    76  GLN76       0.2260
     47  O         11.6730    7.4300   51.1460 O.2    76  GLN76      -0.2867
     48  CB         9.6720    9.9760   51.3350 C.3    76  GLN76       0.0367
     49  CG        10.9300   10.4280   50.5660 C.3    76  GLN76       0.0905
     50  CD        12.1360   10.6210   51.4690 C.2    76  GLN76       0.2608
     51  OE1       11.9860   10.8210   52.6740 O.2    76  GLN76      -0.2717
     52  NE2       13.3460   10.5410   50.8890 N.am   76  GLN76      -0.0878
     53  N         13.0510    5.2100   49.9240 N.3    80  GLU80      -0.1231
     54  CA        14.3570    5.5820   49.3220 C.3    80  GLU80       0.1699
     55  C         15.5840    5.1220   50.1050 C.2    80  GLU80       0.2592
     56  O         16.6900    5.0870   49.5580 O.2    80  GLU80      -0.2718
     57  CB        14.4510    7.1020   49.1120 C.3    80  GLU80       0.0402
     58  CG        13.3390    7.6850   48.2360 C.3    80  GLU80       0.1161
     59  CD        13.7870    8.9720   47.5450 C.2    80  GLU80       0.3649
     60  OE1       14.5060    8.8550   46.5320 O.co2  80  GLU80      -0.2457
     61  OE2       13.4580   10.0890   48.0180 O.co2  80  GLU80      -0.2457
     62  N         15.3860    4.8060   51.3840 N.am   81  TYR81      -0.1976
     63  CA        16.4710    4.3940   52.2620 C.3    81  TYR81       0.1639
     64  C         16.2930    3.0000   52.8710 C.2    81  TYR81       0.2290
     65  O         17.1950    2.5160   53.5640 O.2    81  TYR81      -0.2864
     66  CB        16.6400    5.4340   53.3780 C.3    81  TYR81       0.0560
     67  CG        17.2580    6.6960   52.8530 C.ar   81  TYR81      -0.0198
     68  CD1       18.6310    6.7720   52.6120 C.ar   81  TYR81      -0.0009
     69  CD2       16.4720    7.8180   52.5790 C.ar   81  TYR81      -0.0009
     70  CE1       19.1990    7.9250   52.1140 C.ar   81  TYR81       0.0417
     71  CE2       17.0290    8.9710   52.0800 C.ar   81  TYR81       0.0417
     72  CZ        18.3880    9.0300   51.8530 C.ar   81  TYR81       0.1957
     73  OH        18.9360   10.2020   51.3770 O.3    81  TYR81      -0.2866
     74  N         17.0920    0.0900   41.6530 N.3   117  LYS117     -0.1231
     75  CA        17.2530    1.1120   42.6620 C.3   117  LYS117      0.1693
     76  C         16.7240    2.4770   42.1080 C.2   117  LYS117      0.2592
     77  O         15.9550    3.1490   42.7820 O.2   117  LYS117     -0.2718
     78  CB        18.7000    1.2640   43.1010 C.3   117  LYS117      0.0285
     79  CG        18.8430    2.1530   44.3240 C.3   117  LYS117      0.0035
     80  CD        20.2610    2.1550   44.8780 C.3   117  LYS117      0.0206
     81  CE        20.3020    2.6990   46.3100 C.3   117  LYS117      0.1093
     82  NZ        20.3360    4.1870   46.4260 N.3   117  LYS117     -0.1314
     83  N         17.1080    2.8790   40.8870 N.am  118  TYR118     -0.1976
     84  CA        16.8330    4.2780   40.5010 C.3   118  TYR118      0.1639
     85  C         15.4200    4.3480   39.9440 C.2   118  TYR118      0.2290
     86  O         14.8070    5.4080   39.8890 O.2   118  TYR118     -0.2864
     87  CB        17.9160    4.8310   39.5870 C.3   118  TYR118      0.0560
     88  CG        18.9560    5.4690   40.4830 C.ar  118  TYR118     -0.0198
     89  CD1       19.9580    4.6970   41.0730 C.ar  118  TYR118     -0.0009
     90  CD2       18.8600    6.8330   40.8550 C.ar  118  TYR118     -0.0009
     91  CE1       20.8830    5.2760   41.9820 C.ar  118  TYR118      0.0417
     92  CE2       19.7590    7.4090   41.7500 C.ar  118  TYR118      0.0417
     93  CZ        20.7780    6.6240   42.3110 C.ar  118  TYR118      0.1957
     94  OH        21.6760    7.1770   43.2030 O.3   118  TYR118     -0.2866
     95  N         13.8640    5.5130   43.1450 N.3   121  HIS121     -0.1241
     96  CA        14.1050    6.9530   43.3280 C.3   121  HIS121      0.1621
     97  C         13.2530    7.7930   42.3680 C.2   121  HIS121      0.2264
     98  O         12.7200    8.8550   42.7540 O.2   121  HIS121     -0.2867
     99  CB        15.5750    7.2700   43.1660 C.3   121  HIS121      0.0745
    100  CG        16.4350    6.6250   44.2130 C.ar  121  HIS121      0.0817
    101  ND1       16.2640    6.8470   45.5590 N.ar  121  HIS121     -0.2268
    102  CD2       17.4530    5.7220   44.1000 C.ar  121  HIS121      0.1154
    103  CE1       17.1570    6.1400   46.2400 C.ar  121  HIS121      0.1986
    104  NE2       17.8800    5.4450   45.3740 N.ar  121  HIS121     -0.2212
    105  N         10.7280   10.5170   43.1790 N.3   125  GLY125     -0.1225
    106  CA        10.9740   11.8530   42.6500 C.3   125  GLY125      0.1811
    107  C          9.6190   12.4410   42.2540 C.2   125  GLY125      0.2280
    108  O          9.2840   13.5870   42.5700 O.2   125  GLY125     -0.2866
    109  N          9.3050   14.8520   45.5380 N.3   129  TRP129     -0.1241
    110  CA        10.2830   15.8630   45.2010 C.3   129  TRP129      0.1605
    111  C          9.8320   16.8100   44.0770 C.2   129  TRP129      0.2264
    112  O         10.6280   17.5770   43.5720 O.2   129  TRP129     -0.2867
    113  CB        11.5850   15.1610   44.8120 C.3   129  TRP129      0.0550
    114  CG        12.2010   14.3230   45.9310 C.ar  129  TRP129      0.0003
    115  CD1       11.9700   12.9920   46.2050 C.ar  129  TRP129      0.0946
    116  CD2       13.1560   14.7650   46.8890 C.ar  129  TRP129      0.0152
    117  NE1       12.7170   12.5970   47.2810 N.ar  129  TRP129     -0.2442
    118  CE2       13.4560   13.6610   47.7210 C.ar  129  TRP129      0.0810
    119  CE3       13.7870   15.9950   47.1340 C.ar  129  TRP129      0.0012
    120  CZ2       14.3640   13.7420   48.7620 C.ar  129  TRP129      0.0191
    121  CZ3       14.6730   16.0860   48.1830 C.ar  129  TRP129      0.0001
    122  CH2       14.9590   14.9580   48.9890 C.ar  129  TRP129      0.0015
    123  N         10.5180   20.6520   43.5810 N.3   132  TYR132     -0.1241
    124  CA        11.8160   21.0890   43.0680 C.3   132  TYR132      0.1605
    125  C         11.9450   21.0310   41.5310 C.2   132  TYR132      0.2264
    126  O         13.0280   21.3070   40.9950 O.2   132  TYR132     -0.2867
    127  CB        12.9250   20.2570   43.7010 C.3   132  TYR132      0.0534
    128  CG        12.9410   20.3450   45.2040 C.ar  132  TYR132     -0.0201
    129  CD1       13.3850   21.4970   45.8660 C.ar  132  TYR132     -0.0009
    130  CD2       12.5050   19.2860   45.9630 C.ar  132  TYR132     -0.0009
    131  CE1       13.3960   21.5650   47.2510 C.ar  132  TYR132      0.0417
    132  CE2       12.5020   19.3410   47.3370 C.ar  132  TYR132      0.0417
    133  CZ        12.9510   20.4810   47.9830 C.ar  132  TYR132      0.1957
    134  OH        12.9440   20.5090   49.3560 O.3   132  TYR132     -0.2866
    135  N         10.7570   15.6310   35.0540 N.3   142  TYR142     -0.1227
    136  CA        11.7990   16.0440   35.9790 C.3   142  TYR142      0.1736
    137  C         12.4220   14.8270   36.7470 C.2   142  TYR142      0.2596
    138  O         13.6590   14.6950   36.8530 O.2   142  TYR142     -0.2718
    139  CB        11.2310   17.0700   36.9510 C.3   142  TYR142      0.0548
    140  CG        12.1610   17.4240   38.0760 C.ar  142  TYR142     -0.0200
    141  CD1       13.3760   18.0500   37.8300 C.ar  142  TYR142     -0.0009
    142  CD2       11.8150   17.1580   39.3880 C.ar  142  TYR142     -0.0009
    143  CE1       14.2210   18.3930   38.8660 C.ar  142  TYR142      0.0417
    144  CE2       12.6510   17.4910   40.4290 C.ar  142  TYR142      0.0417
    145  CZ        13.8560   18.1050   40.1670 C.ar  142  TYR142      0.1957
    146  OH        14.6870   18.4220   41.2100 O.3   142  TYR142     -0.2866
    147  N         11.5870   13.9450   37.2860 N.am  143  SER143     -0.1952
    148  CA        12.1370   12.8020   38.0270 C.3   143  SER143      0.1924
    149  C         12.8920   11.8750   37.0670 C.2   143  SER143      0.2314
    150  O         14.0010   11.4400   37.3720 O.2   143  SER143     -0.2863
    151  CB        11.0580   12.0140   38.7750 C.3   143  SER143      0.2116
    152  OG        11.6890   11.0530   39.6130 O.3   143  SER143     -0.2180
    153  N         16.3040   13.4840   36.3010 N.3   146  VAL146     -0.1231
    154  CA        17.2130   13.4910   37.4220 C.3   146  VAL146      0.1692
    155  C         17.6150   12.0670   37.8000 C.2   146  VAL146      0.2592
    156  O         18.7990   11.7750   38.0660 O.2   146  VAL146     -0.2718
    157  CB        16.6100   14.1610   38.6800 C.3   146  VAL146      0.0266
    158  CG1       17.4670   13.8720   39.8700 C.3   146  VAL146      0.0020
    159  CG2       16.4850   15.7020   38.4830 C.3   146  VAL146      0.0020
    160  N         16.6230   11.2020   37.9080 N.am  147  ASN147     -0.1974
    161  CA        16.9280    9.8480   38.3780 C.3   147  ASN147      0.1688
    162  C         17.3860    8.9270   37.2250 C.2   147  ASN147      0.2292
    163  O         18.2080    8.0170   37.4370 O.2   147  ASN147     -0.2864
    164  CB        15.7360    9.3210   39.1290 C.3   147  ASN147      0.1181
    165  CG        15.4940   10.1070   40.3920 C.2   147  ASN147      0.2629
    166  OD1       16.3900   10.2200   41.2270 O.2   147  ASN147     -0.2716
    167  ND2       14.3010   10.6800   40.5350 N.am  147  ASN147     -0.0877
@<TRIPOS>BOND
     1   135   136    1
     2   136   137    1
     3   136   139    1
     4   153   154    1
     5   137   138    2
     6   137   147   am
     7   139   140    1
     8   149   150    2
     9   149   148    1
    10   162   163    2
    11   162   161    1
    12   147   148    1
    13   154   155    1
    14   154   157    1
    15   155   160   am
    16   155   156    2
    17   141   140   ar
    18   141   143   ar
    19   160   161    1
    20   148   151    1
    21   140   142   ar
    22   161   164    1
    23   159   157    1
    24   157   158    1
    25   151   152    1
    26   143   145   ar
    27   164   165    1
    28   142   144   ar
    29    87    88    1
    30    87    84    1
    31    86    85    2
    32    85    84    1
    33    18    17    2
    34   145   144   ar
    35   145   146    1
    36   165   167   am
    37   165   166    2
    38    88    90   ar
    39    88    89   ar
    40    84    83    1
    41    15    16    1
    42    90    92   ar
    43    83    76   am
    44    17    16    1
    45   126   125    2
    46    89    91   ar
    47   125   124    1
    48    16    19    1
    49    74    75    1
    50    92    93   ar
    51     3     4    2
    52     3     2    1
    53    91    93   ar
    54    76    75    1
    55    76    77    2
    56   107   108    2
    57   107   106    1
    58    93    94    1
    59    97    98    2
    60    97    96    1
    61    23    24    1
    62     1     2    1
    63   106   105    1
    64    75    78    1
    65     2     5    1
    66    19    20    1
    67    19    21    1
    68    20    22    1
    69   124   123    1
    70   124   127    1
    71    78    79    1
    72    95    96    1
    73    99    96    1
    74    99   100    1
    75     5     6    1
    76   112   111    2
    77   127   128    1
    78    24    25    1
    79    24    27    1
    80    25    26    2
    81    27    28    1
    82   111   110    1
    83   102   100   ar
    84   102   104   ar
    85   100   101   ar
    86    79    80    1
    87     6     7   ar
    88     6     8   ar
    89   113   110    1
    90   113   114    1
    91    80    81    1
    92    30    29   ar
    93   110   109    1
    94   128   129   ar
    95   128   130   ar
    96   104   103   ar
    97     7     9   ar
    98    28    29    1
    99   101   103   ar
   100    11     8   ar
   101    11    13   ar
   102     8    10   ar
   103   129   131   ar
   104   114   115   ar
   105   114   116   ar
   106    29    31   ar
   107   130   132   ar
   108   115   117   ar
   109    81    82    1
   110    60    59   ar
   111     9    10   ar
   112    13    14   ar
   113   116   119   ar
   114   116   118   ar
   115    10    12   ar
   116   119   121   ar
   117   131   133   ar
   118   117   118   ar
   119   132   133   ar
   120    59    61   ar
   121    59    58    1
   122   118   120   ar
   123   133   134    1
   124    14    12   ar
   125   121   122   ar
   126    58    57    1
   127   120   122   ar
   128    57    54    1
   129    54    53    1
   130    54    55    1
   131    56    55    2
   132    55    62   am
   133    49    48    1
   134    49    50    1
   135    52    50   am
   136    47    46    2
   137    48    45    1
   138    73    72    1
   139    62    63    1
   140    40    38   ar
   141    40    42   ar
   142    38    37   ar
   143    50    51    2
   144    45    46    1
   145    45    44    1
   146    43    42    1
   147    42    41   ar
   148    37    36    1
   149    37    39   ar
   150    36    33    1
   151    72    71   ar
   152    72    70   ar
   153    71    69   ar
   154    70    68   ar
   155    41    39   ar
   156    63    64    1
   157    63    66    1
   158    35    34    2
   159    69    67   ar
   160    68    67   ar
   161    67    66    1
   162    64    65    2
   163    33    34    1
   164    33    32    1
