@<TRIPOS>MOLECULE
tmp/4powB00.pdb
 184 175 0 0 0
SMALL
GASTEIGER

@<TRIPOS>ATOM
      1  N         30.5180   37.6900   17.8010 N.3     9  GLU9       -0.1245
      2  CA        29.4280   37.6270   18.7650 C.3     9  GLU9        0.1567
      3  C         28.4590   36.4740   18.4810 C.2     9  GLU9        0.2260
      4  O         28.1520   35.6840   19.3810 O.2     9  GLU9       -0.2867
      5  CB        28.7150   38.9760   18.7890 C.3     9  GLU9        0.0388
      6  CG        27.6090   39.0480   19.8180 C.3     9  GLU9        0.1160
      7  CD        26.4930   39.9790   19.4210 C.2     9  GLU9        0.3649
      8  OE1       26.2030   40.0780   18.2130 O.co2   9  GLU9       -0.2457
      9  OE2       25.8560   40.5560   20.3260 O.co2   9  GLU9       -0.2457
     10  N         25.2550   37.0900   17.2790 N.3    11  SER11      -0.1202
     11  CA        23.8860   37.5820   17.4470 C.3    11  SER11       0.2020
     12  C         23.6600   38.8590   16.6480 C.2    11  SER11       0.2618
     13  O         22.9300   39.7440   17.0960 O.2    11  SER11      -0.2717
     14  CB        23.5940   37.8270   18.9290 C.3    11  SER11       0.2103
     15  OG        23.6380   36.6100   19.6570 O.3    11  SER11      -0.2182
     16  N         24.2380   38.9490   15.4460 N.am   12  TYR12      -0.1975
     17  CA        24.1150   40.1640   14.6570 C.3    12  TYR12       0.1639
     18  C         24.0620   39.8230   13.1740 C.2    12  TYR12       0.2290
     19  O         25.0210   40.0590   12.4380 O.2    12  TYR12      -0.2864
     20  CB        25.2820   41.1100   14.9870 C.3    12  TYR12       0.0560
     21  CG        24.9380   42.5570   14.7510 C.ar   12  TYR12      -0.0198
     22  CD1       24.1430   43.2580   15.6510 C.ar   12  TYR12      -0.0009
     23  CD2       25.3860   43.2220   13.6160 C.ar   12  TYR12      -0.0009
     24  CE1       23.8190   44.5950   15.4420 C.ar   12  TYR12       0.0417
     25  CE2       25.0900   44.5660   13.4090 C.ar   12  TYR12       0.0417
     26  CZ        24.3090   45.2480   14.3280 C.ar   12  TYR12       0.1957
     27  OH        23.9580   46.5530   14.1040 O.3    12  TYR12      -0.2866
     28  N         25.9320   39.7630    9.6480 N.3    15  TYR15      -0.1227
     29  CA        27.3820   39.7900    9.8450 C.3    15  TYR15       0.1736
     30  C         27.8530   38.5040   10.5360 C.2    15  TYR15       0.2595
     31  O         28.8220   37.8850   10.1150 O.2    15  TYR15      -0.2718
     32  CB        27.7810   40.9440   10.7530 C.3    15  TYR15       0.0548
     33  CG        27.8290   42.3110   10.1240 C.ar   15  TYR15      -0.0200
     34  CD1       29.0300   42.8340    9.6440 C.ar   15  TYR15      -0.0009
     35  CD2       26.7080   43.1390   10.1240 C.ar   15  TYR15      -0.0009
     36  CE1       29.1160   44.1470    9.1810 C.ar   15  TYR15       0.0417
     37  CE2       26.7880   44.4620    9.6940 C.ar   15  TYR15       0.0417
     38  CZ        27.9930   44.9550    9.2150 C.ar   15  TYR15       0.1957
     39  OH        28.0810   46.2540    8.8150 O.3    15  TYR15      -0.2866
     40  N         27.2400   38.1770   11.6730 N.am   16  ASN16      -0.1974
     41  CA        27.6620   37.0050   12.4340 C.3    16  ASN16       0.1688
     42  C         26.4770   36.5110   13.2180 C.2    16  ASN16       0.2292
     43  O         25.8870   37.2460   14.0000 O.2    16  ASN16      -0.2864
     44  CB        28.8640   37.3290   13.3610 C.3    16  ASN16       0.1181
     45  CG        28.7120   38.5580   14.2250 C.2    16  ASN16       0.2629
     46  OD1       28.3850   38.4740   15.4140 O.2    16  ASN16      -0.2716
     47  ND2       29.0410   39.7280   13.6720 N.am   16  ASN16      -0.0877
     48  N         29.0540   40.3630   23.3780 N.3    50  TRP50      -0.1241
     49  CA        29.4540   41.7140   23.0520 C.3    50  TRP50       0.1605
     50  C         30.0470   42.4980   24.2260 C.2    50  TRP50       0.2264
     51  O         31.0640   43.1750   24.0230 O.2    50  TRP50      -0.2867
     52  CB        28.2880   42.4650   22.4330 C.3    50  TRP50       0.0550
     53  CG        28.6560   43.8010   21.8780 C.ar   50  TRP50       0.0003
     54  CD1       28.4310   45.0160   22.4540 C.ar   50  TRP50       0.0946
     55  CD2       29.4110   44.0480   20.7050 C.ar   50  TRP50       0.0152
     56  NE1       28.9420   46.0150   21.6640 N.ar   50  TRP50      -0.2442
     57  CE2       29.5560   45.4510   20.5830 C.ar   50  TRP50       0.0810
     58  CE3       29.9630   43.2240   19.7240 C.ar   50  TRP50       0.0012
     59  CZ2       30.2510   46.0470   19.5350 C.ar   50  TRP50       0.0191
     60  CZ3       30.6690   43.8160   18.6950 C.ar   50  TRP50       0.0001
     61  CH2       30.7880   45.2140   18.5930 C.ar   50  TRP50       0.0015
     62  N         33.2060   41.2970   14.3120 N.3    67  ALA67      -0.1231
     63  CA        31.8780   41.1850   14.8940 C.3    67  ALA67       0.1694
     64  C         31.0760   42.4410   14.6160 C.2    67  ALA67       0.2592
     65  O         30.4480   42.9900   15.5170 O.2    67  ALA67      -0.2718
     66  CB        32.0000   40.9520   16.4010 C.3    67  ALA67       0.0304
     67  N         31.0770   42.8870   13.3560 N.am   68  ALA68      -0.1966
     68  CA        30.3520   44.0990   12.9220 C.3    68  ALA68       0.1728
     69  C         30.7940   45.2850   13.7470 C.2    68  ALA68       0.2616
     70  O         29.9600   46.0980   14.1040 O.2    68  ALA68      -0.2715
     71  CB        28.8430   43.8970   13.0640 C.3    68  ALA68       0.0334
     72  N         32.0840   45.3720   14.0750 N.am   69  MET69      -0.1963
     73  CA        32.5680   46.4330   14.9420 C.3    69  MET69       0.1736
     74  C         32.9070   47.7380   14.2190 C.2    69  MET69       0.2617
     75  O         33.8550   47.7840   13.4330 O.2    69  MET69      -0.2715
     76  CB        33.7470   45.9500   15.7840 C.3    69  MET69       0.0427
     77  CG        34.1530   46.9810   16.8280 C.3    69  MET69       0.0599
     78  SD        35.3860   46.3600   17.9820 S.3    69  MET69      -0.1393
     79  CE        34.3280   45.4170   19.0860 C.3    69  MET69       0.0692
     80  N         32.1630   48.7920   14.5320 N.am   70  GLY70      -0.1955
     81  CA        32.4290   50.1070   13.9590 C.3    70  GLY70       0.1869
     82  C         33.7650   50.6590   14.4250 C.2    70  GLY70       0.2309
     83  O         34.1630   50.4600   15.5760 O.2    70  GLY70      -0.2863
     84  N         35.0760   53.2580   15.7910 N.3    72  GLN72      -0.1245
     85  CA        34.7160   54.4450   16.5530 C.3    72  GLN72       0.1566
     86  C         35.9800   55.0830   17.1390 C.2    72  GLN72       0.2260
     87  O         36.7980   54.3580   17.7230 O.2    72  GLN72      -0.2867
     88  CB        33.8180   54.0470   17.7390 C.3    72  GLN72       0.0367
     89  CG        32.3550   53.7040   17.4460 C.3    72  GLN72       0.0905
     90  CD        31.5490   53.8670   18.7160 C.2    72  GLN72       0.2608
     91  OE1       30.9790   54.9340   19.0000 O.2    72  GLN72      -0.2717
     92  NE2       31.5200   52.8390   19.5430 N.am   72  GLN72      -0.0878
     93  N         36.7810   53.6960   20.5860 N.3    75  ARG75      -0.1245
     94  CA        37.4370   52.3850   20.6030 C.3    75  ARG75       0.1563
     95  C         38.8800   52.4830   20.1640 C.2    75  ARG75       0.2260
     96  O         39.6980   51.6980   20.6350 O.2    75  ARG75      -0.2867
     97  CB        36.7010   51.3820   19.7200 C.3    75  ARG75       0.0307
     98  CG        35.3540   51.0130   20.2730 C.3    75  ARG75       0.0489
     99  CD        34.6250   50.1000   19.3090 C.3    75  ARG75       0.2205
    100  NE        33.2950   49.8090   19.8230 N.pl3  75  ARG75      -0.0865
    101  CZ        32.2070   49.6850   19.0780 C.cat  75  ARG75       0.5346
    102  NH1       31.0340   49.4490   19.6490 N.pl3  75  ARG75       0.1354
    103  NH2       32.2720   49.8540   17.7600 N.pl3  75  ARG75       0.1354
    104  N         28.9840   51.8940    6.2350 N.3    88  THR88      -0.1218
    105  CA        27.5340   52.0010    6.4160 C.3    88  THR88       0.1862
    106  C         27.1210   53.2390    7.1920 C.2    88  THR88       0.2287
    107  O         27.7410   53.5470    8.2150 O.2    88  THR88      -0.2866
    108  CB        26.9600   50.7290    7.1260 C.3    88  THR88       0.1770
    109  OG1       25.5300   50.8680    7.2750 O.3    88  THR88      -0.2211
    110  CG2       27.6230   50.4550    8.5010 C.3    88  THR88       0.0375
    111  N         24.0980   55.1100    9.6520 N.3    90  MET90      -0.1245
    112  CA        23.2670   54.6890   10.7740 C.3    90  MET90       0.1570
    113  C         21.9000   55.3090   10.6320 C.2    90  MET90       0.2261
    114  O         21.7800   56.4490   10.1810 O.2    90  MET90      -0.2867
    115  CB        23.9160   55.1760   12.0840 C.3    90  MET90       0.0387
    116  CG        25.4260   54.8820   12.1640 C.3    90  MET90       0.0595
    117  SD        25.7810   53.0970   12.1520 S.3    90  MET90      -0.1393
    118  CE        25.1610   52.6830   13.6280 C.3    90  MET90       0.0692
    119  N         21.1100   48.1040   21.7540 N.3   138  GLN138     -0.1245
    120  CA        22.0190   47.1010   22.2760 C.3   138  GLN138      0.1566
    121  C         23.0720   47.8340   23.1460 C.2   138  GLN138      0.2260
    122  O         23.6730   48.8390   22.7160 O.2   138  GLN138     -0.2867
    123  CB        22.7120   46.3620   21.1400 C.3   138  GLN138      0.0367
    124  CG        23.6950   45.3470   21.6970 C.3   138  GLN138      0.0905
    125  CD        24.4680   44.5670   20.6620 C.2   138  GLN138      0.2608
    126  OE1       24.5070   44.8980   19.4820 O.2   138  GLN138     -0.2717
    127  NE2       25.0990   43.4870   21.1270 N.am  138  GLN138     -0.0878
    128  N         27.2200   49.6680   22.4040 N.3   141  THR141     -0.1203
    129  CA        27.3690   49.9520   20.9790 C.3   141  THR141      0.1994
    130  C         27.4360   51.4460   20.6970 C.2   141  THR141      0.2619
    131  O         27.1330   52.2700   21.5780 O.2   141  THR141     -0.2717
    132  CB        26.1610   49.3870   20.2130 C.3   141  THR141      0.1784
    133  OG1       24.9750   50.0120   20.7090 O.3   141  THR141     -0.2211
    134  CG2       26.0560   47.8640   20.2920 C.3   141  THR141      0.0376
    135  N         27.7170   51.7890   19.4140 N.am  142  SER142     -0.1937
    136  CA        27.6940   53.1850   18.9620 C.3   142  SER142      0.2055
    137  C         26.2640   53.6920   18.9940 C.2   142  SER142      0.2643
    138  O         26.0490   54.9020   19.0990 O.2   142  SER142     -0.2714
    139  CB        28.2730   53.3210   17.5560 C.3   142  SER142      0.2130
    140  OG        27.4240   52.6090   16.6710 O.3   142  SER142     -0.2179
    141  N         25.2850   52.7640   18.9390 N.am  143  HIS143     -0.1973
    142  CA        23.8570   53.0970   19.0210 C.3   143  HIS143      0.1656
    143  C         23.5960   53.7030   20.4040 C.2   143  HIS143      0.2291
    144  O         23.0070   54.7810   20.5080 O.2   143  HIS143     -0.2864
    145  CB        22.9650   51.8450   18.8150 C.3   143  HIS143      0.0771
    146  CG        23.4140   50.9170   17.7180 C.ar  143  HIS143      0.0820
    147  ND1       22.9890   49.5920   17.6790 N.ar  143  HIS143     -0.2267
    148  CD2       24.2110   51.1560   16.6420 C.ar  143  HIS143      0.1154
    149  CE1       23.5420   49.0690   16.5820 C.ar  143  HIS143      0.1986
    150  NE2       24.2950   49.9630   15.9340 N.ar  143  HIS143     -0.2212
    151  N         22.9100   50.3090   12.2130 N.3   180  SER180     -0.1217
    152  CA        23.3770   50.6530   10.8710 C.3   180  SER180      0.1889
    153  C         22.3860   50.2340    9.8030 C.2   180  SER180      0.2288
    154  O         21.6190   49.2840    9.9880 O.2   180  SER180     -0.2866
    155  CB        24.7080   49.9830   10.5530 C.3   180  SER180      0.2089
    156  OG        24.5230   48.5830   10.4020 O.3   180  SER180     -0.2183
    157  N         23.4020   48.7150    7.2790 N.3   182  SER182     -0.1217
    158  CA        23.8270   47.3580    6.9120 C.3   182  SER182      0.1889
    159  C         23.1080   46.2810    7.7330 C.2   182  SER182      0.2288
    160  O         22.8840   45.1850    7.2270 O.2   182  SER182     -0.2866
    161  CB        25.3400   47.1950    6.9950 C.3   182  SER182      0.2089
    162  OG        25.7690   47.3490    8.3340 O.3   182  SER182     -0.2183
    163  N         30.4260   57.8560   15.4400 N.3   208  PHE208     -0.1241
    164  CA        30.3160   56.5660   14.7510 C.3   208  PHE208      0.1605
    165  C         31.6080   56.1860   14.0620 C.2   208  PHE208      0.2264
    166  O         31.8100   55.0000   13.7630 O.2   208  PHE208     -0.2867
    167  CB        29.1980   56.6140   13.7130 C.3   208  PHE208      0.0534
    168  CG        27.8110   56.7370   14.2830 C.ar  208  PHE208     -0.0203
    169  CD1       27.3050   55.7630   15.1450 C.ar  208  PHE208     -0.0042
    170  CD2       26.9940   57.8060   13.9340 C.ar  208  PHE208     -0.0042
    171  CE1       26.0050   55.8650   15.6550 C.ar  208  PHE208     -0.0003
    172  CE2       25.6950   57.9090   14.4430 C.ar  208  PHE208     -0.0003
    173  CZ        25.2080   56.9320   15.3050 C.ar  208  PHE208     -0.0000
    174  N         33.4800   53.2210    8.8910 N.3   211  GLY211     -0.1210
    175  CA        33.7490   51.8470    8.5370 C.3   211  GLY211      0.1956
    176  C         33.6200   50.8460    9.6580 C.2   211  GLY211      0.2611
    177  O         33.4960   51.1960   10.8320 O.2   211  GLY211     -0.2717
    178  N         33.6100   49.5860    9.2560 N.am  212  VAL212     -0.1979
    179  CA        33.6070   48.4150   10.1120 C.3   212  VAL212      0.1595
    180  C         34.9750   47.7930    9.8950 C.2   212  VAL212      0.2287
    181  O         35.4030   47.6660    8.7450 O.2   212  VAL212     -0.2864
    182  CB        32.4830   47.4430    9.6620 C.3   212  VAL212      0.0276
    183  CG1       32.5210   46.1510   10.4760 C.3   212  VAL212      0.0022
    184  CG2       31.1180   48.1260    9.7610 C.3   212  VAL212      0.0022
@<TRIPOS>BOND
     1   104   105    1
     2   105   108    1
     3   105   106    1
     4   158   161    1
     5   158   157    1
     6   158   159    1
     7   161   162    1
     8   108   109    1
     9   108   110    1
    10   106   107    2
    11   160   159    2
    12   175   174    1
    13   175   176    1
    14   181   180    2
    15    39    38    1
    16    36    38   ar
    17    36    34   ar
    18    38    37   ar
    19   178   176   am
    20   178   179    1
    21    34    33   ar
    22    28    29    1
    23   111   112    1
    24   176   177    2
    25   182   184    1
    26   182   179    1
    27   182   183    1
    28    37    35   ar
    29   153   154    2
    30   153   152    1
    31    29    30    1
    32    29    32    1
    33   180   179    1
    34    31    30    2
    35    33    35   ar
    36    33    32    1
    37   114   113    2
    38   156   155    1
    39    30    40   am
    40   155   152    1
    41   113   112    1
    42   112   115    1
    43   152   151    1
    44    40    41    1
    45   115   116    1
    46   117   116    1
    47   117   118    1
    48    41    42    1
    49    41    44    1
    50    19    18    2
    51    68    71    1
    52    68    67    1
    53    68    69    1
    54    18    17    1
    55    42    43    2
    56    67    64   am
    57    44    45    1
    58    25    23   ar
    59    25    26   ar
    60    75    74    2
    61    23    21   ar
    62    47    45   am
    63   167   168    1
    64   167   164    1
    65    69    72   am
    66    69    70    2
    67   166   165    2
    68   170   168   ar
    69   170   172   ar
    70    81    82    1
    71    81    80    1
    72   165   164    1
    73    72    73    1
    74    27    26    1
    75    74    80   am
    76    74    73    1
    77    45    46    2
    78   168   169   ar
    79    62    63    1
    80    26    24   ar
    81    82    83    2
    82   172   173   ar
    83    64    63    1
    84    64    65    2
    85    17    20    1
    86    17    16    1
    87   164   163    1
    88    21    20    1
    89    21    22   ar
    90    63    66    1
    91    73    76    1
    92   169   171   ar
    93   173   171   ar
    94    24    22   ar
    95    16    12   am
    96    76    77    1
    97    84    85    1
    98   150   149   ar
    99   150   148   ar
   100    85    86    1
   101    85    88    1
   102   149   147   ar
   103   148   146   ar
   104    12    13    2
   105    12    11    1
   106   140   139    1
   107    77    78    1
   108    86    87    2
   109    10    11    1
   110    89    88    1
   111    89    90    1
   112    11    14    1
   113   139   136    1
   114   147   146   ar
   115   146   145    1
   116   103   101    1
   117     1     2    1
   118    78    79    1
   119     8     7   ar
   120     3     2    1
   121     3     4    2
   122    61    60   ar
   123    61    59   ar
   124    60    58   ar
   125    90    91    2
   126    90    92   am
   127     2     5    1
   128     5     6    1
   129   145   142    1
   130    14    15    1
   131   141   137   am
   132   141   142    1
   133   136   137    1
   134   136   135    1
   135   137   138    2
   136   142   143    1
   137   101   102    1
   138   101   100    2
   139    99   100    1
   140    99    98    1
   141   135   130   am
   142     7     6    1
   143     7     9   ar
   144   126   125    2
   145    59    57   ar
   146    97    98    1
   147    97    94    1
   148    58    55   ar
   149    95    94    1
   150    95    96    2
   151   132   134    1
   152   132   133    1
   153   132   129    1
   154   143   144    2
   155    57    55   ar
   156    57    56   ar
   157    93    94    1
   158   125   127   am
   159   125   124    1
   160   130   129    1
   161   130   131    2
   162    55    53   ar
   163   129   128    1
   164   123   124    1
   165   123   120    1
   166    56    54   ar
   167   119   120    1
   168    53    52    1
   169    53    54   ar
   170   120   121    1
   171    52    49    1
   172   122   121    2
   173    49    48    1
   174    49    50    1
   175    51    50    2
