@<TRIPOS>MOLECULE
tmp/4poxA01.pdb
 84 77 0 0 0
SMALL
GASTEIGER

@<TRIPOS>ATOM
      1  N         12.7930  -13.9390  -10.8410 N.3    55  ILE55      -0.1245
      2  CA        11.7300  -14.6950  -10.1640 C.3    55  ILE55       0.1561
      3  C         10.8560  -15.4700  -11.1800 C.2    55  ILE55       0.2260
      4  O         10.7450  -16.6900  -11.0360 O.2    55  ILE55      -0.2867
      5  CB        10.9360  -13.8560   -9.1150 C.3    55  ILE55       0.0252
      6  CG1       11.8480  -13.4560   -7.9360 C.3    55  ILE55       0.0019
      7  CG2        9.6920  -14.6170   -8.6220 C.3    55  ILE55       0.0019
      8  CD1       11.2770  -12.4330   -6.9640 C.3    55  ILE55       0.0001
      9  N         11.6710  -11.2900    1.2740 N.3    73  GLN73      -0.1245
     10  CA        10.6870  -10.2040    1.2860 C.3    73  GLN73       0.1566
     11  C          9.2260  -10.7330    1.2320 C.2    73  GLN73       0.2260
     12  O          8.9830  -11.7370    0.5650 O.2    73  GLN73      -0.2867
     13  CB        11.0390   -9.1620    0.1910 C.3    73  GLN73       0.0367
     14  CG         9.8580   -8.6560   -0.6440 C.3    73  GLN73       0.0905
     15  CD         9.9030   -7.1750   -0.8100 C.2    73  GLN73       0.2608
     16  OE1       10.6010   -6.6470   -1.6790 O.2    73  GLN73      -0.2717
     17  NE2        9.1580   -6.4720    0.0180 N.am   73  GLN73      -0.0878
     18  N          6.4160   -9.7730   -0.3080 N.3    75  ALA75      -0.1231
     19  CA         5.8740   -9.7950   -1.6690 C.3    75  ALA75       0.1694
     20  C          6.4390  -11.0110   -2.4540 C.2    75  ALA75       0.2591
     21  O          5.6750  -11.7260   -3.0940 O.2    75  ALA75      -0.2718
     22  CB         6.2010   -8.4920   -2.3870 C.3    75  ALA75       0.0304
     23  N          7.7530  -11.2670   -2.3420 N.am   76  ARG76      -0.1980
     24  CA         8.4430  -12.4030   -2.9750 C.3    76  ARG76       0.1597
     25  C          7.9480  -13.7540   -2.4430 C.2    76  ARG76       0.2287
     26  O          7.7640  -14.6810   -3.2280 O.2    76  ARG76      -0.2864
     27  CB         9.9660  -12.2840   -2.8000 C.3    76  ARG76       0.0334
     28  CG        10.5630  -11.0920   -3.5190 C.3    76  ARG76       0.0492
     29  CD        12.0600  -11.0200   -3.3450 C.3    76  ARG76       0.2205
     30  NE        12.5700   -9.8190   -3.9970 N.pl3  76  ARG76      -0.0865
     31  CZ        13.4480   -8.9810   -3.4690 C.cat  76  ARG76       0.5346
     32  NH1       13.8150   -7.8950   -4.1300 N.pl3  76  ARG76       0.1354
     33  NH2       13.9640   -9.2190   -2.2680 N.pl3  76  ARG76       0.1354
     34  N         12.8870   -3.2970   -8.7710 N.3   141  GLY141     -0.1210
     35  CA        12.5390   -4.6270   -8.2800 C.3   141  GLY141      0.1956
     36  C         13.1590   -4.9800   -6.9410 C.2   141  GLY141      0.2612
     37  O         13.2060   -6.1570   -6.5620 O.2   141  GLY141     -0.2717
     38  N         13.6440   -3.9620   -6.2070 N.am  142  THR142     -0.1952
     39  CA        14.2780   -4.1840   -4.9120 C.3   142  THR142      0.1897
     40  C         13.3600   -3.8030   -3.7720 C.2   142  THR142      0.2313
     41  O         12.3650   -3.1370   -3.9990 O.2   142  THR142     -0.2863
     42  CB        15.6500   -3.4710   -4.8300 C.3   142  THR142      0.1794
     43  OG1       15.4440   -2.0620   -4.9780 O.3   142  THR142     -0.2208
     44  CG2       16.6480   -3.9940   -5.8600 C.3   142  THR142      0.0378
     45  N         13.2150    0.0180   -3.3950 N.3   145  GLU145     -0.1231
     46  CA        12.2130    0.6710   -4.2150 C.3   145  GLU145      0.1699
     47  C         10.8760    0.5970   -3.4740 C.2   145  GLU145      0.2592
     48  O         10.1970    1.6180   -3.3500 O.2   145  GLU145     -0.2718
     49  CB        12.1350   -0.0160   -5.6050 C.3   145  GLU145      0.0402
     50  CG        11.1270    0.6160   -6.5510 C.3   145  GLU145      0.1161
     51  CD        10.7680   -0.1550   -7.8100 C.2   145  GLU145      0.3649
     52  OE1       11.1400   -1.3430   -7.9220 O.co2 145  GLU145     -0.2457
     53  OE2       10.0880    0.4300   -8.6830 O.co2 145  GLU145     -0.2457
     54  N         10.5060   -0.6110   -3.0000 N.am  146  ALA146     -0.1980
     55  CA         9.2840   -0.8520   -2.2330 C.3   146  ALA146      0.1597
     56  C          9.2520    0.0600   -1.0030 C.2   146  ALA146      0.2287
     57  O          8.2340    0.7020   -0.7900 O.2   146  ALA146     -0.2864
     58  CB         9.1800   -2.3200   -1.8250 C.3   146  ALA146      0.0319
     59  N          8.7320    3.8180   -2.1880 N.3   149  LYS149     -0.1231
     60  CA         7.3980    4.0350   -2.7300 C.3   149  LYS149      0.1693
     61  C          6.2940    3.9730   -1.6650 C.2   149  LYS149      0.2591
     62  O          5.3560    4.7670   -1.7140 O.2   149  LYS149     -0.2718
     63  CB         7.1240    3.0640   -3.8870 C.3   149  LYS149      0.0285
     64  CG         7.8470    3.4250   -5.1750 C.3   149  LYS149      0.0035
     65  CD         7.5290    2.4360   -6.2870 C.3   149  LYS149      0.0206
     66  CE         7.6300    3.0400   -7.6740 C.3   149  LYS149      0.1093
     67  NZ         9.0350    3.1980   -8.1180 N.3   149  LYS149     -0.1314
     68  N          6.4090    3.0420   -0.7050 N.am  150  GLN150     -0.1979
     69  CA         5.4360    2.8290    0.3670 C.3   150  GLN150      0.1601
     70  C          5.6520    3.7420    1.5840 C.2   150  GLN150      0.2287
     71  O          4.6770    4.2340    2.1540 O.2   150  GLN150     -0.2864
     72  CB         5.4570    1.3420    0.7810 C.3   150  GLN150      0.0394
     73  CG         4.5220    0.9290    1.9290 C.3   150  GLN150      0.0908
     74  CD         3.0920    0.7300    1.4970 C.2   150  GLN150      0.2608
     75  OE1        2.1990    1.5260    1.8230 O.2   150  GLN150     -0.2717
     76  NE2        2.8370   -0.3620    0.7870 N.am  150  GLN150     -0.0878
     77  N          9.0170   -4.3090    5.0360 N.3   208  LEU208     -0.1245
     78  CA         9.1710   -4.6790    3.6230 C.3   208  LEU208      0.1561
     79  C         10.6210   -5.0450    3.2050 C.2   208  LEU208      0.2260
     80  O         10.8280   -5.5180    2.0870 O.2   208  LEU208     -0.2867
     81  CB         8.5100   -3.6610    2.6580 C.3   208  LEU208      0.0270
     82  CG         8.5410   -2.2000    3.0670 C.3   208  LEU208      0.0019
     83  CD1        9.9610   -1.6690    3.0780 C.3   208  LEU208      0.0001
     84  CD2        7.6060   -1.3670    2.2120 C.3   208  LEU208      0.0001
@<TRIPOS>BOND
     1     3     4    2
     2     3     2    1
     3     1     2    1
     4     2     5    1
     5     5     7    1
     6     5     6    1
     7    34    35    1
     8    53    51   ar
     9    35    36    1
    10    67    66    1
    11     6     8    1
    12    52    51   ar
    13    51    50    1
    14    66    65    1
    15    36    37    2
    16    36    38   am
    17    50    49    1
    18    65    64    1
    19    38    39    1
    20    44    42    1
    21    49    46    1
    22    64    63    1
    23    43    42    1
    24    39    42    1
    25    39    40    1
    26    46    47    1
    27    46    45    1
    28    32    31    1
    29    41    40    2
    30    30    31    2
    31    30    29    1
    32    63    60    1
    33    28    29    1
    34    28    27    1
    35    47    48    2
    36    47    54   am
    37    31    33    1
    38    26    25    2
    39    21    20    2
    40    54    55    1
    41    24    27    1
    42    24    25    1
    43    24    23    1
    44    60    59    1
    45    60    61    1
    46    20    23   am
    47    20    19    1
    48    22    19    1
    49    55    58    1
    50    55    56    1
    51    62    61    2
    52    16    15    2
    53    19    18    1
    54    61    68   am
    55    56    57    2
    56    15    14    1
    57    15    17   am
    58    68    69    1
    59    14    13    1
    60    13    10    1
    61    69    72    1
    62    69    70    1
    63    12    11    2
    64    72    73    1
    65    76    74   am
    66    11    10    1
    67     9    10    1
    68    74    75    2
    69    74    73    1
    70    70    71    2
    71    80    79    2
    72    84    82    1
    73    81    82    1
    74    81    78    1
    75    82    83    1
    76    79    78    1
    77    78    77    1
