@<TRIPOS>MOLECULE
tmp/4pp5A01.pdb
 195 185 0 0 0
SMALL
GASTEIGER

@<TRIPOS>ATOM
      1  N         65.7640   40.2940   35.3600 N.3    21  VAL21      -0.1245
      2  CA        66.3070   40.7640   34.0950 C.3    21  VAL21       0.1561
      3  C         65.6710   40.0040   32.9370 C.2    21  VAL21       0.2260
      4  O         65.2640   40.6040   31.9430 O.2    21  VAL21      -0.2867
      5  CB        67.8350   40.5870   34.0460 C.3    21  VAL21       0.0252
      6  CG1       68.3470   40.8730   32.6510 C.3    21  VAL21       0.0019
      7  CG2       68.4920   41.5260   35.0480 C.3    21  VAL21       0.0019
      8  N         62.2190   41.2290   32.4870 N.3    24  ILE24      -0.1231
      9  CA        62.2160   42.5660   31.9090 C.3    24  ILE24       0.1692
     10  C         62.4640   42.4970   30.4020 C.2    24  ILE24       0.2592
     11  O         61.8080   43.1900   29.6280 O.2    24  ILE24      -0.2718
     12  CB        63.2880   43.4640   32.5810 C.3    24  ILE24       0.0266
     13  CG1       62.8620   43.7700   34.0240 C.3    24  ILE24       0.0019
     14  CG2       63.4650   44.7650   31.7880 C.3    24  ILE24       0.0020
     15  CD1       63.9650   44.3620   34.8990 C.3    24  ILE24       0.0001
     16  N         63.4040   41.6550   29.9810 N.am   25  CYS25      -0.1970
     17  CA        63.6940   41.5250   28.5600 C.3    25  CYS25       0.1712
     18  C         62.5330   40.8970   27.7940 C.2    25  CYS25       0.2296
     19  O         62.2910   41.2400   26.6370 O.2    25  CYS25      -0.2864
     20  CB        64.9580   40.6980   28.3440 C.3    25  CYS25       0.0983
     21  SG        66.4640   41.5460   28.8570 S.3    25  CYS25      -0.0798
     22  N         59.3640   41.2000   28.6140 N.3    27  ALA27      -0.1231
     23  CA        58.3230   42.2180   28.5790 C.3    27  ALA27       0.1694
     24  C         58.6360   43.2320   27.4870 C.2    27  ALA27       0.2591
     25  O         57.7380   43.6890   26.7760 O.2    27  ALA27      -0.2718
     26  CB        58.2280   42.9180   29.9360 C.3    27  ALA27       0.0304
     27  N         59.9150   43.5840   27.3620 N.am   28  ALA28      -0.1980
     28  CA        60.3510   44.5470   26.3560 C.3    28  ALA28       0.1597
     29  C         60.0780   44.0540   24.9370 C.2    28  ALA28       0.2287
     30  O         59.6120   44.8190   24.0970 O.2    28  ALA28      -0.2864
     31  CB        61.8450   44.8490   26.5240 C.3    28  ALA28       0.0319
     32  N         56.3960   44.2470   24.2950 N.3    31  GLN31      -0.1245
     33  CA        55.9670   45.6150   24.0650 C.3    31  GLN31       0.1566
     34  C         56.4710   46.2550   22.7800 C.2    31  GLN31       0.2260
     35  O         55.9260   47.2630   22.3480 O.2    31  GLN31      -0.2867
     36  CB        56.3260   46.4930   25.2690 C.3    31  GLN31       0.0367
     37  CG        55.5070   46.1890   26.5120 C.3    31  GLN31       0.0905
     38  CD        54.0140   46.1450   26.2360 C.2    31  GLN31       0.2608
     39  OE1       53.4600   45.0890   25.9210 O.2    31  GLN31      -0.2717
     40  NE2       53.3550   47.2970   26.3420 N.am   31  GLN31      -0.0878
     41  N         62.7230   53.6280   20.5730 N.3    61  TRP61      -0.1227
     42  CA        62.0510   52.5300   21.2590 C.3    61  TRP61       0.1737
     43  C         62.3700   52.3730   22.7440 C.2    61  TRP61       0.2595
     44  O         61.4560   52.1980   23.5500 O.2    61  TRP61      -0.2718
     45  CB        62.3060   51.1940   20.5470 C.3    61  TRP61       0.0564
     46  CG        63.6830   50.6250   20.7340 C.ar   61  TRP61       0.0003
     47  CD1       64.7810   50.8520   19.9540 C.ar   61  TRP61       0.0946
     48  CD2       64.1030   49.7240   21.7660 C.ar   61  TRP61       0.0152
     49  NE1       65.8580   50.1460   20.4340 N.ar   61  TRP61      -0.2442
     50  CE2       65.4710   49.4450   21.5470 C.ar   61  TRP61       0.0810
     51  CE3       63.4580   49.1280   22.8560 C.ar   61  TRP61       0.0012
     52  CZ2       66.2070   48.5930   22.3810 C.ar   61  TRP61       0.0191
     53  CZ3       64.1900   48.2810   23.6880 C.ar   61  TRP61       0.0001
     54  CH2       65.5530   48.0240   23.4420 C.ar   61  TRP61       0.0015
     55  N         63.6450   52.4370   23.1220 N.am   62  ASN62      -0.1974
     56  CA        63.9840   52.2590   24.5310 C.3    62  ASN62       0.1688
     57  C         63.3950   53.3470   25.4300 C.2    62  ASN62       0.2292
     58  O         62.8450   53.0380   26.4850 O.2    62  ASN62      -0.2864
     59  CB        65.5090   52.1370   24.7290 C.3    62  ASN62       0.1181
     60  CG        66.2830   53.2850   24.1200 C.2    62  ASN62       0.2629
     61  OD1       66.1000   53.6250   22.9530 O.2    62  ASN62      -0.2716
     62  ND2       67.1750   53.8820   24.9090 N.am   62  ASN62      -0.0877
     63  N         59.5090   52.8740   25.6100 N.3    65  LEU65      -0.1231
     64  CA        59.0530   51.7980   26.4770 C.3    65  LEU65       0.1693
     65  C         59.2750   52.1240   27.9460 C.2    65  LEU65       0.2591
     66  O         58.4460   51.7890   28.7900 O.2    65  LEU65      -0.2718
     67  CB        59.7570   50.4790   26.1280 C.3    65  LEU65       0.0284
     68  CG        59.5360   49.8910   24.7320 C.3    65  LEU65       0.0019
     69  CD1       60.1250   48.4730   24.7090 C.3    65  LEU65       0.0001
     70  CD2       58.0470   49.8530   24.3970 C.3    65  LEU65       0.0001
     71  N         60.3940   52.7730   28.2540 N.am   66  ILE66      -0.1980
     72  CA        60.6890   53.1340   29.6370 C.3    66  ILE66       0.1595
     73  C         59.6460   54.1220   30.1740 C.2    66  ILE66       0.2287
     74  O         59.1570   53.9780   31.2940 O.2    66  ILE66      -0.2864
     75  CB        62.1080   53.7270   29.7530 C.3    66  ILE66       0.0276
     76  CG1       63.1430   52.6080   29.5330 C.3    66  ILE66       0.0022
     77  CG2       62.3070   54.3580   31.1250 C.3    66  ILE66       0.0022
     78  CD1       64.5850   53.1010   29.4010 C.3    66  ILE66       0.0001
     79  N         56.6040   54.4360   29.2420 N.3    68  SER68      -0.1202
     80  CA        55.3650   53.6860   29.4240 C.3    68  SER68       0.2020
     81  C         55.2810   52.8380   30.6950 C.2    68  SER68       0.2618
     82  O         54.3070   52.9450   31.4360 O.2    68  SER68      -0.2717
     83  CB        55.1010   52.7950   28.2040 C.3    68  SER68       0.2103
     84  OG        54.7900   53.5780   27.0650 O.3    68  SER68      -0.2182
     85  N         56.2690   51.9900   30.9620 N.am   69  PHE69      -0.1975
     86  CA        56.1680   51.1750   32.1740 C.3    69  PHE69       0.1639
     87  C         56.3940   52.0100   33.4280 C.2    69  PHE69       0.2290
     88  O         55.9050   51.6690   34.5070 O.2    69  PHE69      -0.2864
     89  CB        57.0970   49.9370   32.1160 C.3    69  PHE69       0.0560
     90  CG        58.5650   50.2210   32.3350 C.ar   69  PHE69      -0.0200
     91  CD1       59.0380   50.6500   33.5700 C.ar   69  PHE69      -0.0042
     92  CD2       59.4840   49.9870   31.3140 C.ar   69  PHE69      -0.0042
     93  CE1       60.4050   50.8400   33.7900 C.ar   69  PHE69      -0.0003
     94  CE2       60.8530   50.1730   31.5220 C.ar   69  PHE69      -0.0003
     95  CZ        61.3120   50.5990   32.7630 C.ar   69  PHE69      -0.0000
     96  N         53.0630   53.4650   34.1930 N.3    72  ARG72      -0.1245
     97  CA        52.2050   52.3740   34.6250 C.3    72  ARG72       0.1563
     98  C         52.5030   52.0300   36.0870 C.2    72  ARG72       0.2260
     99  O         51.6160   51.6060   36.8270 O.2    72  ARG72      -0.2867
    100  CB        52.4550   51.1430   33.7470 C.3    72  ARG72       0.0307
    101  CG        51.6160   49.9250   34.1030 C.3    72  ARG72       0.0489
    102  CD        52.0970   48.6960   33.3410 C.3    72  ARG72       0.2205
    103  NE        52.1570   48.9430   31.9050 N.pl3  72  ARG72      -0.0865
    104  CZ        53.1970   48.6350   31.1350 C.cat  72  ARG72       0.5346
    105  NH1       54.2760   48.0660   31.6620 N.pl3  72  ARG72       0.1354
    106  NH2       53.1620   48.9060   29.8410 N.pl3  72  ARG72       0.1354
    107  N         58.3370   48.1340   39.6910 N.3    80  ILE80      -0.1245
    108  CA        57.6400   48.4290   38.4510 C.3    80  ILE80       0.1561
    109  C         56.7290   47.2870   38.0410 C.2    80  ILE80       0.2260
    110  O         56.9390   46.1360   38.4320 O.2    80  ILE80      -0.2867
    111  CB        58.6390   48.7070   37.3050 C.3    80  ILE80       0.0252
    112  CG1       59.4580   47.4520   36.9980 C.3    80  ILE80       0.0019
    113  CG2       59.5750   49.8340   37.7070 C.3    80  ILE80       0.0019
    114  CD1       60.4310   47.6130   35.8190 C.3    80  ILE80       0.0001
    115  N         55.4280   45.1860   34.9240 N.3    82  LEU82      -0.1231
    116  CA        55.7440   44.8710   33.5400 C.3    82  LEU82       0.1693
    117  C         54.4560   44.6320   32.7600 C.2    82  LEU82       0.2591
    118  O         53.4320   44.2750   33.3400 O.2    82  LEU82      -0.2718
    119  CB        56.6310   43.6240   33.4720 C.3    82  LEU82       0.0284
    120  CG        57.8860   43.6240   34.3510 C.3    82  LEU82       0.0019
    121  CD1       58.6680   42.3340   34.1040 C.3    82  LEU82       0.0001
    122  CD2       58.7540   44.8470   34.0370 C.3    82  LEU82       0.0001
    123  N         54.5080   44.8240   31.4470 N.am   83  ALA83      -0.1980
    124  CA        53.3290   44.6200   30.6070 C.3    83  ALA83       0.1597
    125  C         52.8360   43.1750   30.6590 C.2    83  ALA83       0.2287
    126  O         51.7050   42.8820   30.2720 O.2    83  ALA83      -0.2864
    127  CB        53.6380   45.0090   29.1730 C.3    83  ALA83       0.0319
    128  N         71.2930   44.7670   39.2100 N.3    98  VAL98      -0.1245
    129  CA        70.8930   45.9470   38.4450 C.3    98  VAL98       0.1561
    130  C         70.1520   46.9770   39.2920 C.2    98  VAL98       0.2260
    131  O         69.2770   47.6830   38.7960 O.2    98  VAL98      -0.2867
    132  CB        70.0040   45.5610   37.2400 C.3    98  VAL98       0.0252
    133  CG1       70.8090   44.7140   36.2560 C.3    98  VAL98       0.0019
    134  CG2       68.7770   44.7980   37.7140 C.3    98  VAL98       0.0019
    135  N         70.6110   51.1890   38.1650 N.3   101  ILE101     -0.1231
    136  CA        69.7410   51.7110   37.1130 C.3   101  ILE101      0.1692
    137  C         68.2690   51.6360   37.5360 C.2   101  ILE101      0.2592
    138  O         67.4880   52.5450   37.2490 O.2   101  ILE101     -0.2718
    139  CB        69.9570   50.9630   35.7550 C.3   101  ILE101      0.0266
    140  CG1       69.1650   51.6600   34.6410 C.3   101  ILE101      0.0019
    141  CG2       69.5200   49.5080   35.8600 C.3   101  ILE101      0.0020
    142  CD1       69.5730   53.0980   34.4030 C.3   101  ILE101      0.0001
    143  N         67.8960   50.5650   38.2380 N.am  102  PHE102     -0.1976
    144  CA        66.5160   50.4040   38.7000 C.3   102  PHE102      0.1639
    145  C         66.1220   51.5840   39.5910 C.2   102  PHE102      0.2290
    146  O         65.0270   52.1430   39.4520 O.2   102  PHE102     -0.2864
    147  CB        66.3610   49.1040   39.4980 C.3   102  PHE102      0.0560
    148  CG        64.9360   48.6440   39.6310 C.ar  102  PHE102     -0.0200
    149  CD1       64.3230   47.9360   38.6010 C.ar  102  PHE102     -0.0042
    150  CD2       64.2060   48.9200   40.7790 C.ar  102  PHE102     -0.0042
    151  CE1       62.9980   47.5080   38.7150 C.ar  102  PHE102     -0.0003
    152  CE2       62.8810   48.4990   40.9050 C.ar  102  PHE102     -0.0003
    153  CZ        62.2740   47.7910   39.8740 C.ar  102  PHE102     -0.0000
    154  N         65.3390   54.7520   37.6540 N.3   105  VAL105     -0.1245
    155  CA        63.9920   54.7270   37.0750 C.3   105  VAL105      0.1561
    156  C         62.9570   55.1190   38.1310 C.2   105  VAL105      0.2260
    157  O         62.0740   55.9410   37.8720 O.2   105  VAL105     -0.2867
    158  CB        63.6290   53.3300   36.5220 C.3   105  VAL105      0.0252
    159  CG1       62.1730   53.3150   36.0490 C.3   105  VAL105      0.0019
    160  CG2       64.5520   52.9730   35.3670 C.3   105  VAL105      0.0019
    161  N         70.1470   51.8570   30.0790 N.3   188  CYS188     -0.1235
    162  CA        69.4390   50.5990   29.9000 C.3   188  CYS188      0.1677
    163  C         69.9370   49.8930   28.6450 C.2   188  CYS188      0.2270
    164  O         70.0530   48.6700   28.6180 O.2   188  CYS188     -0.2867
    165  CB        67.9380   50.8570   29.8250 C.3   188  CYS188      0.0956
    166  SG        67.2680   51.3530   31.4260 S.3   188  CYS188     -0.0801
    167  N         73.1460   48.1150   29.3750 N.3   191  HIS191     -0.1226
    168  CA        72.8940   46.8700   30.0960 C.3   191  HIS191      0.1752
    169  C         72.4750   45.7620   29.1250 C.2   191  HIS191      0.2595
    170  O         72.9350   44.6250   29.2340 O.2   191  HIS191     -0.2718
    171  CB        71.7960   47.0760   31.1540 C.3   191  HIS191      0.0759
    172  CG        72.2750   47.7500   32.4030 C.ar  191  HIS191      0.0818
    173  ND1       72.8850   47.0650   33.4310 N.ar  191  HIS191     -0.2268
    174  CD2       72.2620   49.0520   32.7770 C.ar  191  HIS191      0.1154
    175  CE1       73.2290   47.9140   34.3830 C.ar  191  HIS191      0.1986
    176  NE2       72.8630   49.1270   34.0110 N.ar  191  HIS191     -0.2212
    177  N         71.5990   46.1010   28.1810 N.am  192  LEU192     -0.1980
    178  CA        71.1150   45.1430   27.1880 C.3   192  LEU192      0.1596
    179  C         72.2450   44.6050   26.3210 C.2   192  LEU192      0.2287
    180  O         72.2880   43.4100   26.0220 O.2   192  LEU192     -0.2864
    181  CB        70.0600   45.7900   26.2870 C.3   192  LEU192      0.0297
    182  CG        68.6720   46.0030   26.8920 C.3   192  LEU192      0.0022
    183  CD1       67.8140   46.8340   25.9430 C.3   192  LEU192      0.0001
    184  CD2       68.0280   44.6500   27.1530 C.3   192  LEU192      0.0001
    185  N         74.1390   42.1560   28.4650 N.3   195  PHE195     -0.1241
    186  CA        73.4140   40.9010   28.6430 C.3   195  PHE195      0.1605
    187  C         73.5870   40.0630   27.3790 C.2   195  PHE195      0.2264
    188  O         73.7930   38.8490   27.4440 O.2   195  PHE195     -0.2867
    189  CB        71.9230   41.1640   28.8820 C.3   195  PHE195      0.0534
    190  CG        71.6320   41.9480   30.1350 C.ar  195  PHE195     -0.0203
    191  CD1       70.4730   42.7180   30.2300 C.ar  195  PHE195     -0.0042
    192  CD2       72.5080   41.9190   31.2170 C.ar  195  PHE195     -0.0042
    193  CE1       70.1930   43.4510   31.3840 C.ar  195  PHE195     -0.0003
    194  CE2       72.2360   42.6490   32.3750 C.ar  195  PHE195     -0.0003
    195  CZ        71.0750   43.4180   32.4580 C.ar  195  PHE195     -0.0000
@<TRIPOS>BOND
     1    47    49   ar
     2    47    46   ar
     3    49    50   ar
     4    45    46    1
     5    45    42    1
     6    41    42    1
     7    46    48   ar
     8    42    43    1
     9    50    48   ar
    10    50    52   ar
    11    48    51   ar
    12    35    34    2
    13    52    54   ar
    14    43    55   am
    15    43    44    2
    16    34    33    1
    17    51    53   ar
    18    61    60    2
    19    55    56    1
    20    54    53   ar
    21    33    32    1
    22    33    36    1
    23    30    29    2
    24    60    59    1
    25    60    62   am
    26    70    68    1
    27    56    59    1
    28    56    57    1
    29    69    68    1
    30    68    67    1
    31    29    28    1
    32    36    37    1
    33    57    58    2
    34    63    64    1
    35    39    38    2
    36   183   182    1
    37   180   179    2
    38    67    64    1
    39    38    40   am
    40    38    37    1
    41   181   182    1
    42   181   178    1
    43   179   178    1
    44    28    31    1
    45    28    27    1
    46    64    65    1
    47    19    18    2
    48    25    24    2
    49   182   184    1
    50    84    83    1
    51   178   177    1
    52    27    24   am
    53   187   188    2
    54   187   186    1
    55    24    23    1
    56    18    17    1
    57    65    71   am
    58    65    66    2
    59   177   169   am
    60    83    80    1
    61    71    72    1
    62    20    17    1
    63    20    21    1
    64   185   186    1
    65    17    16    1
    66    23    22    1
    67    23    26    1
    68   164   163    2
    69   186   189    1
    70   163   162    1
    71   189   190    1
    72   169   170    2
    73   169   168    1
    74   127   124    1
    75    79    80    1
    76   167   168    1
    77    78    76    1
    78    80    81    1
    79    76    75    1
    80    11    10    2
    81    72    75    1
    82    72    73    1
    83    75    77    1
    84   165   162    1
    85   165   166    1
    86   106   104    1
    87   162   161    1
    88    16    10   am
    89   168   171    1
    90   190   191   ar
    91   190   192   ar
    92    73    74    2
    93   191   193   ar
    94   126   125    2
    95    10     9    1
    96   124   125    1
    97   124   123    1
    98    81    85   am
    99    81    82    2
   100    85    86    1
   101   104   105    1
   102   104   103    2
   103   171   172    1
   104   192   194   ar
   105    92    94   ar
   106    92    90   ar
   107   193   195   ar
   108   123   117   am
   109    94    95   ar
   110    14    12    1
   111   103   102    1
   112     9     8    1
   113     9    12    1
   114     4     3    2
   115    89    86    1
   116    89    90    1
   117    86    87    1
   118    90    91   ar
   119   194   195   ar
   120   172   174   ar
   121   172   173   ar
   122    12    13    1
   123     6     5    1
   124   117   118    2
   125   117   116    1
   126    95    93   ar
   127   174   176   ar
   128     3     2    1
   129   102   101    1
   130    87    88    2
   131   173   175   ar
   132   119   116    1
   133   119   120    1
   134   116   115    1
   135    91    93   ar
   136   100   101    1
   137   100    97    1
   138   176   175   ar
   139    13    15    1
   140   122   120    1
   141     5     2    1
   142     5     7    1
   143     2     1    1
   144   121   120    1
   145    96    97    1
   146   142   140    1
   147    97    98    1
   148   140   139    1
   149   160   158    1
   150   139   141    1
   151   139   136    1
   152   114   112    1
   153   159   158    1
   154    98    99    2
   155   133   132    1
   156   158   155    1
   157   112   111    1
   158   155   154    1
   159   155   156    1
   160   136   137    1
   161   136   135    1
   162   132   134    1
   163   132   129    1
   164   138   137    2
   165   111   113    1
   166   111   108    1
   167   137   143   am
   168   157   156    2
   169   109   110    2
   170   109   108    1
   171   143   144    1
   172   129   128    1
   173   129   130    1
   174   108   107    1
   175   149   151   ar
   176   149   148   ar
   177   144   147    1
   178   144   145    1
   179   151   153   ar
   180   131   130    2
   181   146   145    2
   182   147   148    1
   183   148   150   ar
   184   153   152   ar
   185   150   152   ar
