@<TRIPOS>MOLECULE
tmp/4pp6B01.pdb
 153 140 0 0 0
SMALL
GASTEIGER

@<TRIPOS>ATOM
      1  N         21.0870   28.5670   40.5430 N.3    35  MET35      -0.1245
      2  CA        21.0810   27.2490   39.9050 C.3    35  MET35       0.1570
      3  C         20.4900   26.1900   40.8260 C.2    35  MET35       0.2261
      4  O         19.7650   25.2950   40.3800 O.2    35  MET35      -0.2867
      5  CB        22.4930   26.8320   39.4810 C.3    35  MET35       0.0387
      6  CG        22.8580   27.2100   38.0570 C.3    35  MET35       0.0595
      7  SD        21.8950   26.3000   36.8160 S.3    35  MET35      -0.1393
      8  CE        22.6870   24.6910   36.8640 C.3    35  MET35       0.0692
      9  N         16.6030   26.6250   40.7990 N.3    38  LEU38      -0.1231
     10  CA        15.9790   26.1800   39.5620 C.3    38  LEU38       0.1693
     11  C         15.9800   24.6630   39.4110 C.2    38  LEU38       0.2592
     12  O         14.9660   24.0800   39.0840 O.2    38  LEU38      -0.2718
     13  CB        16.6510   26.8250   38.3470 C.3    38  LEU38       0.0284
     14  CG        16.5320   28.3420   38.2070 C.3    38  LEU38       0.0019
     15  CD1       16.9350   28.7500   36.8010 C.3    38  LEU38       0.0001
     16  CD2       15.1290   28.8020   38.5120 C.3    38  LEU38       0.0001
     17  N         17.1260   24.0380   39.6560 N.am   39  THR39      -0.1953
     18  CA        17.2670   22.5970   39.5080 C.3    39  THR39       0.1897
     19  C         16.5310   21.8660   40.6260 C.2    39  THR39       0.2313
     20  O         15.9600   20.8000   40.4140 O.2    39  THR39      -0.2863
     21  CB        18.7430   22.1740   39.5110 C.3    39  THR39       0.1794
     22  OG1       19.3770   22.6050   40.7330 O.3    39  THR39      -0.2208
     23  CG2       19.4710   22.7610   38.3070 C.3    39  THR39       0.0378
     24  N         13.8910   23.0440   42.1710 N.3    41  LEU41      -0.1231
     25  CA        12.4940   23.1760   41.7900 C.3    41  LEU41       0.1693
     26  C         12.1500   22.1500   40.7150 C.2    41  LEU41       0.2591
     27  O         11.1150   21.4740   40.7860 O.2    41  LEU41      -0.2718
     28  CB        12.1890   24.5870   41.3040 C.3    41  LEU41       0.0284
     29  CG        10.7390   24.7390   40.8630 C.3    41  LEU41       0.0019
     30  CD1        9.7970   24.5310   42.0490 C.3    41  LEU41       0.0001
     31  CD2       10.5160   26.0900   40.1920 C.3    41  LEU41       0.0001
     32  N         13.0350   22.0330   39.7290 N.am   42  ALA42      -0.1980
     33  CA        12.8530   21.0870   38.6300 C.3    42  ALA42       0.1597
     34  C         12.7500   19.6450   39.1280 C.2    42  ALA42       0.2287
     35  O         11.8740   18.9020   38.7020 O.2    42  ALA42      -0.2864
     36  CB        13.9900   21.2250   37.6050 C.3    42  ALA42       0.0319
     37  N          9.2680   19.1420   40.7150 N.3    45  GLU45      -0.1245
     38  CA         8.2150   19.1540   39.7110 C.3    45  GLU45       0.1567
     39  C          8.1850   17.8390   38.9450 C.2    45  GLU45       0.2260
     40  O          7.1160   17.3430   38.5730 O.2    45  GLU45      -0.2867
     41  CB         8.4100   20.2940   38.7130 C.3    45  GLU45       0.0388
     42  CG         8.0470   21.6620   39.2380 C.3    45  GLU45       0.1160
     43  CD         7.5300   22.5500   38.1270 C.2    45  GLU45       0.3649
     44  OE1        8.2930   23.4010   37.6440 O.co2  45  GLU45      -0.2457
     45  OE2        6.3530   22.3960   37.7240 O.co2  45  GLU45      -0.2457
     46  N         11.7810   18.0050   29.9500 N.3    76  LEU76      -0.1245
     47  CA        12.1390   19.4210   29.9890 C.3    76  LEU76       0.1561
     48  C         11.1710   20.2480   29.1260 C.2    76  LEU76       0.2260
     49  O         10.8300   21.3960   29.4530 O.2    76  LEU76      -0.2867
     50  CB        13.6120   19.6290   29.5840 C.3    76  LEU76       0.0270
     51  CG        14.1410   21.0640   29.6880 C.3    76  LEU76       0.0019
     52  CD1       13.9210   21.5970   31.1060 C.3    76  LEU76       0.0001
     53  CD2       15.6170   21.1740   29.2620 C.3    76  LEU76       0.0001
     54  N          8.2610   20.6310   31.3540 N.3    79  LEU79      -0.1231
     55  CA         8.6230   21.5970   32.3900 C.3    79  LEU79       0.1693
     56  C          8.5400   23.0300   31.8580 C.2    79  LEU79       0.2591
     57  O          8.0350   23.9250   32.5330 O.2    79  LEU79      -0.2718
     58  CB        10.0290   21.3230   32.9500 C.3    79  LEU79       0.0284
     59  CG        10.1920   20.2790   34.0710 C.3    79  LEU79       0.0019
     60  CD1       11.5770   20.3610   34.7330 C.3    79  LEU79       0.0001
     61  CD2        9.0960   20.4120   35.1150 C.3    79  LEU79       0.0001
     62  N          9.0270   23.2350   30.6360 N.am   80  MET80      -0.1979
     63  CA         9.1310   24.5710   30.0680 C.3    80  MET80       0.1605
     64  C          7.7920   25.1640   29.6220 C.2    80  MET80       0.2287
     65  O          7.5400   26.3540   29.8550 O.2    80  MET80      -0.2864
     66  CB        10.1540   24.5920   28.9300 C.3    80  MET80       0.0413
     67  CG        11.6230   24.4980   29.4070 C.3    80  MET80       0.0598
     68  SD        12.7950   24.5370   28.0220 S.3    80  MET80      -0.1393
     69  CE        14.3250   25.0210   28.8080 C.3    80  MET80       0.0692
     70  N          6.1930   26.3700   32.6250 N.3    83  LEU83      -0.1245
     71  CA         6.7900   27.6540   33.0000 C.3    83  LEU83       0.1561
     72  C          6.2530   28.8190   32.1570 C.2    83  LEU83       0.2260
     73  O          5.8450   29.8720   32.6730 O.2    83  LEU83      -0.2867
     74  CB         8.3150   27.5770   32.8500 C.3    83  LEU83       0.0270
     75  CG         9.0920   28.8770   33.0590 C.3    83  LEU83       0.0019
     76  CD1        8.8810   29.3890   34.4920 C.3    83  LEU83       0.0001
     77  CD2       10.5900   28.6830   32.7360 C.3    83  LEU83       0.0001
     78  N          2.7120   29.6150   33.0210 N.3    86  ARG86      -0.1245
     79  CA         2.6140   30.3560   34.2720 C.3    86  ARG86       0.1563
     80  C          3.0250   31.8150   34.1290 C.2    86  ARG86       0.2260
     81  O          2.5230   32.6730   34.8470 O.2    86  ARG86      -0.2867
     82  CB         3.4810   29.7110   35.3510 C.3    86  ARG86       0.0307
     83  CG         2.9930   28.3930   35.8280 C.3    86  ARG86       0.0489
     84  CD         3.7290   28.0200   37.1010 C.3    86  ARG86       0.2205
     85  NE         5.1710   27.9220   36.8980 N.pl3  86  ARG86      -0.0865
     86  CZ         5.8010   26.7840   36.6230 C.cat  86  ARG86       0.5346
     87  NH1        5.1120   25.6630   36.5040 N.pl3  86  ARG86       0.1354
     88  NH2        7.1170   26.7640   36.4650 N.pl3  86  ARG86       0.1354
     89  N          8.7360   30.8850   37.8470 N.3    96  PHE96      -0.1241
     90  CA         9.1590   29.5210   38.1760 C.3    96  PHE96       0.1605
     91  C          8.3120   28.9720   39.3100 C.2    96  PHE96       0.2264
     92  O          7.8780   27.8200   39.2600 O.2    96  PHE96      -0.2867
     93  CB        10.6290   29.4930   38.5820 C.3    96  PHE96       0.0534
     94  CG        11.5720   29.6620   37.4330 C.ar   96  PHE96      -0.0203
     95  CD1       12.0260   28.5550   36.7240 C.ar   96  PHE96      -0.0042
     96  CD2       12.0030   30.9300   37.0490 C.ar   96  PHE96      -0.0042
     97  CE1       12.9040   28.7070   35.6450 C.ar   96  PHE96      -0.0003
     98  CE2       12.8770   31.0920   35.9740 C.ar   96  PHE96      -0.0003
     99  CZ        13.3210   29.9780   35.2750 C.ar   96  PHE96      -0.0000
    100  N         22.4930   31.5510   30.8200 N.3   113  MET113     -0.1245
    101  CA        21.0970   31.3920   31.2020 C.3   113  MET113      0.1570
    102  C         20.1560   32.3980   30.5310 C.2   113  MET113      0.2261
    103  O         18.9810   32.1060   30.3080 O.2   113  MET113     -0.2867
    104  CB        20.9700   31.4610   32.7280 C.3   113  MET113      0.0387
    105  CG        19.5380   31.3160   33.2620 C.3   113  MET113      0.0595
    106  SD        18.8630   29.6470   33.0980 S.3   113  MET113     -0.1393
    107  CE        18.5800   29.5340   31.3400 C.3   113  MET113      0.0692
    108  N         18.5580   31.4620   27.2440 N.3   116  ILE116     -0.1245
    109  CA        17.4430   30.5580   27.4310 C.3   116  ILE116      0.1561
    110  C         16.2260   31.3180   27.9520 C.2   116  ILE116      0.2260
    111  O         15.1160   31.0920   27.4840 O.2   116  ILE116     -0.2867
    112  CB        17.8330   29.3760   28.3380 C.3   116  ILE116      0.0252
    113  CG1       18.8750   28.5210   27.6090 C.3   116  ILE116      0.0019
    114  CG2       16.6130   28.5470   28.7070 C.3   116  ILE116      0.0019
    115  CD1       19.5120   27.4760   28.4660 C.3   116  ILE116      0.0001
    116  N         12.2760   31.7080   26.4340 N.3   120  LEU120     -0.1245
    117  CA        11.1170   31.4010   27.2670 C.3   120  LEU120      0.1561
    118  C         10.1750   32.5980   27.3480 C.2   120  LEU120      0.2260
    119  O          8.9480   32.4310   27.2820 O.2   120  LEU120     -0.2867
    120  CB        11.5410   30.9450   28.6650 C.3   120  LEU120      0.0270
    121  CG        12.1800   29.5580   28.7170 C.3   120  LEU120      0.0019
    122  CD1       12.8240   29.2990   30.0840 C.3   120  LEU120      0.0001
    123  CD2       11.1540   28.4680   28.3740 C.3   120  LEU120      0.0001
    124  N         18.0580   23.9740   26.5740 N.3   203  GLY203     -0.1225
    125  CA        18.0530   23.8190   28.0120 C.3   203  GLY203      0.1811
    126  C         18.8520   22.5970   28.4330 C.2   203  GLY203      0.2280
    127  O         19.5810   22.6390   29.4290 O.2   203  GLY203     -0.2866
    128  N         22.6480   23.1920   28.2930 N.3   206  HIS206     -0.1226
    129  CA        23.0880   24.1190   29.3250 C.3   206  HIS206      0.1752
    130  C         23.1060   23.4220   30.6650 C.2   206  HIS206      0.2595
    131  O         24.0440   23.5650   31.4510 O.2   206  HIS206     -0.2718
    132  CB        22.1450   25.3170   29.3870 C.3   206  HIS206      0.0759
    133  CG        22.5150   26.3250   30.4290 C.ar  206  HIS206      0.0818
    134  ND1       21.8130   26.4730   31.6050 N.ar  206  HIS206     -0.2268
    135  CD2       23.5090   27.2460   30.4670 C.ar  206  HIS206      0.1154
    136  CE1       22.3570   27.4390   32.3240 C.ar  206  HIS206      0.1986
    137  NE2       23.3870   27.9230   31.6560 N.ar  206  HIS206     -0.2212
    138  N         22.0500   22.6620   30.9190 N.am  207  LEU207     -0.1980
    139  CA        21.9580   21.8820   32.1380 C.3   207  LEU207      0.1596
    140  C         23.1460   20.9210   32.2080 C.2   207  LEU207      0.2287
    141  O         23.7400   20.7060   33.2700 O.2   207  LEU207     -0.2864
    142  CB        20.6510   21.1060   32.1570 C.3   207  LEU207      0.0297
    143  CG        20.1740   20.6740   33.5260 C.3   207  LEU207      0.0022
    144  CD1       20.1630   21.9060   34.4040 C.3   207  LEU207      0.0001
    145  CD2       18.7830   20.0690   33.4220 C.3   207  LEU207      0.0001
    146  N         26.3330   22.5030   33.0090 N.3   210  MET210     -0.1245
    147  CA        26.3190   22.8820   34.4150 C.3   210  MET210      0.1570
    148  C         26.6730   21.6910   35.3010 C.2   210  MET210      0.2261
    149  O         27.3430   21.8480   36.3310 O.2   210  MET210     -0.2867
    150  CB        24.9750   23.5010   34.8140 C.3   210  MET210      0.0387
    151  CG        24.8050   24.9600   34.3600 C.3   210  MET210      0.0595
    152  SD        26.1720   26.0290   34.8740 S.3   210  MET210     -0.1393
    153  CE        25.6180   27.6200   34.2720 C.3   210  MET210      0.0692
@<TRIPOS>BOND
     1   116   117    1
     2   124   125    1
     3   108   109    1
     4   117   118    1
     5   117   120    1
     6   119   118    2
     7   109   110    1
     8   109   112    1
     9   111   110    2
    10   113   112    1
    11   113   115    1
    12   125   126    1
    13    68    69    1
    14    68    67    1
    15   128   129    1
    16   112   114    1
    17   123   121    1
    18   126   127    2
    19   120   121    1
    20   121   122    1
    21    66    67    1
    22    66    63    1
    23    48    49    2
    24    48    47    1
    25    53    51    1
    26   129   132    1
    27   129   130    1
    28   132   133    1
    29    50    51    1
    30    50    47    1
    31    64    65    2
    32    64    63    1
    33    51    52    1
    34    46    47    1
    35    63    62    1
    36   103   102    2
    37   133   135   ar
    38   133   134   ar
    39   135   137   ar
    40   102   101    1
    41    62    56   am
    42   130   138   am
    43   130   131    2
    44   100   101    1
    45   138   139    1
    46   101   104    1
    47   107   106    1
    48    54    55    1
    49   134   136   ar
    50   137   136   ar
    51    56    55    1
    52    56    57    2
    53   139   142    1
    54   139   140    1
    55    72    73    2
    56    72    71    1
    57   142   143    1
    58   140   141    2
    59    55    58    1
    60    70    71    1
    61   104   105    1
    62    77    75    1
    63    74    71    1
    64    74    75    1
    65    58    59    1
    66   146   147    1
    67    78    79    1
    68    75    76    1
    69   106   105    1
    70   145   143    1
    71   143   144    1
    72    59    60    1
    73    59    61    1
    74    80    79    1
    75    80    81    2
    76   153   152    1
    77    79    82    1
    78   151   150    1
    79   151   152    1
    80   147   150    1
    81   147   148    1
    82    99    97   ar
    83    99    98   ar
    84   148   149    2
    85    82    83    1
    86    97    95   ar
    87    83    84    1
    88    98    96   ar
    89    88    86    1
    90    87    86    1
    91    86    85    2
    92    95    94   ar
    93    15    14    1
    94     7     8    1
    95     7     6    1
    96    85    84    1
    97    96    94   ar
    98    94    93    1
    99    36    33    1
   100    44    43   ar
   101    45    43   ar
   102    89    90    1
   103     6     5    1
   104    43    42    1
   105    90    93    1
   106    90    91    1
   107    14    13    1
   108    14    16    1
   109    23    21    1
   110    13    10    1
   111    40    39    2
   112    33    34    1
   113    33    32    1
   114    35    34    2
   115    41    42    1
   116    41    38    1
   117    39    38    1
   118    12    11    2
   119    92    91    2
   120    11    10    1
   121    11    17   am
   122     5     2    1
   123    18    21    1
   124    18    17    1
   125    18    19    1
   126    21    22    1
   127    10     9    1
   128    38    37    1
   129    32    26   am
   130     2     1    1
   131     2     3    1
   132    31    29    1
   133     4     3    2
   134    20    19    2
   135    26    27    2
   136    26    25    1
   137    29    28    1
   138    29    30    1
   139    28    25    1
   140    25    24    1
