@<TRIPOS>MOLECULE
tmp/4pp7A00.pdb
 172 164 0 0 0
SMALL
GASTEIGER

@<TRIPOS>ATOM
      1  N         12.3170  -20.4990    5.7260 N.3    16  ILE16      -0.1245
      2  CA        12.7390  -19.6620    4.6070 C.3    16  ILE16       0.1561
      3  C         11.7060  -19.5690    3.4730 C.2    16  ILE16       0.2260
      4  O         11.4480  -18.4820    2.9550 O.2    16  ILE16      -0.2867
      5  CB        14.1570  -20.0510    4.0950 C.3    16  ILE16       0.0252
      6  CG1       14.7600  -18.9380    3.2150 C.3    16  ILE16       0.0019
      7  CG2       14.1560  -21.4180    3.4120 C.3    16  ILE16       0.0019
      8  CD1       15.1900  -17.6910    3.9700 C.3    16  ILE16       0.0001
      9  N          1.7760  -24.2540   -3.0680 N.3    21  PHE21      -0.1241
     10  CA         2.4570  -25.5670   -3.1730 C.3    21  PHE21       0.1605
     11  C          2.9460  -26.1970   -1.8530 C.2    21  PHE21       0.2264
     12  O          2.6980  -27.3780   -1.6080 O.2    21  PHE21      -0.2867
     13  CB         3.5440  -25.5860   -4.2820 C.3    21  PHE21       0.0534
     14  CG         4.8030  -24.8140   -3.9520 C.ar   21  PHE21      -0.0203
     15  CD1        5.8840  -25.4410   -3.3280 C.ar   21  PHE21      -0.0042
     16  CD2        4.9300  -23.4690   -4.3010 C.ar   21  PHE21      -0.0042
     17  CE1        7.0470  -24.7370   -3.0310 C.ar   21  PHE21      -0.0003
     18  CE2        6.0890  -22.7620   -4.0030 C.ar   21  PHE21      -0.0003
     19  CZ         7.1500  -23.3960   -3.3700 C.ar   21  PHE21      -0.0000
     20  N          8.8480  -24.1580    2.8820 N.3    24  VAL24      -0.1245
     21  CA        10.2120  -24.6980    2.8560 C.3    24  VAL24       0.1561
     22  C         11.0490  -24.2860    4.0800 C.2    24  VAL24       0.2260
     23  O         11.2910  -23.0960    4.3230 O.2    24  VAL24      -0.2867
     24  CB        10.9390  -24.3300    1.5360 C.3    24  VAL24       0.0252
     25  CG1       12.3810  -24.8160    1.5360 C.3    24  VAL24       0.0019
     26  CG2       10.1950  -24.8930    0.3350 C.3    24  VAL24       0.0019
     27  N         17.1200  -29.6060    3.1940 N.3    34  ALA34      -0.1245
     28  CA        15.9710  -28.7640    2.9250 C.3    34  ALA34       0.1562
     29  C         14.7250  -29.6270    3.0340 C.2    34  ALA34       0.2260
     30  O         14.6750  -30.7350    2.4830 O.2    34  ALA34      -0.2867
     31  CB        16.0750  -28.1410    1.5480 C.3    34  ALA34       0.0290
     32  N         10.6010  -29.4740    2.3880 N.3    36  LYS36      -0.1245
     33  CA         9.4580  -28.7840    1.8020 C.3    36  LYS36       0.1561
     34  C          8.1840  -29.4410    2.3010 C.2    36  LYS36       0.2260
     35  O          7.6940  -30.4140    1.7190 O.2    36  LYS36      -0.2867
     36  CB         9.5240  -28.8000    0.2690 C.3    36  LYS36       0.0271
     37  CG         8.4420  -27.9790   -0.4250 C.3    36  LYS36       0.0035
     38  CD         8.7030  -27.8130   -1.9160 C.3    36  LYS36       0.0206
     39  CE         8.3190  -29.0550   -2.7080 C.3    36  LYS36       0.1093
     40  NZ         8.6810  -28.9130   -4.1450 N.3    36  LYS36      -0.1314
     41  N         10.5430  -38.1910   -8.6240 N.3    58  LEU58      -0.1245
     42  CA        11.8010  -37.6230   -8.1260 C.3    58  LEU58       0.1561
     43  C         12.9240  -38.6570   -8.0640 C.2    58  LEU58       0.2260
     44  O         14.0750  -38.3510   -8.3740 O.2    58  LEU58      -0.2867
     45  CB        11.6040  -36.9840   -6.7460 C.3    58  LEU58       0.0270
     46  CG        10.4830  -35.9600   -6.5490 C.3    58  LEU58       0.0019
     47  CD1       10.4740  -35.4530   -5.1170 C.3    58  LEU58       0.0001
     48  CD2       10.6160  -34.8000   -7.5200 C.3    58  LEU58       0.0001
     49  N         15.5720  -39.3350  -10.8070 N.3    61  THR61      -0.1218
     50  CA        16.5810  -38.3040  -11.0570 C.3    61  THR61       0.1862
     51  C         17.8500  -38.4870  -10.2210 C.2    61  THR61       0.2287
     52  O         17.7960  -38.5450   -8.9920 O.2    61  THR61      -0.2866
     53  CB        16.0170  -36.8770  -10.8300 C.3    61  THR61       0.1770
     54  OG1       15.9540  -36.5890   -9.4280 O.3    61  THR61      -0.2211
     55  CG2       14.6290  -36.7320  -11.4270 C.3    61  THR61       0.0375
     56  N         18.5430  -30.9860   -8.3900 N.3    67  LEU67      -0.1245
     57  CA        18.4900  -31.0100   -6.9230 C.3    67  LEU67       0.1561
     58  C         18.4040  -32.4400   -6.3800 C.2    67  LEU67       0.2260
     59  O         17.6390  -33.2630   -6.8930 O.2    67  LEU67      -0.2867
     60  CB        17.3020  -30.1880   -6.4300 C.3    67  LEU67       0.0270
     61  CG        17.2610  -29.8110   -4.9530 C.3    67  LEU67       0.0019
     62  CD1       18.3600  -28.8100   -4.6310 C.3    67  LEU67       0.0001
     63  CD2       15.9010  -29.2320   -4.6040 C.3    67  LEU67       0.0001
     64  N         17.2150  -35.2810   -4.4940 N.3    69  PHE69      -0.1241
     65  CA        16.1570  -35.8420   -3.6780 C.3    69  PHE69       0.1605
     66  C         16.7920  -36.7950   -2.6760 C.2    69  PHE69       0.2264
     67  O         17.4160  -37.7820   -3.0630 O.2    69  PHE69      -0.2867
     68  CB        15.1220  -36.5660   -4.5450 C.3    69  PHE69       0.0534
     69  CG        14.2240  -37.4850   -3.7680 C.ar   69  PHE69      -0.0203
     70  CD1       13.3250  -36.9780   -2.8280 C.ar   69  PHE69      -0.0042
     71  CD2       14.2810  -38.8590   -3.9620 C.ar   69  PHE69      -0.0042
     72  CE1       12.5000  -37.8240   -2.1030 C.ar   69  PHE69      -0.0003
     73  CE2       13.4550  -39.7090   -3.2380 C.ar   69  PHE69      -0.0003
     74  CZ        12.5650  -39.1910   -2.3100 C.ar   69  PHE69      -0.0000
     75  N          8.8790  -33.2890    1.3500 N.3    80  ILE80      -0.1245
     76  CA        10.0210  -33.7610    0.5680 C.3    80  ILE80       0.1561
     77  C         11.2990  -33.1600    1.1460 C.2    80  ILE80       0.2260
     78  O         11.3740  -31.9570    1.4110 O.2    80  ILE80      -0.2867
     79  CB         9.9050  -33.3870   -0.9240 C.3    80  ILE80       0.0252
     80  CG1        8.7010  -34.0840   -1.5610 C.3    80  ILE80       0.0019
     81  CG2       11.1740  -33.7670   -1.6750 C.3    80  ILE80       0.0019
     82  CD1        8.2430  -33.4500   -2.8570 C.3    80  ILE80       0.0001
     83  N         15.3190  -32.5960    0.5120 N.3    82  THR82      -0.1203
     84  CA        16.4110  -32.5890   -0.4440 C.3    82  THR82       0.1994
     85  C         17.6700  -32.0620    0.2220 C.2    82  THR82       0.2618
     86  O         17.6430  -31.6480    1.3850 O.2    82  THR82      -0.2717
     87  CB        16.1000  -31.7100   -1.6690 C.3    82  THR82       0.1784
     88  OG1       16.0440  -30.3310   -1.2760 O.3    82  THR82      -0.2211
     89  CG2       14.7870  -32.1240   -2.3110 C.3    82  THR82       0.0376
     90  N         18.7700  -32.0860   -0.5260 N.am   83  GLN83      -0.1965
     91  CA        20.0070  -31.4480   -0.1090 C.3    83  GLN83       0.1733
     92  C         19.7690  -29.9620    0.1450 C.2    83  GLN83       0.2616
     93  O         18.8800  -29.3570   -0.4560 O.2    83  GLN83      -0.2715
     94  CB        21.0870  -31.6340   -1.1780 C.3    83  GLN83       0.0408
     95  CG        20.7160  -31.1190   -2.5640 C.3    83  GLN83       0.0908
     96  CD        21.9230  -30.9380   -3.4660 C.2    83  GLN83       0.2608
     97  OE1       21.9710  -31.4730   -4.5780 O.2    83  GLN83      -0.2717
     98  NE2       22.9100  -30.1820   -2.9910 N.am   83  GLN83      -0.0878
     99  N         20.5460  -29.3870    1.0560 N.am   84  TRP84      -0.1960
    100  CA        20.5500  -27.9450    1.2540 C.3    84  TRP84       0.1771
    101  C         21.6190  -27.3310    0.3530 C.2    84  TRP84       0.2619
    102  O         22.7310  -27.8570    0.2550 O.2    84  TRP84      -0.2715
    103  CB        20.8070  -27.5970    2.7220 C.3    84  TRP84       0.0590
    104  CG        20.9150  -26.1210    2.9750 C.ar   84  TRP84       0.0006
    105  CD1       22.0640  -25.3870    3.0790 C.ar   84  TRP84       0.0946
    106  CD2       19.8330  -25.1960    3.1420 C.ar   84  TRP84       0.0152
    107  NE1       21.7640  -24.0640    3.3050 N.ar   84  TRP84      -0.2442
    108  CE2       20.4030  -23.9190    3.3480 C.ar   84  TRP84       0.0810
    109  CE3       18.4370  -25.3220    3.1420 C.ar   84  TRP84       0.0012
    110  CZ2       19.6270  -22.7760    3.5500 C.ar   84  TRP84       0.0191
    111  CZ3       17.6650  -24.1840    3.3420 C.ar   84  TRP84       0.0001
    112  CH2       18.2640  -22.9280    3.5470 C.ar   84  TRP84       0.0015
    113  N         21.2730  -26.2310   -0.3100 N.am   85  CYS85      -0.1968
    114  CA        22.2000  -25.5380   -1.2010 C.3    85  CYS85       0.1712
    115  C         22.8120  -24.3350   -0.5110 C.2    85  CYS85       0.2296
    116  O         22.1060  -23.5340    0.1030 O.2    85  CYS85      -0.2864
    117  CB        21.4910  -25.0890   -2.4780 C.3    85  CYS85       0.0983
    118  SG        20.8470  -26.4420   -3.4860 S.3    85  CYS85      -0.0798
    119  N         24.4670  -20.7520   -0.7440 N.3    87  GLY87      -0.1210
    120  CA        24.3500  -19.6460   -1.6950 C.3    87  GLY87       0.1956
    121  C         22.9010  -19.3830   -2.0600 C.2    87  GLY87       0.2613
    122  O         21.9930  -19.9910   -1.4900 O.2    87  GLY87      -0.2717
    123  N         22.6820  -18.4870   -3.0190 N.am   88  SER88      -0.1938
    124  CA        21.3260  -18.0520   -3.3730 C.3    88  SER88       0.2055
    125  C         20.8300  -18.6380   -4.6960 C.2    88  SER88       0.2643
    126  O         21.5790  -19.3160   -5.4040 O.2    88  SER88      -0.2714
    127  CB        21.2580  -16.5220   -3.4150 C.3    88  SER88       0.2130
    128  OG        21.6300  -15.9570   -2.1700 O.3    88  SER88      -0.2179
    129  N         19.5630  -18.3800   -5.0150 N.am   89  SER89      -0.1949
    130  CA        19.0030  -18.7560   -6.3100 C.3    89  SER89       0.1924
    131  C         19.4040  -17.7420   -7.3800 C.2    89  SER89       0.2314
    132  O         19.7900  -16.6120   -7.0670 O.2    89  SER89      -0.2863
    133  CB        17.4800  -18.8560   -6.2380 C.3    89  SER89       0.2116
    134  OG        16.8770  -17.5750   -6.3050 O.3    89  SER89      -0.2180
    135  N         19.0110  -23.0040   -8.5590 N.3   136  PHE136     -0.1241
    136  CA        19.8160  -22.6770   -7.3800 C.3   136  PHE136      0.1605
    137  C         21.2990  -22.7380   -7.7140 C.2   136  PHE136      0.2264
    138  O         21.7480  -23.6450   -8.4170 O.2   136  PHE136     -0.2867
    139  CB        19.4750  -23.6040   -6.2050 C.3   136  PHE136      0.0534
    140  CG        18.0010  -23.6650   -5.8850 C.ar  136  PHE136     -0.0203
    141  CD1       17.3960  -22.6730   -5.1130 C.ar  136  PHE136     -0.0042
    142  CD2       17.2120  -24.7170   -6.3610 C.ar  136  PHE136     -0.0042
    143  CE1       16.0340  -22.7290   -4.8250 C.ar  136  PHE136     -0.0003
    144  CE2       15.8500  -24.7770   -6.0770 C.ar  136  PHE136     -0.0003
    145  CZ        15.2610  -23.7800   -5.3090 C.ar  136  PHE136     -0.0000
    146  N         15.2550  -27.2740   -9.4200 N.3   146  GLY146     -0.1210
    147  CA        14.2680  -27.8120   -8.4800 C.3   146  GLY146      0.1956
    148  C         12.8370  -27.3600   -8.7300 C.2   146  GLY146      0.2612
    149  O         12.5700  -26.6060   -9.6670 O.2   146  GLY146     -0.2717
    150  N         11.9230  -27.8280   -7.8780 N.am  147  ASP147     -0.1959
    151  CA        10.4840  -27.5350   -7.9670 C.3   147  ASP147      0.1840
    152  C          9.7600  -28.2080   -9.1370 C.2   147  ASP147      0.2622
    153  O          8.6110  -27.8840   -9.4260 O.2   147  ASP147     -0.2715
    154  CB        10.2050  -26.0250   -7.9450 C.3   147  ASP147      0.1450
    155  CG        10.0710  -25.4760   -6.5350 C.2   147  ASP147      0.3671
    156  OD1        9.3870  -26.1080   -5.6970 O.co2 147  ASP147     -0.2456
    157  OD2       10.6450  -24.4010   -6.2650 O.co2 147  ASP147     -0.2456
    158  N         10.4180  -29.1570   -9.7960 N.am  148  PHE148     -0.1960
    159  CA         9.7760  -29.8980  -10.8810 C.3   148  PHE148      0.1771
    160  C          8.8590  -30.9930  -10.3530 C.2   148  PHE148      0.2620
    161  O          7.9870  -31.4820  -11.0740 O.2   148  PHE148     -0.2715
    162  CB        10.7970  -30.4560  -11.8860 C.3   148  PHE148      0.0574
    163  CG        11.7390  -31.4790  -11.3150 C.ar  148  PHE148     -0.0200
    164  CD1       12.8940  -31.0850  -10.6430 C.ar  148  PHE148     -0.0042
    165  CD2       11.4930  -32.8340  -11.4830 C.ar  148  PHE148     -0.0042
    166  CE1       13.7700  -32.0240  -10.1260 C.ar  148  PHE148     -0.0003
    167  CE2       12.3650  -33.7790  -10.9690 C.ar  148  PHE148     -0.0003
    168  CZ        13.5050  -33.3740  -10.2880 C.ar  148  PHE148     -0.0000
    169  N          9.0530  -31.3660   -9.0920 N.am  149  GLY149     -0.1954
    170  CA         8.2240  -32.3780   -8.4460 C.3   149  GLY149      0.1869
    171  C          6.7720  -31.9740   -8.2820 C.2   149  GLY149      0.2309
    172  O          6.4260  -30.7930   -8.3790 O.2   149  GLY149     -0.2863
@<TRIPOS>BOND
     1   162   163    1
     2   162   159    1
     3   165   163   ar
     4   165   167   ar
     5    55    53    1
     6   163   164   ar
     7   161   160    2
     8    50    53    1
     9    50    49    1
    10    50    51    1
    11   167   168   ar
    12   159   160    1
    13   159   158    1
    14    53    54    1
    15   164   166   ar
    16   160   169   am
    17   168   166   ar
    18    51    52    2
    19   158   152   am
    20   149   148    2
    21   153   152    2
    22   146   147    1
    23   152   151    1
    24   169   170    1
    25   148   147    1
    26   148   150   am
    27    41    42    1
    28   135   136    1
    29   170   171    1
    30   138   137    2
    31    56    57    1
    32   172   171    2
    33    44    43    2
    34    42    43    1
    35    42    45    1
    36   151   154    1
    37   151   150    1
    38   154   155    1
    39   137   136    1
    40    48    46    1
    41   131   132    2
    42   131   130    1
    43   136   139    1
    44    57    60    1
    45    57    58    1
    46    59    58    2
    47    45    46    1
    48    46    47    1
    49   155   157   ar
    50   155   156   ar
    51    60    61    1
    52   142   144   ar
    53   142   140   ar
    54   130   133    1
    55   130   129    1
    56   134   133    1
    57   139   140    1
    58   144   145   ar
    59   140   141   ar
    60   126   125    2
    61   145   143   ar
    62   141   143   ar
    63   129   125   am
    64    61    62    1
    65    61    63    1
    66   125   124    1
    67    97    96    2
    68    68    69    1
    69    68    65    1
    70    64    65    1
    71    16    18   ar
    72    16    14   ar
    73    13    14    1
    74    13    10    1
    75    40    39    1
    76    18    19   ar
    77    71    69   ar
    78    71    73   ar
    79    14    15   ar
    80    69    70   ar
    81    65    66    1
    82   118   117    1
    83    96    98   am
    84    96    95    1
    85   127   124    1
    86   127   128    1
    87   124   123    1
    88    19    17   ar
    89    15    17   ar
    90    73    74   ar
    91    10     9    1
    92    10    11    1
    93    67    66    2
    94   123   121   am
    95    82    80    1
    96    70    72   ar
    97    39    38    1
    98    95    94    1
    99   117   114    1
   100    89    87    1
   101    74    72   ar
   102   121   120    1
   103   121   122    2
   104    38    37    1
   105    11    12    2
   106   120   119    1
   107    81    79    1
   108    87    88    1
   109    87    84    1
   110    80    79    1
   111   114   115    1
   112   114   113    1
   113    94    91    1
   114    79    76    1
   115    90    91    1
   116    90    85   am
   117   115   116    2
   118    93    92    2
   119    84    85    1
   120    84    83    1
   121    37    36    1
   122   113   101   am
   123    91    92    1
   124    92    99   am
   125    85    86    2
   126   102   101    2
   127    36    33    1
   128    26    24    1
   129   101   100    1
   130    76    77    1
   131    76    75    1
   132    99   100    1
   133    77    78    2
   134   100   103    1
   135    25    24    1
   136    24    21    1
   137    31    28    1
   138    35    34    2
   139    33    34    1
   140    33    32    1
   141    30    29    2
   142   103   104    1
   143    21    20    1
   144    21    22    1
   145    28    29    1
   146    28    27    1
   147     4     3    2
   148   104   105   ar
   149   104   106   ar
   150   105   107   ar
   151   106   109   ar
   152   106   108   ar
   153   109   111   ar
   154     6     8    1
   155     6     5    1
   156   107   108   ar
   157   111   112   ar
   158   108   110   ar
   159     7     5    1
   160     3     2    1
   161   112   110   ar
   162    22    23    2
   163     5     2    1
   164     2     1    1
