@<TRIPOS>MOLECULE
tmp/4pp9A00.pdb
 152 144 0 0 0
SMALL
GASTEIGER

@<TRIPOS>ATOM
      1  N        -22.0030    5.7890  -28.8840 N.3    12  GLN12      -0.1245
      2  CA       -21.7670    4.3580  -29.1290 C.3    12  GLN12       0.1566
      3  C        -20.9750    3.6560  -28.0060 C.2    12  GLN12       0.2260
      4  O        -20.3160    4.3170  -27.2070 O.2    12  GLN12      -0.2867
      5  CB       -21.1080    4.1200  -30.5090 C.3    12  GLN12       0.0367
      6  CG       -19.6430    4.5240  -30.6270 C.3    12  GLN12       0.0905
      7  CD       -19.2000    4.4900  -32.0660 C.2    12  GLN12       0.2608
      8  OE1      -19.1710    5.5200  -32.7450 O.2    12  GLN12      -0.2717
      9  NE2      -18.8600    3.3050  -32.5720 N.am   12  GLN12      -0.0878
     10  N        -17.8750    1.4210  -26.8350 N.3    14  ILE14      -0.1245
     11  CA       -16.4990    1.2910  -27.3540 C.3    14  ILE14       0.1561
     12  C        -15.5960    0.3240  -26.5430 C.2    14  ILE14       0.2260
     13  O        -14.4610    0.0610  -26.9550 O.2    14  ILE14      -0.2867
     14  CB       -15.8150    2.6880  -27.5460 C.3    14  ILE14       0.0252
     15  CG1      -15.7480    3.5000  -26.2280 C.3    14  ILE14       0.0019
     16  CG2      -16.4900    3.4920  -28.6870 C.3    14  ILE14       0.0019
     17  CD1      -14.7830    4.6680  -26.2360 C.3    14  ILE14       0.0001
     18  N        -17.4410    1.2390  -21.3460 N.3    22  VAL22      -0.1245
     19  CA       -16.9280    2.5030  -21.8640 C.3    22  VAL22       0.1561
     20  C        -17.7130    2.8670  -23.1350 C.2    22  VAL22       0.2260
     21  O        -17.9240    2.0200  -24.0040 O.2    22  VAL22      -0.2867
     22  CB       -15.3840    2.5080  -22.0540 C.3    22  VAL22       0.0252
     23  CG1      -14.8830    3.8650  -22.5530 C.3    22  VAL22       0.0019
     24  CG2      -14.6730    2.1260  -20.7570 C.3    22  VAL22       0.0019
     25  N        -18.4690    6.1210  -26.2000 N.3    24  LEU24      -0.1245
     26  CA       -18.0400    7.3330  -26.8840 C.3    24  LEU24       0.1561
     27  C        -19.2490    8.2570  -26.7780 C.2    24  LEU24       0.2260
     28  O        -20.3570    7.8690  -27.1530 O.2    24  LEU24      -0.2867
     29  CB       -17.6700    7.0810  -28.3690 C.3    24  LEU24       0.0270
     30  CG       -17.7800    8.2790  -29.3570 C.3    24  LEU24       0.0019
     31  CD1      -16.7160    9.3330  -29.0990 C.3    24  LEU24       0.0001
     32  CD2      -17.6860    7.8210  -30.7870 C.3    24  LEU24       0.0001
     33  N        -15.7390   15.7820  -26.8800 N.3    32  LYS32      -0.1245
     34  CA       -15.7850   14.3520  -27.1740 C.3    32  LYS32       0.1561
     35  C        -15.2550   13.6560  -25.9310 C.2    32  LYS32       0.2260
     36  O        -14.1490   13.9600  -25.4710 O.2    32  LYS32      -0.2867
     37  CB       -14.9160   14.0240  -28.3960 C.3    32  LYS32       0.0271
     38  CG       -15.4070   12.8370  -29.2060 C.3    32  LYS32       0.0035
     39  CD       -14.4010   12.4890  -30.2990 C.3    32  LYS32       0.0206
     40  CE       -14.9970   11.7120  -31.4450 C.3    32  LYS32       0.1093
     41  NZ       -14.1020   11.7210  -32.6270 N.3    32  LYS32      -0.1314
     42  N        -15.2220    9.9350  -23.1530 N.3    34  ALA34      -0.1245
     43  CA       -15.2640    8.5100  -22.9180 C.3    34  ALA34       0.1562
     44  C        -15.9740    8.3960  -21.5720 C.2    34  ALA34       0.2260
     45  O        -15.5230    8.9750  -20.5740 O.2    34  ALA34      -0.2867
     46  CB       -13.8690    7.9340  -22.8470 C.3    34  ALA34       0.0290
     47  N        -17.3020    6.0590  -18.6150 N.3    36  LYS36      -0.1245
     48  CA       -17.0580    4.7740  -17.9720 C.3    36  LYS36       0.1561
     49  C        -18.1620    4.4980  -16.9530 C.2    36  LYS36       0.2260
     50  O        -18.0920    4.9560  -15.8140 O.2    36  LYS36      -0.2867
     51  CB       -15.6480    4.7260  -17.3470 C.3    36  LYS36       0.0271
     52  CG       -15.1910    3.3260  -16.9450 C.3    36  LYS36       0.0035
     53  CD       -13.6910    3.2790  -16.6640 C.3    36  LYS36       0.0206
     54  CE       -13.1910    1.8750  -16.4100 C.3    36  LYS36       0.1093
     55  NZ       -11.7080    1.8260  -16.2810 N.3    36  LYS36      -0.1314
     56  N         -4.0490   10.0850  -18.0630 N.3    64  VAL64      -0.1245
     57  CA        -5.4180   10.4190  -18.5000 C.3    64  VAL64       0.1561
     58  C         -6.0780   11.4620  -17.5730 C.2    64  VAL64       0.2260
     59  O         -5.8010   11.4810  -16.3700 O.2    64  VAL64      -0.2867
     60  CB        -6.3050    9.1490  -18.6990 C.3    64  VAL64       0.0252
     61  CG1       -6.7740    8.5510  -17.3680 C.3    64  VAL64       0.0019
     62  CG2       -7.4870    9.4340  -19.6170 C.3    64  VAL64       0.0019
     63  N        -14.3250   10.8090  -18.7830 N.3    80  PHE80      -0.1227
     64  CA       -12.9190   11.0770  -19.1010 C.3    80  PHE80       0.1736
     65  C        -12.7730   11.7910  -20.4340 C.2    80  PHE80       0.2595
     66  O        -13.7240   11.8490  -21.2070 O.2    80  PHE80      -0.2718
     67  CB       -12.1450    9.7510  -19.2020 C.3    80  PHE80       0.0547
     68  CG       -12.0540    8.8930  -17.9660 C.ar   80  PHE80      -0.0202
     69  CD1      -13.0170    7.9260  -17.7000 C.ar   80  PHE80      -0.0042
     70  CD2      -10.9500    8.9730  -17.1260 C.ar   80  PHE80      -0.0042
     71  CE1      -12.9050    7.0950  -16.5820 C.ar   80  PHE80      -0.0003
     72  CE2      -10.8400    8.1450  -16.0070 C.ar   80  PHE80      -0.0003
     73  CZ       -11.8140    7.2110  -15.7430 C.ar   80  PHE80      -0.0000
     74  N        -11.5540   12.2740  -20.7370 N.am   81  GLU81      -0.1965
     75  CA       -11.2340   12.8610  -22.0360 C.3    81  GLU81       0.1733
     76  C        -11.1610   11.6710  -23.0090 C.2    81  GLU81       0.2616
     77  O        -10.8060   10.5610  -22.5910 O.2    81  GLU81      -0.2715
     78  CB        -9.8950   13.6180  -21.9830 C.3    81  GLU81       0.0429
     79  CG        -8.6820   12.7300  -21.7280 C.3    81  GLU81       0.1163
     80  CD        -7.3170   13.3830  -21.7030 C.2    81  GLU81       0.3649
     81  OE1       -7.0180   14.2130  -22.5920 O.co2  81  GLU81      -0.2457
     82  OE2       -6.5110   12.9930  -20.8320 O.co2  81  GLU81      -0.2457
     83  N        -11.5390   11.8770  -24.2730 N.am   82  PHE82      -0.1960
     84  CA       -11.5240   10.8010  -25.2630 C.3    82  PHE82       0.1771
     85  C        -10.1180   10.5680  -25.8140 C.2    82  PHE82       0.2619
     86  O         -9.4220   11.5250  -26.1760 O.2    82  PHE82      -0.2715
     87  CB       -12.5250   11.0920  -26.3930 C.3    82  PHE82       0.0574
     88  CG       -12.7800    9.9430  -27.3390 C.ar   82  PHE82      -0.0200
     89  CD1      -13.5570    8.8570  -26.9490 C.ar   82  PHE82      -0.0042
     90  CD2      -12.2740    9.9610  -28.6340 C.ar   82  PHE82      -0.0042
     91  CE1      -13.7800    7.7890  -27.8210 C.ar   82  PHE82      -0.0003
     92  CE2      -12.5340    8.9060  -29.5170 C.ar   82  PHE82      -0.0003
     93  CZ       -13.2790    7.8270  -29.1030 C.ar   82  PHE82      -0.0000
     94  N         -9.6970    9.2890  -25.8440 N.am   83  MET83      -0.1963
     95  CA        -8.4080    8.8640  -26.3840 C.3    83  MET83       0.1736
     96  C         -8.7200    8.1040  -27.6570 C.2    83  MET83       0.2616
     97  O         -9.0840    6.9270  -27.6160 O.2    83  MET83      -0.2715
     98  CB        -7.6020    8.0350  -25.3700 C.3    83  MET83       0.0427
     99  CG        -7.1250    8.8480  -24.1670 C.3    83  MET83       0.0599
    100  SD        -6.0410   10.2610  -24.5570 S.3    83  MET83      -0.1393
    101  CE        -4.4480    9.4380  -24.6580 C.3    83  MET83       0.0692
    102  N         -8.6610    8.8380  -28.7810 N.am   84  GLU84      -0.1963
    103  CA        -9.0000    8.4630  -30.1560 C.3    84  GLU84       0.1733
    104  C         -8.7090    7.0040  -30.5710 C.2    84  GLU84       0.2616
    105  O         -9.6080    6.3590  -31.1120 O.2    84  GLU84      -0.2715
    106  CB        -8.3280    9.4330  -31.1450 C.3    84  GLU84       0.0429
    107  CG        -9.1800    9.7650  -32.3620 C.3    84  GLU84       0.1163
    108  CD       -10.3490   10.7080  -32.1330 C.2    84  GLU84       0.3649
    109  OE1      -10.1100   11.9040  -31.8450 O.co2  84  GLU84      -0.2457
    110  OE2      -11.5070   10.2620  -32.3030 O.co2  84  GLU84      -0.2457
    111  N         -7.4780    6.4930  -30.3320 N.am   85  HIS85      -0.1959
    112  CA        -7.0550    5.1520  -30.7710 C.3    85  HIS85       0.1787
    113  C         -7.2450    4.0300  -29.7320 C.2    85  HIS85       0.2621
    114  O         -6.9620    2.8620  -30.0310 O.2    85  HIS85      -0.2715
    115  CB        -5.6050    5.1900  -31.2890 C.3    85  HIS85       0.0785
    116  CG        -5.4000    6.1850  -32.3920 C.ar   85  HIS85       0.0821
    117  ND1       -6.0010    6.0290  -33.6310 N.ar   85  HIS85      -0.2267
    118  CD2       -4.6990    7.3410  -32.3910 C.ar   85  HIS85       0.1154
    119  CE1       -5.6470    7.0890  -34.3380 C.ar   85  HIS85       0.1986
    120  NE2       -4.8600    7.9040  -33.6370 N.ar   85  HIS85      -0.2212
    121  N         -7.7770    4.3770  -28.5640 N.am   86  GLY86      -0.1940
    122  CA        -8.0690    3.4200  -27.5040 C.3    86  GLY86       0.2014
    123  C         -6.8540    2.8570  -26.8090 C.2    86  GLY86       0.2639
    124  O         -5.7920    3.4830  -26.8090 O.2    86  GLY86      -0.2714
    125  N         -7.0190    1.6680  -26.2070 N.am   87  CYS87      -0.1967
    126  CA        -5.9990    0.9370  -25.4430 C.3    87  CYS87       0.1712
    127  C         -4.7740    0.6230  -26.2820 C.2    87  CYS87       0.2296
    128  O         -4.9040    0.3320  -27.4720 O.2    87  CYS87      -0.2864
    129  CB        -6.5820   -0.3310  -24.8230 C.3    87  CYS87       0.0983
    130  SG        -8.2050   -0.1030  -24.0370 S.3    87  CYS87      -0.0798
    131  N         -3.6070    4.2270  -22.7530 N.3   134  LEU134     -0.1245
    132  CA        -4.4160    4.7390  -23.8530 C.3   134  LEU134      0.1561
    133  C         -3.6420    5.5970  -24.8390 C.2   134  LEU134      0.2260
    134  O         -2.8340    6.4430  -24.4460 O.2   134  LEU134     -0.2867
    135  CB        -5.6530    5.4840  -23.3260 C.3   134  LEU134      0.0270
    136  CG        -6.6720    4.6250  -22.5700 C.3   134  LEU134      0.0019
    137  CD1       -7.2940    5.4040  -21.4500 C.3   134  LEU134      0.0001
    138  CD2       -7.7340    4.0560  -23.5020 C.3   134  LEU134      0.0001
    139  N         -3.7380    5.0940  -17.5170 N.3   144  SER144     -0.1202
    140  CA        -5.0610    5.1120  -16.9160 C.3   144  SER144      0.2020
    141  C         -5.1430    4.0270  -15.8340 C.2   144  SER144      0.2618
    142  O         -4.2180    3.2200  -15.7040 O.2   144  SER144     -0.2717
    143  CB        -6.1320    4.8890  -17.9810 C.3   144  SER144      0.2103
    144  OG        -6.0970    3.5680  -18.4960 O.3   144  SER144     -0.2182
    145  N         -6.2660    4.0030  -15.0740 N.am  145  ASP145     -0.1973
    146  CA        -6.5750    3.0510  -13.9990 C.3   145  ASP145      0.1709
    147  C         -5.5370    3.1060  -12.8460 C.2   145  ASP145      0.2293
    148  O         -5.0770    2.0680  -12.3610 O.2   145  ASP145     -0.2864
    149  CB        -6.7830    1.6180  -14.5590 C.3   145  ASP145      0.1436
    150  CG        -7.8790    1.4600  -15.6170 C.2   145  ASP145      0.3671
    151  OD1       -8.3740    2.4950  -16.1310 O.co2 145  ASP145     -0.2456
    152  OD2       -8.2270    0.3020  -15.9460 O.co2 145  ASP145     -0.2456
@<TRIPOS>BOND
     1   119   120   ar
     2   119   117   ar
     3   120   118   ar
     4   117   116   ar
     5     8     7    2
     6    41    40    1
     7     9     7   am
     8   116   118   ar
     9   116   115    1
    10   107   108    1
    11   107   106    1
    12   110   108   ar
    13   108   109   ar
    14     7     6    1
    15    40    39    1
    16   115   112    1
    17   106   103    1
    18   105   104    2
    19    32    30    1
    20   112   111    1
    21   112   113    1
    22     6     5    1
    23   104   111   am
    24   104   103    1
    25     5     2    1
    26    39    38    1
    27   103   102    1
    28   114   113    2
    29   113   121   am
    30    92    93   ar
    31    92    90   ar
    32    30    31    1
    33    30    29    1
    34    38    37    1
    35     2     1    1
    36     2     3    1
    37    93    91   ar
    38   102    96   am
    39    16    14    1
    40    90    88   ar
    41   121   122    1
    42    37    34    1
    43    29    26    1
    44     3     4    2
    45    91    89   ar
    46    96    97    2
    47    96    95    1
    48    14    11    1
    49    14    15    1
    50   122   123    1
    51   128   127    2
    52    11    10    1
    53    11    12    1
    54    88    89   ar
    55    88    87    1
    56    34    33    1
    57    34    35    1
    58    28    27    2
    59    13    12    2
    60    26    27    1
    61    26    25    1
    62   124   123    2
    63   123   125   am
    64    87    84    1
    65    95    94    1
    66    95    98    1
    67   127   126    1
    68    17    15    1
    69   125   126    1
    70    86    85    2
    71    35    36    2
    72    94    85   am
    73    85    84    1
    74   126   129    1
    75    98    99    1
    76    84    83    1
    77   133   134    2
    78   133   132    1
    79   129   130    1
    80   101   100    1
    81   100    99    1
    82    83    76   am
    83    21    20    2
    84   132   135    1
    85   132   131    1
    86   138   136    1
    87   135   136    1
    88    42    43    1
    89    20    19    1
    90    76    77    2
    91    76    75    1
    92    43    46    1
    93    43    44    1
    94    81    80   ar
    95   136   137    1
    96    23    22    1
    97    22    19    1
    98    22    24    1
    99    75    78    1
   100    75    74    1
   101    78    79    1
   102    19    18    1
   103    79    80    1
   104    80    82   ar
   105    44    45    2
   106    66    65    2
   107    74    65   am
   108    65    64    1
   109    62    60    1
   110    67    64    1
   111    67    68    1
   112    64    63    1
   113    60    57    1
   114    60    61    1
   115    47    48    1
   116    57    56    1
   117    57    58    1
   118   144   143    1
   119   143   140    1
   120    48    51    1
   121    48    49    1
   122    68    69   ar
   123    68    70   ar
   124    69    71   ar
   125    58    59    2
   126   139   140    1
   127    51    52    1
   128    70    72   ar
   129    49    50    2
   130    52    53    1
   131   140   141    1
   132    53    54    1
   133    71    73   ar
   134    54    55    1
   135   151   150   ar
   136    72    73   ar
   137   152   150   ar
   138   141   142    2
   139   141   145   am
   140   150   149    1
   141   145   146    1
   142   149   146    1
   143   146   147    1
   144   147   148    2
