@<TRIPOS>MOLECULE
tmp/4ppaA00.pdb
 120 116 0 0 0
SMALL
GASTEIGER

@<TRIPOS>ATOM
      1  N        -16.0590  -28.9780   45.6220 N.3    32  LYS32      -0.1245
      2  CA       -16.1120  -28.8670   47.0860 C.3    32  LYS32       0.1561
      3  C        -17.3420  -28.0440   47.4750 C.2    32  LYS32       0.2260
      4  O        -17.5960  -26.9910   46.8810 O.2    32  LYS32      -0.2867
      5  CB       -14.8620  -28.1560   47.6340 C.3    32  LYS32       0.0271
      6  CG       -13.6210  -29.0140   47.7360 C.3    32  LYS32       0.0035
      7  CD       -12.4840  -28.2190   48.3530 C.3    32  LYS32       0.0206
      8  CE       -11.1580  -28.9170   48.2080 C.3    32  LYS32       0.1093
      9  NZ       -10.0320  -28.0280   48.5880 N.3    32  LYS32      -0.1314
     10  N        -20.0750  -27.0920   51.1850 N.3    34  ALA34      -0.1245
     11  CA       -20.2780  -27.1460   52.6310 C.3    34  ALA34       0.1562
     12  C        -21.7200  -27.6090   52.8420 C.2    34  ALA34       0.2260
     13  O        -22.6500  -26.9830   52.3290 O.2    34  ALA34      -0.2867
     14  CB       -20.0560  -25.7870   53.2550 C.3    34  ALA34       0.0290
     15  N        -24.7560  -28.3910   55.3810 N.3    36  LYS36      -0.1245
     16  CA       -25.3510  -28.0800   56.6810 C.3    36  LYS36       0.1561
     17  C        -26.5240  -29.0400   56.9520 C.2    36  LYS36       0.2260
     18  O        -27.4950  -29.0370   56.1970 O.2    36  LYS36      -0.2867
     19  CB       -25.8250  -26.6090   56.6830 C.3    36  LYS36       0.0271
     20  CG       -26.1530  -26.0120   58.0480 C.3    36  LYS36       0.0035
     21  CD       -26.7520  -24.6140   57.8790 C.3    36  LYS36       0.0206
     22  CE       -27.1500  -23.9350   59.1690 C.3    36  LYS36       0.1093
     23  NZ       -25.9800  -23.4010   59.9150 N.3    36  LYS36      -0.1314
     24  N        -22.7330  -16.0190   51.0260 N.3    57  VAL57      -0.1245
     25  CA       -22.5140  -17.4460   50.7710 C.3    57  VAL57       0.1561
     26  C        -23.7320  -17.9540   49.9790 C.2    57  VAL57       0.2260
     27  O        -24.8750  -17.6170   50.3170 O.2    57  VAL57      -0.2867
     28  CB       -22.2260  -18.2650   52.0590 C.3    57  VAL57       0.0252
     29  CG1      -23.4970  -18.5190   52.8660 C.3    57  VAL57       0.0019
     30  CG2      -21.5280  -19.5810   51.7290 C.3    57  VAL57       0.0019
     31  N        -24.3030  -25.7620   50.4190 N.3    73  PHE73      -0.1227
     32  CA       -23.8010  -24.3940   50.3130 C.3    73  PHE73       0.1736
     33  C        -22.4690  -24.3140   49.5840 C.2    73  PHE73       0.2595
     34  O        -21.7730  -25.3190   49.4140 O.2    73  PHE73      -0.2718
     35  CB       -23.6190  -23.7760   51.7160 C.3    73  PHE73       0.0547
     36  CG       -24.8840  -23.4380   52.4620 C.ar   73  PHE73      -0.0202
     37  CD1      -25.2950  -24.2020   53.5470 C.ar   73  PHE73      -0.0042
     38  CD2      -25.6410  -22.3260   52.1120 C.ar   73  PHE73      -0.0042
     39  CE1      -26.4580  -23.8780   54.2500 C.ar   73  PHE73      -0.0003
     40  CE2      -26.8030  -22.0020   52.8150 C.ar   73  PHE73      -0.0003
     41  CZ       -27.2070  -22.7840   53.8760 C.ar   73  PHE73      -0.0000
     42  N        -22.0990  -23.0840   49.2120 N.am   74  GLU74      -0.1965
     43  CA       -20.8320  -22.7090   48.6030 C.3    74  GLU74       0.1733
     44  C        -19.7370  -22.9610   49.6370 C.2    74  GLU74       0.2616
     45  O        -19.9210  -22.6400   50.8180 O.2    74  GLU74      -0.2715
     46  CB       -20.8860  -21.2160   48.2390 C.3    74  GLU74       0.0429
     47  CG       -19.5900  -20.6190   47.7240 C.3    74  GLU74       0.1163
     48  CD       -19.5900  -19.1090   47.6180 C.2    74  GLU74       0.3649
     49  OE1      -18.5010  -18.5400   47.3880 O.co2  74  GLU74      -0.2457
     50  OE2      -20.6710  -18.4920   47.7530 O.co2  74  GLU74      -0.2457
     51  N        -18.6160  -23.5600   49.2100 N.am   75  PHE75      -0.1960
     52  CA       -17.5260  -23.8130   50.1420 C.3    75  PHE75       0.1771
     53  C        -16.6590  -22.5800   50.3040 C.2    75  PHE75       0.2619
     54  O        -16.2810  -21.9470   49.3100 O.2    75  PHE75      -0.2715
     55  CB       -16.6990  -25.0420   49.7510 C.3    75  PHE75       0.0574
     56  CG       -15.6770  -25.4430   50.7880 C.ar   75  PHE75      -0.0200
     57  CD1      -16.0730  -25.9530   52.0190 C.ar   75  PHE75      -0.0042
     58  CD2      -14.3170  -25.3270   50.5280 C.ar   75  PHE75      -0.0042
     59  CE1      -15.1260  -26.3200   52.9780 C.ar   75  PHE75      -0.0003
     60  CE2      -13.3710  -25.7060   51.4830 C.ar   75  PHE75      -0.0003
     61  CZ       -13.7830  -26.2040   52.6980 C.ar   75  PHE75      -0.0000
     62  N        -16.3840  -22.2220   51.5680 N.am   76  MET76      -0.1963
     63  CA       -15.5500  -21.0830   51.9200 C.3    76  MET76       0.1736
     64  C        -14.2470  -21.6140   52.5100 C.2    76  MET76       0.2616
     65  O        -14.2120  -22.0590   53.6520 O.2    76  MET76      -0.2715
     66  CB       -16.2900  -20.1180   52.8640 C.3    76  MET76       0.0427
     67  CG       -17.5130  -19.4630   52.2300 C.3    76  MET76       0.0599
     68  SD       -17.1950  -18.5070   50.7180 S.3    76  MET76      -0.1393
     69  CE       -16.4000  -17.0890   51.3900 C.3    76  MET76       0.0692
     70  N        -13.1930  -21.5980   51.6860 N.am   77  GLU77      -0.1963
     71  CA       -11.8340  -22.1010   51.9090 C.3    77  GLU77       0.1733
     72  C        -11.2130  -21.9020   53.3090 C.2    77  GLU77       0.2616
     73  O        -10.5220  -22.8160   53.7650 O.2    77  GLU77      -0.2715
     74  CB       -10.8870  -21.4900   50.8530 C.3    77  GLU77       0.0429
     75  CG        -9.6620  -22.3320   50.5150 C.3    77  GLU77       0.1163
     76  CD        -9.8920  -23.6050   49.7170 C.2    77  GLU77       0.3649
     77  OE1      -10.7430  -23.5970   48.7970 O.co2  77  GLU77      -0.2457
     78  OE2       -9.1860  -24.6040   49.9880 O.co2  77  GLU77      -0.2457
     79  N        -11.4090  -20.7350   53.9700 N.am   78  HIS78      -0.1959
     80  CA       -10.7270  -20.4520   55.2420 C.3    78  HIS78       0.1787
     81  C        -11.6030  -20.3960   56.5200 C.2    78  HIS78       0.2621
     82  O        -11.1330  -19.8890   57.5440 O.2    78  HIS78      -0.2715
     83  CB        -9.9020  -19.1570   55.1250 C.3    78  HIS78       0.0785
     84  CG        -8.9450  -19.1620   53.9750 C.ar   78  HIS78       0.0821
     85  ND1       -7.9150  -20.0920   53.8900 N.ar   78  HIS78      -0.2267
     86  CD2       -8.8950  -18.3560   52.8890 C.ar   78  HIS78       0.1154
     87  CE1       -7.2830  -19.8210   52.7590 C.ar   78  HIS78       0.1986
     88  NE2       -7.8340  -18.7840   52.1240 N.ar   78  HIS78      -0.2212
     89  N        -12.8110  -20.9570   56.4790 N.am   79  GLY79      -0.1940
     90  CA       -13.7020  -21.0040   57.6370 C.3    79  GLY79       0.2014
     91  C        -14.2460  -19.6730   58.1200 C.2    79  GLY79       0.2639
     92  O        -14.2300  -18.6850   57.3780 O.2    79  GLY79      -0.2714
     93  N        -14.7490  -19.6470   59.3790 N.am   80  CYS80      -0.1967
     94  CA       -15.3520  -18.4540   59.9800 C.3    80  CYS80       0.1712
     95  C        -14.3430  -17.3420   60.2440 C.2    80  CYS80       0.2296
     96  O        -13.1820  -17.6160   60.5570 O.2    80  CYS80      -0.2864
     97  CB       -16.1670  -18.7950   61.2250 C.3    80  CYS80       0.0983
     98  SG       -15.1780  -19.2880   62.6580 S.3    80  CYS80      -0.0798
     99  N        -17.7740  -15.7110   56.6040 N.3   127  LEU127     -0.1245
    100  CA       -16.7760  -16.6940   56.1810 C.3   127  LEU127      0.1561
    101  C        -15.7420  -16.1430   55.2300 C.2   127  LEU127      0.2260
    102  O        -16.0550  -15.2730   54.4180 O.2   127  LEU127     -0.2867
    103  CB       -17.4470  -17.9300   55.5760 C.3   127  LEU127      0.0270
    104  CG       -18.3960  -18.6980   56.4710 C.3   127  LEU127      0.0019
    105  CD1      -19.5050  -19.2650   55.6740 C.3   127  LEU127      0.0001
    106  CD2      -17.6820  -19.7780   57.2430 C.3   127  LEU127      0.0001
    107  N        -23.1500  -15.4480   56.0230 N.3   137  SER137     -0.1202
    108  CA       -23.8900  -16.7080   56.1270 C.3   137  SER137      0.2020
    109  C        -24.9220  -16.6560   57.2530 C.2   137  SER137      0.2618
    110  O        -24.9130  -15.7030   58.0300 O.2   137  SER137     -0.2717
    111  CB       -22.9340  -17.8830   56.3120 C.3   137  SER137      0.2103
    112  OG       -22.4390  -18.0010   57.6340 O.3   137  SER137     -0.2182
    113  N        -25.8060  -17.6800   57.3340 N.am  138  ASP138     -0.1973
    114  CA       -26.8760  -17.8510   58.3310 C.3   138  ASP138      0.1709
    115  C        -27.8820  -16.6890   58.3530 C.2   138  ASP138      0.2293
    116  O        -28.2880  -16.2450   59.4330 O.2   138  ASP138     -0.2864
    117  CB       -26.3050  -18.1290   59.7440 C.3   138  ASP138      0.1436
    118  CG       -25.9130  -19.5680   60.0110 C.2   138  ASP138      0.3671
    119  OD1      -26.8030  -20.4510   59.9430 O.co2 138  ASP138     -0.2456
    120  OD2      -24.7290  -19.8070   60.3550 O.co2 138  ASP138     -0.2456
@<TRIPOS>BOND
     1     1     2    1
     2     4     3    2
     3     2     3    1
     4     2     5    1
     5    49    48   ar
     6    48    47    1
     7    48    50   ar
     8     5     6    1
     9    47    46    1
    10     6     7    1
    11     8     7    1
    12     8     9    1
    13    46    43    1
    14    43    42    1
    15    43    44    1
    16    77    76   ar
    17    51    44   am
    18    51    52    1
    19    42    33   am
    20    54    53    2
    21    34    33    2
    22    33    32    1
    23    44    45    2
    24    76    78   ar
    25    76    75    1
    26    55    52    1
    27    55    56    1
    28    26    27    2
    29    26    25    1
    30    52    53    1
    31    53    62   am
    32    32    31    1
    33    32    35    1
    34    75    74    1
    35    58    56   ar
    36    58    60   ar
    37    68    69    1
    38    68    67    1
    39    25    24    1
    40    25    28    1
    41    56    57   ar
    42    74    71    1
    43    10    11    1
    44    60    61   ar
    45    62    63    1
    46    70    71    1
    47    70    64   am
    48    35    36    1
    49    30    28    1
    50    71    72    1
    51    63    64    1
    52    63    66    1
    53    57    59   ar
    54    28    29    1
    55    38    36   ar
    56    38    40   ar
    57    88    87   ar
    58    88    86   ar
    59    67    66    1
    60    13    12    2
    61    36    37   ar
    62    64    65    2
    63    11    12    1
    64    11    14    1
    65    61    59   ar
    66    87    85   ar
    67    40    41   ar
    68    86    84   ar
    69    72    73    2
    70    72    79   am
    71    37    39   ar
    72    41    39   ar
    73    85    84   ar
    74    79    80    1
    75    84    83    1
    76   102   101    2
    77    83    80    1
    78   101   100    1
    79    80    81    1
    80    15    16    1
    81   103   100    1
    82   103   104    1
    83   105   104    1
    84   107   108    1
    85   108   111    1
    86   108   109    1
    87   100    99    1
    88    18    17    2
    89   111   112    1
    90   104   106    1
    91    89    81   am
    92    89    90    1
    93    81    82    2
    94    16    19    1
    95    16    17    1
    96    19    20    1
    97   109   113   am
    98   109   110    2
    99   113   114    1
   100    92    91    2
   101    90    91    1
   102    21    20    1
   103    21    22    1
   104    91    93   am
   105   114   115    1
   106   114   117    1
   107   115   116    2
   108    22    23    1
   109    93    94    1
   110   117   118    1
   111   119   118   ar
   112    94    95    1
   113    94    97    1
   114   118   120   ar
   115    95    96    2
   116    97    98    1
