@<TRIPOS>MOLECULE
tmp/4ppbA00.pdb
 148 143 0 0 0
SMALL
GASTEIGER

@<TRIPOS>ATOM
      1  N        -15.3230  -29.2750   45.4800 N.3    32  LYS32      -0.1245
      2  CA       -15.4690  -29.2060   46.9390 C.3    32  LYS32       0.1561
      3  C        -16.6920  -28.3580   47.2610 C.2    32  LYS32       0.2260
      4  O        -16.9320  -27.3590   46.5890 O.2    32  LYS32      -0.2867
      5  CB       -14.2320  -28.5570   47.5950 C.3    32  LYS32       0.0271
      6  CG       -12.9420  -29.3450   47.4350 C.3    32  LYS32       0.0035
      7  CD       -11.8440  -28.8660   48.3640 C.3    32  LYS32       0.0206
      8  CE       -10.5320  -29.5360   48.0360 C.3    32  LYS32       0.1093
      9  NZ        -9.5720  -29.4880   49.1710 N.3    32  LYS32      -0.1314
     10  N        -19.5330  -27.3660   50.9590 N.3    34  ALA34      -0.1245
     11  CA       -19.8120  -27.4340   52.3880 C.3    34  ALA34       0.1562
     12  C        -21.2600  -27.8910   52.4960 C.2    34  ALA34       0.2260
     13  O        -22.1310  -27.3590   51.8010 O.2    34  ALA34      -0.2867
     14  CB       -19.6400  -26.0800   53.0340 C.3    34  ALA34       0.0290
     15  N        -24.3970  -28.5880   55.0990 N.3    36  LYS36      -0.1245
     16  CA       -25.0350  -28.3100   56.3830 C.3    36  LYS36       0.1561
     17  C        -26.1100  -29.3460   56.6350 C.2    36  LYS36       0.2260
     18  O        -26.9080  -29.6410   55.7480 O.2    36  LYS36      -0.2867
     19  CB       -25.6290  -26.8930   56.3870 C.3    36  LYS36       0.0271
     20  CG       -25.9570  -26.3230   57.7590 C.3    36  LYS36       0.0035
     21  CD       -26.5650  -24.9390   57.5880 C.3    36  LYS36       0.0206
     22  CE       -26.8230  -24.2040   58.8790 C.3    36  LYS36       0.1093
     23  NZ       -25.5640  -23.7890   59.5630 N.3    36  LYS36      -0.1314
     24  N        -33.5640  -18.6210   48.8110 N.3    48  MET48      -0.1245
     25  CA       -32.1330  -18.4540   49.1010 C.3    48  MET48       0.1570
     26  C        -31.2680  -18.5960   47.8390 C.2    48  MET48       0.2261
     27  O        -30.1670  -18.0400   47.7800 O.2    48  MET48      -0.2867
     28  CB       -31.6750  -19.4590   50.1670 C.3    48  MET48       0.0387
     29  CG       -31.7510  -18.9390   51.5860 C.3    48  MET48       0.0595
     30  SD       -30.7010  -19.8880   52.7380 S.3    48  MET48      -0.1393
     31  CE       -29.0750  -19.1130   52.4350 C.3    48  MET48       0.0692
     32  N        -22.1800  -16.3180   50.8510 N.3    57  VAL57      -0.1245
     33  CA       -21.9440  -17.7470   50.6680 C.3    57  VAL57       0.1561
     34  C        -23.1450  -18.3270   49.9290 C.2    57  VAL57       0.2260
     35  O        -24.2790  -18.2880   50.4270 O.2    57  VAL57      -0.2867
     36  CB       -21.6090  -18.4820   51.9890 C.3    57  VAL57       0.0252
     37  CG1      -21.6720  -19.9960   51.8140 C.3    57  VAL57       0.0019
     38  CG2      -20.2350  -18.0650   52.4970 C.3    57  VAL57       0.0019
     39  N        -23.7070  -25.8500   50.1240 N.3    73  PHE73      -0.1227
     40  CA       -23.1980  -24.4920   50.0540 C.3    73  PHE73       0.1736
     41  C        -21.8640  -24.4200   49.3590 C.2    73  PHE73       0.2595
     42  O        -21.1890  -25.4330   49.1770 O.2    73  PHE73      -0.2718
     43  CB       -23.0730  -23.8920   51.4630 C.3    73  PHE73       0.0547
     44  CG       -24.3880  -23.4700   52.0640 C.ar   73  PHE73      -0.0202
     45  CD1      -24.9780  -24.2180   53.0750 C.ar   73  PHE73      -0.0042
     46  CD2      -25.0420  -22.3280   51.6160 C.ar   73  PHE73      -0.0042
     47  CE1      -26.1990  -23.8290   53.6290 C.ar   73  PHE73      -0.0003
     48  CE2      -26.2640  -21.9420   52.1660 C.ar   73  PHE73      -0.0003
     49  CZ       -26.8370  -22.6950   53.1650 C.ar   73  PHE73      -0.0000
     50  N        -21.4740  -23.1970   49.0060 N.am   74  GLU74      -0.1965
     51  CA       -20.1930  -22.8450   48.4100 C.3    74  GLU74       0.1733
     52  C        -19.0700  -23.1360   49.4320 C.2    74  GLU74       0.2616
     53  O        -19.1780  -22.7290   50.5930 O.2    74  GLU74      -0.2715
     54  CB       -20.2270  -21.3480   48.0920 C.3    74  GLU74       0.0429
     55  CG       -18.9820  -20.8110   47.4290 C.3    74  GLU74       0.1163
     56  CD       -18.9140  -19.2990   47.3790 C.2    74  GLU74       0.3649
     57  OE1      -17.7810  -18.7780   47.2700 O.co2  74  GLU74      -0.2457
     58  OE2      -19.9780  -18.6360   47.4440 O.co2  74  GLU74      -0.2457
     59  N        -18.0110  -23.8490   49.0140 N.am   75  PHE75      -0.1960
     60  CA       -16.8890  -24.1200   49.9150 C.3    75  PHE75       0.1771
     61  C        -16.0060  -22.8750   50.0670 C.2    75  PHE75       0.2619
     62  O        -15.6610  -22.2280   49.0670 O.2    75  PHE75      -0.2715
     63  CB       -16.0730  -25.3470   49.4810 C.3    75  PHE75       0.0574
     64  CG       -14.9620  -25.6970   50.4410 C.ar   75  PHE75      -0.0200
     65  CD1      -15.2440  -26.2320   51.6950 C.ar   75  PHE75      -0.0042
     66  CD2      -13.6300  -25.4900   50.0950 C.ar   75  PHE75      -0.0042
     67  CE1      -14.2140  -26.5300   52.5910 C.ar   75  PHE75      -0.0003
     68  CE2      -12.6020  -25.8020   50.9900 C.ar   75  PHE75      -0.0003
     69  CZ       -12.9030  -26.3230   52.2290 C.ar   75  PHE75      -0.0000
     70  N        -15.6820  -22.5250   51.3310 N.am   76  MET76      -0.1963
     71  CA       -14.8730  -21.3520   51.6670 C.3    76  MET76       0.1736
     72  C        -13.5440  -21.7950   52.2630 C.2    76  MET76       0.2616
     73  O        -13.4470  -22.0690   53.4540 O.2    76  MET76      -0.2715
     74  CB       -15.6520  -20.3990   52.5900 C.3    76  MET76       0.0427
     75  CG       -16.8890  -19.8040   51.9540 C.3    76  MET76       0.0599
     76  SD       -16.5560  -18.7940   50.4890 S.3    76  MET76      -0.1393
     77  CE       -15.8540  -17.3320   51.2450 C.3    76  MET76       0.0692
     78  N        -12.5290  -21.8700   51.3950 N.am   77  GLU77      -0.1963
     79  CA       -11.1500  -22.3480   51.5860 C.3    77  GLU77       0.1733
     80  C        -10.5060  -22.1120   52.9690 C.2    77  GLU77       0.2616
     81  O         -9.8350  -23.0200   53.4490 O.2    77  GLU77      -0.2715
     82  CB       -10.2380  -21.7560   50.4810 C.3    77  GLU77       0.0429
     83  CG        -8.9170  -22.4750   50.2220 C.3    77  GLU77       0.1163
     84  CD        -8.9610  -23.9450   49.8370 C.2    77  GLU77       0.3649
     85  OE1       -9.7640  -24.3120   48.9460 O.co2  77  GLU77      -0.2457
     86  OE2       -8.1560  -24.7260   50.3980 O.co2  77  GLU77      -0.2457
     87  N        -10.6970  -20.9480   53.6070 N.am   78  HIS78      -0.1959
     88  CA       -10.0020  -20.6540   54.8680 C.3    78  HIS78       0.1787
     89  C        -10.8480  -20.7200   56.1720 C.2    78  HIS78       0.2621
     90  O        -10.3070  -20.4550   57.2470 O.2    78  HIS78      -0.2715
     91  CB        -9.2760  -19.3000   54.7620 C.3    78  HIS78       0.0785
     92  CG        -8.2830  -19.2720   53.6410 C.ar   78  HIS78       0.0821
     93  ND1       -7.1380  -20.0670   53.6630 N.ar   78  HIS78      -0.2267
     94  CD2       -8.3220  -18.5990   52.4670 C.ar   78  HIS78       0.1154
     95  CE1       -6.5120  -19.8270   52.5200 C.ar   78  HIS78       0.1986
     96  NE2       -7.1860  -18.9540   51.7640 N.ar   78  HIS78      -0.2212
     97  N        -12.1130  -21.1280   56.0870 N.am   79  GLY79      -0.1940
     98  CA       -12.9680  -21.2640   57.2670 C.3    79  GLY79       0.2014
     99  C        -13.5320  -19.9710   57.8230 C.2    79  GLY79       0.2639
    100  O        -13.6260  -18.9730   57.0950 O.2    79  GLY79      -0.2714
    101  N        -13.9380  -19.9790   59.1210 N.am   80  CYS80      -0.1967
    102  CA       -14.5580  -18.7990   59.7360 C.3    80  CYS80       0.1712
    103  C        -13.5640  -17.6730   60.0300 C.2    80  CYS80       0.2296
    104  O        -12.4180  -17.9250   60.4050 O.2    80  CYS80      -0.2864
    105  CB       -15.4010  -19.1530   60.9590 C.3    80  CYS80       0.0983
    106  SG       -14.4670  -19.7910   62.3760 S.3    80  CYS80      -0.0798
    107  N        -11.8420  -17.2330   63.7440 N.3    83  ASP83      -0.1225
    108  CA       -10.6520  -18.0740   63.9520 C.3    83  ASP83       0.1805
    109  C         -9.4890  -17.5980   63.0860 C.2    83  ASP83       0.2597
    110  O         -8.3390  -17.6430   63.5260 O.2    83  ASP83      -0.2718
    111  CB       -10.9560  -19.5480   63.6330 C.3    83  ASP83       0.1424
    112  CG       -11.8650  -20.2710   64.6080 C.2    83  ASP83       0.3668
    113  OD1      -12.2000  -19.6840   65.6640 O.co2  83  ASP83      -0.2456
    114  OD2      -12.2480  -21.4250   64.3150 O.co2  83  ASP83      -0.2456
    115  N         -9.7990  -17.1420   61.8550 N.am   84  TYR84      -0.1976
    116  CA        -8.8280  -16.6400   60.8920 C.3    84  TYR84       0.1639
    117  C         -8.0990  -15.4070   61.4370 C.2    84  TYR84       0.2290
    118  O         -6.8650  -15.3230   61.3260 O.2    84  TYR84      -0.2864
    119  CB        -9.5070  -16.3480   59.5470 C.3    84  TYR84       0.0560
    120  CG        -8.5300  -15.9410   58.4670 C.ar   84  TYR84      -0.0198
    121  CD1       -7.8980  -16.8960   57.6750 C.ar   84  TYR84      -0.0009
    122  CD2       -8.2190  -14.6000   58.2490 C.ar   84  TYR84      -0.0009
    123  CE1       -6.9730  -16.5270   56.6980 C.ar   84  TYR84       0.0417
    124  CE2       -7.2890  -14.2210   57.2840 C.ar   84  TYR84       0.0417
    125  CZ        -6.6750  -15.1870   56.5040 C.ar   84  TYR84       0.1957
    126  OH        -5.7780  -14.8090   55.5350 O.3    84  TYR84      -0.2866
    127  N        -17.1060  -15.9750   56.3930 N.3   127  LEU127     -0.1245
    128  CA       -16.1090  -16.9500   55.9710 C.3   127  LEU127      0.1561
    129  C        -15.0800  -16.3890   55.0270 C.2   127  LEU127      0.2260
    130  O        -15.3980  -15.5290   54.2110 O.2   127  LEU127     -0.2867
    131  CB       -16.7860  -18.1900   55.3600 C.3   127  LEU127      0.0270
    132  CG       -17.6580  -19.0160   56.3130 C.3   127  LEU127      0.0019
    133  CD1      -18.8580  -19.5370   55.6120 C.3   127  LEU127      0.0001
    134  CD2      -16.8890  -20.1770   56.9010 C.3   127  LEU127      0.0001
    135  N        -22.4570  -15.5230   55.6450 N.3   137  SER137     -0.1202
    136  CA       -23.1830  -16.7900   55.6990 C.3   137  SER137      0.2020
    137  C        -24.1710  -16.8360   56.8640 C.2   137  SER137      0.2618
    138  O        -24.1840  -15.9260   57.6890 O.2   137  SER137     -0.2717
    139  CB       -22.2170  -17.9700   55.7480 C.3   137  SER137      0.2103
    140  OG       -21.8350  -18.3230   57.0670 O.3   137  SER137     -0.2182
    141  N        -24.9890  -17.9100   56.9210 N.am  138  ASP138     -0.1973
    142  CA       -26.0120  -18.2090   57.9310 C.3   138  ASP138      0.1709
    143  C        -27.1410  -17.1630   57.9780 C.2   138  ASP138      0.2293
    144  O        -27.5340  -16.6960   59.0510 O.2   138  ASP138     -0.2864
    145  CB       -25.3930  -18.4570   59.3230 C.3   138  ASP138      0.1436
    146  CG       -25.6770  -19.8330   59.8940 C.2   138  ASP138      0.3671
    147  OD1      -26.8270  -20.3180   59.7390 O.co2 138  ASP138     -0.2456
    148  OD2      -24.7630  -20.4130   60.5300 O.co2 138  ASP138     -0.2456
@<TRIPOS>BOND
     1     1     2    1
     2     4     3    2
     3     2     3    1
     4     2     5    1
     5    57    56   ar
     6    56    55    1
     7    56    58   ar
     8    55    54    1
     9     6     5    1
    10     6     7    1
    11    27    26    2
    12    26    25    1
    13     8     7    1
    14     8     9    1
    15    54    51    1
    16    51    50    1
    17    51    52    1
    18    24    25    1
    19    85    84   ar
    20    50    41   am
    21    59    52   am
    22    59    60    1
    23    62    61    2
    24    25    28    1
    25    42    41    2
    26    41    40    1
    27    52    53    2
    28    63    60    1
    29    63    64    1
    30    84    83    1
    31    84    86   ar
    32    60    61    1
    33    34    35    2
    34    34    33    1
    35    40    39    1
    36    40    43    1
    37    61    70   am
    38    66    64   ar
    39    66    68   ar
    40    28    29    1
    41    83    82    1
    42    64    65   ar
    43    82    79    1
    44    76    77    1
    45    76    75    1
    46    33    32    1
    47    33    36    1
    48    10    11    1
    49    68    69   ar
    50    70    71    1
    51    78    79    1
    52    78    72   am
    53    43    44    1
    54    79    80    1
    55    29    30    1
    56    46    44   ar
    57    46    48   ar
    58    71    72    1
    59    71    74    1
    60    65    67   ar
    61    96    94   ar
    62    96    95   ar
    63    13    12    2
    64    37    36    1
    65    75    74    1
    66    36    38    1
    67    44    45   ar
    68    48    49   ar
    69    69    67   ar
    70    72    73    2
    71    11    12    1
    72    11    14    1
    73    31    30    1
    74    94    92   ar
    75    95    93   ar
    76    80    81    2
    77    80    87   am
    78    45    47   ar
    79    49    47   ar
    80    87    88    1
    81    92    93   ar
    82    92    91    1
    83   130   129    2
    84    91    88    1
    85    88    89    1
    86   129   128    1
    87    15    16    1
    88   131   128    1
    89   131   132    1
    90   126   125    1
    91   133   132    1
    92   135   136    1
    93   136   139    1
    94   136   137    1
    95   139   140    1
    96    18    17    2
    97   128   127    1
    98    97    89   am
    99    97    98    1
   100    89    90    2
   101   132   134    1
   102    16    19    1
   103    16    17    1
   104    19    20    1
   105   125   123   ar
   106   125   124   ar
   107   123   121   ar
   108   137   141   am
   109   137   138    2
   110   141   142    1
   111   100    99    2
   112    98    99    1
   113   124   122   ar
   114    21    20    1
   115    21    22    1
   116   121   120   ar
   117    99   101   am
   118   142   143    1
   119   142   145    1
   120   143   144    2
   121   122   120   ar
   122   120   119    1
   123    22    23    1
   124   101   102    1
   125   145   146    1
   126   119   116    1
   127   102   103    1
   128   102   105    1
   129   147   146   ar
   130   146   148   ar
   131   103   104    2
   132   116   117    1
   133   116   115    1
   134   105   106    1
   135   118   117    2
   136   115   109   am
   137   109   110    2
   138   109   108    1
   139   111   108    1
   140   111   112    1
   141   107   108    1
   142   114   112   ar
   143   112   113   ar
