@<TRIPOS>MOLECULE
tmp/4ppcB01.pdb
 126 121 0 0 0
SMALL
GASTEIGER

@<TRIPOS>ATOM
      1  N         20.4730  -28.8420  -18.0010 N.3    32  ALA32      -0.1245
      2  CA        20.0220  -28.5300  -16.6530 C.3    32  ALA32       0.1562
      3  C         18.5820  -29.0270  -16.5590 C.2    32  ALA32       0.2260
      4  O         17.7350  -28.5810  -17.3280 O.2    32  ALA32      -0.2867
      5  CB        20.0920  -27.0350  -16.4040 C.3    32  ALA32       0.0290
      6  N         15.1580  -29.3690  -14.4510 N.3    34  LYS34      -0.1245
      7  CA        14.3730  -28.7830  -13.3630 C.3    34  LYS34       0.1561
      8  C         13.1590  -29.6470  -12.9970 C.2    34  LYS34       0.2260
      9  O         12.1510  -29.6390  -13.7060 O.2    34  LYS34      -0.2867
     10  CB        13.9630  -27.3370  -13.7050 C.3    34  LYS34       0.0271
     11  CG        13.6120  -26.4760  -12.5000 C.3    34  LYS34       0.0035
     12  CD        13.1990  -25.0770  -12.9370 C.3    34  LYS34       0.0206
     13  CE        12.9990  -24.1340  -11.7750 C.3    34  LYS34       0.1093
     14  NZ        12.6170  -22.7700  -12.2300 N.3    34  LYS34      -0.1314
     15  N         17.4620  -17.9940  -21.4910 N.3    52  VAL52      -0.1245
     16  CA        17.7720  -19.4170  -21.3150 C.3    52  VAL52       0.1561
     17  C         16.8040  -20.2640  -22.1620 C.2    52  VAL52       0.2260
     18  O         15.5880  -20.0860  -22.0710 O.2    52  VAL52      -0.2867
     19  CB        17.8730  -19.8510  -19.8210 C.3    52  VAL52       0.0252
     20  CG1       16.5030  -20.0310  -19.1690 C.3    52  VAL52       0.0019
     21  CG2       18.7260  -21.1060  -19.6640 C.3    52  VAL52       0.0019
     22  N         16.4150  -27.7240  -19.5940 N.3    66  PHE66      -0.1227
     23  CA        16.9440  -26.4150  -19.9680 C.3    66  PHE66       0.1736
     24  C         18.3710  -26.4930  -20.5020 C.2    66  PHE66       0.2595
     25  O         19.1070  -27.4340  -20.2010 O.2    66  PHE66      -0.2718
     26  CB        16.9020  -25.4560  -18.7690 C.3    66  PHE66       0.0547
     27  CG        15.5350  -24.9060  -18.4540 C.ar   66  PHE66      -0.0202
     28  CD1       14.7630  -25.4600  -17.4400 C.ar   66  PHE66      -0.0042
     29  CD2       15.0190  -23.8300  -19.1660 C.ar   66  PHE66      -0.0042
     30  CE1       13.4970  -24.9480  -17.1460 C.ar   66  PHE66      -0.0003
     31  CE2       13.7530  -23.3200  -18.8730 C.ar   66  PHE66      -0.0003
     32  CZ        13.0000  -23.8840  -17.8670 C.ar   66  PHE66      -0.0000
     33  N         18.7580  -25.4740  -21.2780 N.am   67  GLU67      -0.1965
     34  CA        20.0910  -25.2910  -21.8440 C.3    67  GLU67       0.1733
     35  C         21.0880  -25.1210  -20.6860 C.2    67  GLU67       0.2616
     36  O         20.8420  -24.3190  -19.7760 O.2    67  GLU67      -0.2715
     37  CB        20.0810  -24.0380  -22.7510 C.3    67  GLU67       0.0429
     38  CG        21.4410  -23.5150  -23.1890 C.3    67  GLU67       0.1163
     39  CD        21.4770  -22.0690  -23.6520 C.2    67  GLU67       0.3649
     40  OE1       22.5660  -21.6180  -24.0760 O.co2  67  GLU67      -0.2457
     41  OE2       20.4310  -21.3820  -23.5790 O.co2  67  GLU67      -0.2457
     42  N         22.1930  -25.8870  -20.7100 N.am   68  PHE68      -0.1960
     43  CA        23.2150  -25.7780  -19.6740 C.3    68  PHE68       0.1771
     44  C         24.0630  -24.5240  -19.8820 C.2    68  PHE68       0.2619
     45  O         24.5210  -24.2540  -20.9950 O.2    68  PHE68      -0.2715
     46  CB        24.0890  -27.0340  -19.6100 C.3    68  PHE68       0.0574
     47  CG        25.1870  -26.9920  -18.5730 C.ar   68  PHE68      -0.0200
     48  CD1       24.8920  -27.1120  -17.2170 C.ar   68  PHE68      -0.0042
     49  CD2       26.5180  -26.8530  -18.9510 C.ar   68  PHE68      -0.0042
     50  CE1       25.9080  -27.0640  -16.2570 C.ar   68  PHE68      -0.0003
     51  CE2       27.5340  -26.8140  -17.9910 C.ar   68  PHE68      -0.0003
     52  CZ        27.2220  -26.9290  -16.6520 C.ar   68  PHE68      -0.0000
     53  N         24.2420  -23.7520  -18.8050 N.am   69  MET69      -0.1963
     54  CA        25.0350  -22.5270  -18.8040 C.3    69  MET69       0.1736
     55  C         26.3080  -22.8260  -18.0390 C.2    69  MET69       0.2616
     56  O         26.2640  -23.0800  -16.8350 O.2    69  MET69      -0.2715
     57  CB        24.2410  -21.3470  -18.2130 C.3    69  MET69       0.0427
     58  CG        23.0000  -20.9830  -19.0270 C.3    69  MET69       0.0599
     59  SD        23.3500  -20.3640  -20.6950 S.3    69  MET69      -0.1393
     60  CE        23.7800  -18.7040  -20.3340 C.3    69  MET69       0.0692
     61  N         27.4280  -22.8770  -18.7830 N.am   70  GLU70      -0.1963
     62  CA        28.7840  -23.2490  -18.3650 C.3    70  GLU70       0.1733
     63  C         29.2670  -22.6730  -17.0360 C.2    70  GLU70       0.2616
     64  O         29.8920  -23.4080  -16.2720 O.2    70  GLU70      -0.2715
     65  CB        29.8120  -22.9140  -19.4660 C.3    70  GLU70       0.0429
     66  CG        29.7730  -23.8320  -20.6840 C.3    70  GLU70       0.1163
     67  CD        30.0880  -25.3050  -20.4670 C.2    70  GLU70       0.3649
     68  OE1       30.9400  -25.6220  -19.6040 O.co2  70  GLU70      -0.2457
     69  OE2       29.4920  -26.1440  -21.1810 O.co2  70  GLU70      -0.2457
     70  N         28.9980  -21.3860  -16.7560 N.am   71  HIS71      -0.1959
     71  CA        29.5050  -20.7360  -15.5470 C.3    71  HIS71       0.1787
     72  C         28.5100  -20.6330  -14.3670 C.2    71  HIS71       0.2621
     73  O         28.9140  -20.2230  -13.2750 O.2    71  HIS71      -0.2715
     74  CB        30.0820  -19.3620  -15.8970 C.3    71  HIS71       0.0785
     75  CG        31.2310  -19.4360  -16.8550 C.ar   71  HIS71       0.0821
     76  ND1       32.5160  -19.7210  -16.4240 N.ar   71  HIS71      -0.2267
     77  CD2       31.2440  -19.2900  -18.2010 C.ar   71  HIS71       0.1154
     78  CE1       33.2680  -19.7210  -17.5140 C.ar   71  HIS71       0.1986
     79  NE2       32.5480  -19.4670  -18.6080 N.ar   71  HIS71      -0.2212
     80  N         27.2580  -21.0400  -14.5740 N.am   72  GLY72      -0.1940
     81  CA        26.2380  -21.0240  -13.5270 C.3    72  GLY72       0.2014
     82  C         25.5230  -19.7020  -13.3810 C.2    72  GLY72       0.2639
     83  O         25.3930  -18.9700  -14.3650 O.2    72  GLY72      -0.2714
     84  N         25.0450  -19.3880  -12.1500 N.am   73  CYS73      -0.1967
     85  CA        24.3230  -18.1410  -11.8760 C.3    73  CYS73       0.1712
     86  C         25.2610  -16.9370  -11.7500 C.2    73  CYS73       0.2296
     87  O         26.3860  -17.0720  -11.2640 O.2    73  CYS73      -0.2864
     88  CB        23.3730  -18.2670  -10.6830 C.3    73  CYS73       0.0983
     89  SG        24.1760  -18.2640   -9.0560 S.3    73  CYS73      -0.0798
     90  N         26.6700  -15.6790   -8.0070 N.3    76  ASP76      -0.1239
     91  CA        27.8380  -16.4340   -7.5480 C.3    76  ASP76       0.1674
     92  C         29.0800  -16.1480   -8.3920 C.2    76  ASP76       0.2266
     93  O         30.1790  -16.0520   -7.8390 O.2    76  ASP76      -0.2867
     94  CB        27.5400  -17.9410   -7.5520 C.3    76  ASP76       0.1410
     95  CG        26.8370  -18.4770   -6.3190 C.2    76  ASP76       0.3668
     96  OD1       26.2390  -17.6670   -5.5690 O.co2  76  ASP76      -0.2456
     97  OD2       26.8690  -19.7080   -6.1110 O.co2  76  ASP76      -0.2456
     98  N         32.8390  -14.8970   -7.1630 N.3    80  THR80      -0.1218
     99  CA        34.0220  -15.7330   -7.3890 C.3    80  THR80       0.1862
    100  C         35.1360  -14.9740   -8.1230 C.2    80  THR80       0.2287
    101  O         36.3070  -15.0960   -7.7490 O.2    80  THR80      -0.2866
    102  CB        33.6260  -17.0450   -8.0950 C.3    80  THR80       0.1770
    103  OG1       32.4840  -17.6060   -7.4500 O.3    80  THR80      -0.2211
    104  CG2       34.7490  -18.0730   -8.1040 C.3    80  THR80       0.0375
    105  N         21.9910  -16.2400  -15.7350 N.3   120  LEU120     -0.1245
    106  CA        23.0420  -17.2450  -15.8940 C.3   120  LEU120      0.1561
    107  C         24.1410  -16.8490  -16.8670 C.2   120  LEU120      0.2260
    108  O         23.8770  -16.1270  -17.8250 O.2   120  LEU120     -0.2867
    109  CB        22.4420  -18.6010  -16.2880 C.3   120  LEU120      0.0270
    110  CG        21.4160  -19.2050  -15.3350 C.3   120  LEU120      0.0019
    111  CD1       20.3870  -19.9860  -16.0960 C.3   120  LEU120      0.0001
    112  CD2       22.0750  -20.0670  -14.2800 C.3   120  LEU120      0.0001
    113  N         16.7560  -16.3140  -16.7200 N.3   130  SER130     -0.1202
    114  CA        16.0270  -17.5220  -16.3380 C.3   130  SER130      0.2020
    115  C         14.9340  -17.2190  -15.3030 C.2   130  SER130      0.2618
    116  O         14.9680  -16.1610  -14.6790 O.2   130  SER130     -0.2717
    117  CB        16.9910  -18.5810  -15.8080 C.3   130  SER130      0.2103
    118  OG        17.4960  -18.3020  -14.5120 O.3   130  SER130     -0.2182
    119  N         13.9850  -18.1630  -15.1150 N.am  131  ASP131     -0.1973
    120  CA        12.8580  -18.1200  -14.1680 C.3   131  ASP131      0.1709
    121  C         11.8620  -16.9780  -14.4540 C.2   131  ASP131      0.2293
    122  O         11.5610  -16.1700  -13.5680 O.2   131  ASP131     -0.2864
    123  CB        13.3310  -18.1110  -12.6940 C.3   131  ASP131      0.1436
    124  CG        14.2670  -19.2450  -12.3340 C.2   131  ASP131      0.3671
    125  OD1       13.7990  -20.2280  -11.7180 O.co2 131  ASP131     -0.2456
    126  OD2       15.4710  -19.1490  -12.6670 O.co2 131  ASP131     -0.2456
@<TRIPOS>BOND
     1    40    39   ar
     2    39    41   ar
     3    39    38    1
     4    38    37    1
     5    37    34    1
     6    17    18    2
     7    17    16    1
     8    34    33    1
     9    34    35    1
    10    15    16    1
    11    16    19    1
    12    33    24   am
    13    69    67   ar
    14    45    44    2
    15    42    35   am
    16    42    43    1
    17    59    60    1
    18    59    58    1
    19    35    36    2
    20    66    67    1
    21    66    65    1
    22    24    25    2
    23    24    23    1
    24    67    68   ar
    25    23    22    1
    26    23    26    1
    27    44    43    1
    28    44    53   am
    29    19    21    1
    30    19    20    1
    31    43    46    1
    32    46    47    1
    33    65    62    1
    34    29    31   ar
    35    29    27   ar
    36    58    57    1
    37    49    47   ar
    38    49    51   ar
    39    31    32   ar
    40    53    54    1
    41    54    57    1
    42    54    55    1
    43    61    62    1
    44    61    55   am
    45    26    27    1
    46    79    77   ar
    47    79    78   ar
    48    47    48   ar
    49    27    28   ar
    50    62    63    1
    51    77    75   ar
    52    55    56    2
    53     1     2    1
    54    51    52   ar
    55    32    30   ar
    56   108   107    2
    57    78    76   ar
    58    28    30   ar
    59     4     3    2
    60    48    50   ar
    61    63    70   am
    62    63    64    2
    63   107   106    1
    64    75    76   ar
    65    75    74    1
    66    70    71    1
    67   113   114    1
    68     2     3    1
    69     2     5    1
    70    52    50   ar
    71   114   117    1
    72   114   115    1
    73   109   106    1
    74   109   110    1
    75   111   110    1
    76    74    71    1
    77   106   105    1
    78   117   118    1
    79    71    72    1
    80   110   112    1
    81   115   119   am
    82   115   116    2
    83   119   120    1
    84    80    72   am
    85    80    81    1
    86   121   120    1
    87   121   122    2
    88     6     7    1
    89    72    73    2
    90    83    82    2
    91   120   123    1
    92     9     8    2
    93    10     7    1
    94    10    11    1
    95    81    82    1
    96    82    84   am
    97     7     8    1
    98    12    11    1
    99    12    13    1
   100   123   124    1
   101   126   124   ar
   102   124   125   ar
   103    14    13    1
   104    84    85    1
   105    85    86    1
   106    85    88    1
   107    86    87    2
   108    88    89    1
   109    92    93    2
   110    92    91    1
   111   100   101    2
   112   100    99    1
   113   104   102    1
   114   102   103    1
   115   102    99    1
   116    90    91    1
   117    94    91    1
   118    94    95    1
   119    99    98    1
   120    95    97   ar
   121    95    96   ar
