@<TRIPOS>MOLECULE
tmp/4ppfA00.pdb
 82 78 0 0 0
SMALL
GASTEIGER

@<TRIPOS>ATOM
      1  N        126.6810    4.0440    8.1340 N.3    66  GLU66      -0.1231
      2  CA       126.7980    5.1790    9.0290 C.3    66  GLU66       0.1699
      3  C        127.7390    4.7840   10.1730 C.2    66  GLU66       0.2593
      4  O        127.6720    3.6680   10.6760 O.2    66  GLU66      -0.2718
      5  CB       125.4050    5.5150    9.5460 C.3    66  GLU66       0.0402
      6  CG       125.2690    6.8090   10.3190 C.3    66  GLU66       0.1161
      7  CD       123.8160    7.0950   10.6840 C.2    66  GLU66       0.3649
      8  OE1      123.0500    6.1360   10.9410 O.co2  66  GLU66      -0.2457
      9  OE2      123.4360    8.2790   10.7090 O.co2  66  GLU66      -0.2457
     10  N        128.6470    5.6760   10.5360 N.am   67  SER67      -0.1938
     11  CA       129.5910    5.4350   11.6340 C.3    67  SER67       0.2055
     12  C        130.5010    4.2330   11.3760 C.2    67  SER67       0.2644
     13  O        130.7940    3.4480   12.2800 O.2    67  SER67      -0.2714
     14  CB       128.8460    5.2740   12.9790 C.3    67  SER67       0.2130
     15  OG       128.1360    6.4610   13.3190 O.3    67  SER67      -0.2179
     16  N        130.9550    4.0970   10.1380 N.am   68  SER68      -0.1935
     17  CA       131.8880    3.0350    9.7940 C.3    68  SER68       0.2055
     18  C        133.3370    3.4950    9.9400 C.2    68  SER68       0.2644
     19  O        134.2000    2.6950   10.2500 O.2    68  SER68      -0.2714
     20  CB       131.6350    2.5440    8.3670 C.3    68  SER68       0.2130
     21  OG       131.7570    3.5960    7.4330 O.3    68  SER68      -0.2179
     22  N        133.5980    4.7750    9.7120 N.am   69  GLY69      -0.1939
     23  CA       134.9690    5.2840    9.6370 C.3    69  GLY69       0.2014
     24  C        135.3980    5.6640    8.2270 C.2    69  GLY69       0.2639
     25  O        136.5390    6.0810    8.0050 O.2    69  GLY69      -0.2714
     26  N        134.4780    5.5480    7.2790 N.am   70  LYS70      -0.1963
     27  CA       134.7940    5.7910    5.8830 C.3    70  LYS70       0.1728
     28  C        135.2080    7.2340    5.6340 C.2    70  LYS70       0.2617
     29  O        136.1320    7.4940    4.8880 O.2    70  LYS70      -0.2715
     30  CB       133.6170    5.3810    4.9910 C.3    70  LYS70       0.0311
     31  CG       132.3530    6.1900    5.2070 C.3    70  LYS70       0.0038
     32  CD       131.1290    5.4500    4.7070 C.3    70  LYS70       0.0206
     33  CE       129.8900    6.3200    4.7970 C.3    70  LYS70       0.1093
     34  NZ       129.5160    6.6500    6.2030 N.3    70  LYS70      -0.1314
     35  N        134.5520    8.1780    6.2760 N.am   71  THR71      -0.1937
     36  CA       134.9440    9.5770    6.1170 C.3    71  THR71       0.2028
     37  C        136.3020    9.8650    6.7540 C.2    71  THR71       0.2642
     38  O        137.1120   10.6180    6.1970 O.2    71  THR71      -0.2714
     39  CB       133.8790   10.5160    6.6820 C.3    71  THR71       0.1808
     40  OG1      132.6360   10.2320    6.0390 O.3    71  THR71      -0.2208
     41  CG2      134.2400   11.9570    6.4260 C.3    71  THR71       0.0379
     42  N        136.5680    9.2460    7.8990 N.am   72  THR72      -0.1950
     43  CA       137.8880    9.3780    8.5230 C.3    72  THR72       0.1897
     44  C        138.9880    8.9300    7.5410 C.2    72  THR72       0.2313
     45  O        140.0210    9.5910    7.4210 O.2    72  THR72      -0.2863
     46  CB       137.9620    8.5900    9.8550 C.3    72  THR72       0.1794
     47  OG1      137.1830    9.2700   10.8450 O.3    72  THR72      -0.2208
     48  CG2      139.3990    8.4580   10.3560 C.3    72  THR72       0.0378
     49  N        128.0470   17.5250    7.0710 N.3    96  ALA96      -0.1245
     50  CA       128.3280   16.7780    8.2910 C.3    96  ALA96       0.1562
     51  C        129.7520   16.9870    8.7940 C.2    96  ALA96       0.2260
     52  O        130.0530   16.6660    9.9440 O.2    96  ALA96      -0.2867
     53  CB       128.0940   15.2940    8.0370 C.3    96  ALA96       0.0290
     54  N        137.8730   17.9070   14.2790 N.3   101  TYR101     -0.1241
     55  CA       138.3160   16.5230   14.1110 C.3   101  TYR101      0.1605
     56  C        139.2600   16.3640   12.9120 C.2   101  TYR101      0.2264
     57  O        140.2680   15.6670   12.9980 O.2   101  TYR101     -0.2867
     58  CB       137.1070   15.6100   13.9690 C.3   101  TYR101      0.0534
     59  CG       137.4380   14.1620   13.7100 C.ar  101  TYR101     -0.0201
     60  CD1      138.0710   13.3870   14.6740 C.ar  101  TYR101     -0.0009
     61  CD2      137.1010   13.5560   12.5030 C.ar  101  TYR101     -0.0009
     62  CE1      138.3570   12.0520   14.4410 C.ar  101  TYR101      0.0417
     63  CE2      137.3840   12.2250   12.2640 C.ar  101  TYR101      0.0417
     64  CZ       138.0180   11.4750   13.2270 C.ar  101  TYR101      0.1957
     65  OH       138.2990   10.1490   12.9870 O.3   101  TYR101     -0.2866
     66  N        127.3580    5.6900    1.2230 N.3   188  GLN188     -0.1245
     67  CA       126.8000    5.1490    2.4560 C.3   188  GLN188      0.1566
     68  C        125.7900    4.0730    2.1470 C.2   188  GLN188      0.2260
     69  O        124.8360    4.3230    1.4240 O.2   188  GLN188     -0.2867
     70  CB       126.1490    6.2590    3.2800 C.3   188  GLN188      0.0367
     71  CG       125.6960    5.7950    4.6570 C.3   188  GLN188      0.0905
     72  CD       125.6770    6.9190    5.6740 C.2   188  GLN188      0.2608
     73  OE1      126.7300    7.3920    6.1210 O.2   188  GLN188     -0.2717
     74  NE2      124.4760    7.3500    6.0550 N.am  188  GLN188     -0.0878
     75  N        140.5820    3.5220   14.9360 N.3   243  ILE243     -0.1245
     76  CA       140.1860    4.9170   14.8690 C.3   243  ILE243      0.1561
     77  C        139.9200    5.3510   16.3000 C.2   243  ILE243      0.2260
     78  O        139.0120    4.8390   16.9570 O.2   243  ILE243     -0.2867
     79  CB       138.9560    5.1350   13.9600 C.3   243  ILE243      0.0252
     80  CG1      139.3050    4.7320   12.5180 C.3   243  ILE243      0.0019
     81  CG2      138.5100    6.5960   14.0130 C.3   243  ILE243      0.0019
     82  CD1      138.1780    4.9080   11.5190 C.3   243  ILE243      0.0001
@<TRIPOS>BOND
     1    66    67    1
     2    69    68    2
     3    68    67    1
     4    67    70    1
     5    70    71    1
     6    71    72    1
     7    32    33    1
     8    32    31    1
     9    33    34    1
    10    29    28    2
    11    30    31    1
    12    30    27    1
    13    28    27    1
    14    28    35   am
    15    72    74   am
    16    72    73    2
    17    27    26    1
    18    40    39    1
    19    36    35    1
    20    36    39    1
    21    36    37    1
    22    38    37    2
    23    41    39    1
    24    37    42   am
    25    49    50    1
    26    26    24   am
    27    45    44    2
    28    21    20    1
    29    44    43    1
    30    42    43    1
    31    25    24    2
    32    53    50    1
    33     1     2    1
    34    24    23    1
    35    50    51    1
    36    20    17    1
    37    43    46    1
    38    51    52    2
    39     2     5    1
    40     2     3    1
    41     5     6    1
    42    23    22    1
    43    22    18   am
    44    17    18    1
    45    17    16    1
    46    46    48    1
    47    46    47    1
    48    18    19    2
    49    16    12   am
    50     3    10   am
    51     3     4    2
    52     6     7    1
    53    10    11    1
    54     7     9   ar
    55     7     8   ar
    56    12    11    1
    57    12    13    2
    58    82    80    1
    59    11    14    1
    60    63    61   ar
    61    63    64   ar
    62    61    59   ar
    63    80    79    1
    64    56    57    2
    65    56    55    1
    66    14    15    1
    67    65    64    1
    68    64    62   ar
    69    59    58    1
    70    59    60   ar
    71    79    81    1
    72    79    76    1
    73    58    55    1
    74    55    54    1
    75    62    60   ar
    76    76    75    1
    77    76    77    1
    78    77    78    2
