@<TRIPOS>MOLECULE
tmp/4pphF00.pdb
 71 70 0 0 0
SMALL
GASTEIGER

@<TRIPOS>ATOM
      1  N        105.8790   60.5770   20.1560 N.3    76  THR76      -0.1203
      2  CA       105.0580   60.3060   21.3110 C.3    76  THR76       0.1994
      3  C        105.9700   60.1540   22.5130 C.2    76  THR76       0.2618
      4  O        106.9270   59.3840   22.4810 O.2    76  THR76      -0.2717
      5  CB       104.1930   59.0670   21.1040 C.3    76  THR76       0.1784
      6  OG1      103.3020   59.3130   20.0060 O.3    76  THR76      -0.2211
      7  CG2      103.3800   58.7830   22.3420 C.3    76  THR76       0.0376
      8  N        105.7020   60.9330   23.5540 N.am   77  CYS77      -0.1955
      9  CA       106.5250   60.8720   24.7420 C.3    77  CYS77       0.1843
     10  C        106.0510   59.6680   25.5420 C.2    77  CYS77       0.2626
     11  O        104.9280   59.6300   26.0560 O.2    77  CYS77      -0.2714
     12  CB       106.4250   62.1570   25.5630 C.3    77  CYS77       0.0997
     13  SG       107.7010   62.2980   26.8490 S.3    77  CYS77      -0.0797
     14  N        106.9600   58.7140   25.6880 N.am   78  THR78      -0.1950
     15  CA       106.6860   57.4410   26.3260 C.3    78  THR78       0.1897
     16  C        107.3680   57.4500   27.6580 C.2    78  THR78       0.2313
     17  O        107.4800   56.4340   28.3360 O.2    78  THR78      -0.2863
     18  CB       107.2530   56.2810   25.4930 C.3    78  THR78       0.1794
     19  OG1      108.6600   56.5050   25.3010 O.3    78  THR78      -0.2208
     20  CG2      106.5810   56.2030   24.1260 C.3    78  THR78       0.0378
     21  N        107.7490   60.7640   30.5730 N.3    80  SER80      -0.1202
     22  CA       107.1220   61.5040   31.6610 C.3    80  SER80       0.2020
     23  C        105.5980   61.4550   31.5860 C.2    80  SER80       0.2619
     24  O        105.0170   61.0940   30.5520 O.2    80  SER80      -0.2717
     25  CB       107.6560   62.9530   31.6430 C.3    80  SER80       0.2103
     26  OG       106.8110   63.8840   32.2920 O.3    80  SER80      -0.2182
     27  N        104.9580   61.7990   32.6960 N.am   81  THR81      -0.1938
     28  CA       103.5160   61.8920   32.7060 C.3    81  THR81       0.2028
     29  C        103.0900   63.3370   32.5450 C.2    81  THR81       0.2643
     30  O        101.9140   63.6350   32.3500 O.2    81  THR81      -0.2714
     31  CB       102.9490   61.3600   34.0340 C.3    81  THR81       0.1808
     32  OG1      103.5390   62.0890   35.1190 O.3    81  THR81      -0.2208
     33  CG2      103.2520   59.8800   34.1900 C.3    81  THR81       0.0379
     34  N        104.0810   64.2170   32.5350 N.am   82  THR82      -0.1936
     35  CA       103.8940   65.6180   32.2130 C.3    82  THR82       0.2028
     36  C        104.8360   66.0690   31.1020 C.2    82  THR82       0.2642
     37  O        105.8990   65.4830   30.8990 O.2    82  THR82      -0.2714
     38  CB       104.1610   66.4960   33.4390 C.3    82  THR82       0.1808
     39  OG1      105.4770   66.2130   33.9430 O.3    82  THR82      -0.2208
     40  CG2      103.0990   66.2680   34.5170 C.3    82  THR82       0.0379
     41  N        104.4850   67.1570   30.4320 N.am   83  THR83      -0.1950
     42  CA       105.3050   67.6360   29.3370 C.3    83  THR83       0.1897
     43  C        106.4680   68.4800   29.8800 C.2    83  THR83       0.2313
     44  O        106.4370   68.9650   31.0110 O.2    83  THR83      -0.2863
     45  CB       104.5070   68.4680   28.3090 C.3    83  THR83       0.1794
     46  OG1      104.1380   69.7150   28.8930 O.3    83  THR83      -0.2208
     47  CG2      103.2590   67.7380   27.8540 C.3    83  THR83       0.0378
     48  N        109.7530   66.4320   25.7000 N.3    87  CYS87      -0.1221
     49  CA       108.6810   65.4930   26.0020 C.3    87  CYS87       0.1808
     50  C        107.2870   66.0710   25.7610 C.2    87  CYS87       0.2601
     51  O        106.6810   66.6650   26.6550 O.2    87  CYS87      -0.2717
     52  CB       108.8010   65.0200   27.4490 C.3    87  CYS87       0.0970
     53  SG       107.4500   63.9430   27.9990 S.3    87  CYS87      -0.0800
     54  N        106.7710   65.8570   24.5560 N.am   88  HIS88      -0.1961
     55  CA       105.3910   66.1910   24.2420 C.3    88  HIS88       0.1787
     56  C        104.7990   65.0930   23.3790 C.2    88  HIS88       0.2620
     57  O        105.5130   64.2110   22.8990 O.2    88  HIS88      -0.2715
     58  CB       105.2670   67.5310   23.5110 C.3    88  HIS88       0.0785
     59  CG       106.0330   68.6490   24.1440 C.ar   88  HIS88       0.0821
     60  ND1      107.3600   68.8850   23.8690 N.ar   88  HIS88      -0.2267
     61  CD2      105.6690   69.5820   25.0550 C.ar   88  HIS88       0.1154
     62  CE1      107.7760   69.9240   24.5710 C.ar   88  HIS88       0.1986
     63  NE2      106.7690   70.3630   25.3010 N.ar   88  HIS88      -0.2212
     64  N        103.4940   65.1910   23.1530 N.am   89  ASN89      -0.1972
     65  CA       102.8130   64.3520   22.2000 C.3    89  ASN89       0.1688
     66  C        102.4910   65.1840   20.9620 C.2    89  ASN89       0.2292
     67  O        102.4500   66.4020   21.0310 O.2    89  ASN89      -0.2864
     68  CB       101.5410   63.7820   22.8380 C.3    89  ASN89       0.1181
     69  CG       101.8360   62.6670   23.8160 C.2    89  ASN89       0.2629
     70  OD1      102.8680   62.0240   23.7150 O.2    89  ASN89      -0.2716
     71  ND2      100.9640   62.4660   24.7930 N.am   89  ASN89      -0.0877
@<TRIPOS>BOND
     1     6     5    1
     2     1     2    1
     3    66    67    2
     4    66    65    1
     5     5     2    1
     6     5     7    1
     7     2     3    1
     8    65    68    1
     9    65    64    1
    10     4     3    2
    11     3     8   am
    12    68    69    1
    13    57    56    2
    14    64    56   am
    15    56    55    1
    16    58    59    1
    17    58    55    1
    18     8     9    1
    19    70    69    2
    20    69    71   am
    21    60    59   ar
    22    60    62   ar
    23    20    18    1
    24    59    61   ar
    25    55    54    1
    26    54    50   am
    27    62    63   ar
    28     9    10    1
    29     9    12    1
    30    61    63   ar
    31    19    18    1
    32    18    15    1
    33    10    14   am
    34    10    11    2
    35    12    13    1
    36    14    15    1
    37    48    49    1
    38    50    49    1
    39    50    51    2
    40    49    52    1
    41    15    16    1
    42    13    53    1
    43    52    53    1
    44    16    17    2
    45    47    45    1
    46    45    46    1
    47    45    42    1
    48    42    43    1
    49    42    41    1
    50    43    44    2
    51    41    36   am
    52    24    23    2
    53    21    22    1
    54    37    36    2
    55    36    35    1
    56    23    22    1
    57    23    27   am
    58    25    22    1
    59    25    26    1
    60    35    34    1
    61    35    38    1
    62    30    29    2
    63    34    29   am
    64    29    28    1
    65    27    28    1
    66    28    31    1
    67    38    39    1
    68    38    40    1
    69    31    33    1
    70    31    32    1
