@<TRIPOS>MOLECULE
tmp/4ppmA00.pdb
 111 105 0 0 0
SMALL
GASTEIGER

@<TRIPOS>ATOM
      1  N         79.6770  302.4520   12.9350 N.3   131  SER131     -0.1202
      2  CA        79.2250  303.7280   12.4100 C.3   131  SER131      0.2020
      3  C         80.1070  304.2470   11.3140 C.2   131  SER131      0.2619
      4  O         81.1010  303.6780   11.0670 O.2   131  SER131     -0.2717
      5  CB        79.1330  304.7790   13.4970 C.3   131  SER131      0.2103
      6  OG        80.3830  305.1720   13.9480 O.3   131  SER131     -0.2182
      7  N         79.6870  305.3350   10.6910 N.am  132  GLY132     -0.1942
      8  CA        80.3880  305.9840    9.6240 C.3   132  GLY132      0.2014
      9  C         81.7090  306.5130   10.0450 C.2   132  GLY132      0.2639
     10  O         82.7040  306.0810    9.5750 O.2   132  GLY132     -0.2714
     11  N         81.6850  307.4340   10.9670 N.am  133  THR133     -0.1950
     12  CA        82.8700  307.9420   11.5520 C.3   133  THR133      0.1897
     13  C         83.8940  306.8810   11.9940 C.2   133  THR133      0.2313
     14  O         85.0520  307.0380   11.7910 O.2   133  THR133     -0.2863
     15  CB        82.4850  308.8800   12.6790 C.3   133  THR133      0.1794
     16  OG1       83.5250  309.8130   12.8650 O.3   133  THR133     -0.2208
     17  CG2       82.1890  308.1420   13.9490 C.3   133  THR133      0.0378
     18  N         85.4570  305.3450    9.0370 N.3   136  VAL136     -0.1245
     19  CA        86.4420  306.2830    8.5910 C.3   136  VAL136      0.1561
     20  C         87.7460  306.2180    9.3990 C.2   136  VAL136      0.2260
     21  O         88.7770  306.1980    8.8370 O.2   136  VAL136     -0.2867
     22  CB        85.8650  307.7000    8.4800 C.3   136  VAL136      0.0252
     23  CG1       86.9450  308.7670    8.4010 C.3   136  VAL136      0.0019
     24  CG2       84.9720  307.7930    7.2860 C.3   136  VAL136      0.0019
     25  N         82.6640  315.7140    4.2230 N.3   159  TYR159     -0.1227
     26  CA        82.1080  315.3070    5.4820 C.3   159  TYR159      0.1736
     27  C         82.4250  313.8450    5.7240 C.2   159  TYR159      0.2595
     28  O         82.0550  313.0110    4.9720 O.2   159  TYR159     -0.2718
     29  CB        80.6170  315.5920    5.5530 C.3   159  TYR159      0.0548
     30  CG        80.0700  315.2450    6.8640 C.ar  159  TYR159     -0.0200
     31  CD1       80.1300  316.1160    7.9010 C.ar  159  TYR159     -0.0009
     32  CD2       79.5410  314.0050    7.0900 C.ar  159  TYR159     -0.0009
     33  CE1       79.6700  315.7820    9.1220 C.ar  159  TYR159      0.0417
     34  CE2       79.0770  313.6670    8.3070 C.ar  159  TYR159      0.0417
     35  CZ        79.1430  314.5690    9.3130 C.ar  159  TYR159      0.1957
     36  OH        78.6790  314.2130   10.5180 O.3   159  TYR159     -0.2866
     37  N         83.1340  313.5470    6.7860 N.am  160  HIS160     -0.1961
     38  CA        83.5690  312.2050    7.0550 C.3   160  HIS160      0.1787
     39  C         83.2780  311.7460    8.4660 C.2   160  HIS160      0.2620
     40  O         83.6480  310.6910    8.8250 O.2   160  HIS160     -0.2715
     41  CB        85.0410  312.0830    6.7680 C.3   160  HIS160      0.0785
     42  CG        85.3870  312.2110    5.3340 C.ar  160  HIS160      0.0821
     43  ND1       85.0650  311.2580    4.4110 N.ar  160  HIS160     -0.2267
     44  CD2       86.0160  313.1890    4.6570 C.ar  160  HIS160      0.1154
     45  CE1       85.4770  311.6390    3.2270 C.ar  160  HIS160      0.1986
     46  NE2       86.0550  312.8100    3.3500 N.ar  160  HIS160     -0.2212
     47  N         82.6320  312.5650    9.2670 N.am  161  GLY161     -0.1954
     48  CA        82.3150  312.1940   10.6260 C.3   161  GLY161      0.1869
     49  C         82.8510  313.0940   11.6990 C.2   161  GLY161      0.2309
     50  O         83.6010  314.0040   11.4520 O.2   161  GLY161     -0.2863
     51  N         84.6940  311.4690   -1.4160 N.3   212  GLU212     -0.1245
     52  CA        83.3740  310.9220   -1.4990 C.3   212  GLU212      0.1567
     53  C         83.0020  310.9090   -2.9630 C.2   212  GLU212      0.2260
     54  O         83.3470  311.8120   -3.6390 O.2   212  GLU212     -0.2867
     55  CB        82.3660  311.7860   -0.7470 C.3   212  GLU212      0.0388
     56  CG        82.5160  311.8840    0.7580 C.3   212  GLU212      0.1160
     57  CD        82.0070  313.2050    1.3210 C.2   212  GLU212      0.3649
     58  OE1       80.8160  313.3880    1.4930 O.co2 212  GLU212     -0.2457
     59  OE2       82.7850  314.0840    1.5850 O.co2 212  GLU212     -0.2457
     60  N         78.0750  315.0330    0.0800 N.3   216  GLY216     -0.1210
     61  CA        76.7080  315.0770    0.5140 C.3   216  GLY216      0.1956
     62  C         76.3620  316.1980    1.4330 C.2   216  GLY216      0.2611
     63  O         75.6440  317.1060    1.0760 O.2   216  GLY216     -0.2717
     64  N         76.9050  316.1090    2.6300 N.am  217  GLU217     -0.1979
     65  CA        76.8350  317.1720    3.6040 C.3   217  GLU217      0.1602
     66  C         77.5730  318.4050    3.1420 C.2   217  GLU217      0.2287
     67  O         77.6620  319.3480    3.8680 O.2   217  GLU217     -0.2864
     68  CB        77.5110  316.7590    4.8930 C.3   217  GLU217      0.0415
     69  CG        76.5880  316.7560    6.0840 C.3   217  GLU217      0.1163
     70  CD        75.2990  316.0010    5.8470 C.2   217  GLU217      0.3649
     71  OE1       74.2370  316.6020    5.9860 O.co2 217  GLU217     -0.2457
     72  OE2       75.3490  314.8050    5.5250 O.co2 217  GLU217     -0.2457
     73  N         84.9270  307.1780    0.5200 N.3   245  ASP245     -0.1239
     74  CA        83.9010  307.1810    1.5010 C.3   245  ASP245      0.1674
     75  C         82.5150  307.0590    0.8780 C.2   245  ASP245      0.2266
     76  O         81.9890  308.0030    0.4160 O.2   245  ASP245     -0.2867
     77  CB        84.0110  308.4340    2.3610 C.3   245  ASP245      0.1410
     78  CG        83.0950  308.4000    3.5670 C.2   245  ASP245      0.3668
     79  OD1       82.3160  307.4840    3.6700 O.co2 245  ASP245     -0.2456
     80  OD2       83.1630  309.2820    4.4080 O.co2 245  ASP245     -0.2456
     81  N         79.7450  306.0010    2.6560 N.3   247  VAL247     -0.1231
     82  CA        78.8260  305.8420    3.7510 C.3   247  VAL247      0.1692
     83  C         77.4600  306.3840    3.3420 C.2   247  VAL247      0.2591
     84  O         76.4770  305.8880    3.7360 O.2   247  VAL247     -0.2718
     85  CB        79.3890  306.4790    5.0450 C.3   247  VAL247      0.0266
     86  CG1       78.3200  306.8340    6.0270 C.3   247  VAL247      0.0020
     87  CG2       80.4210  305.5880    5.6760 C.3   247  VAL247      0.0020
     88  N         77.4610  307.4100    2.5260 N.am  248  GLN248     -0.1979
     89  CA        76.2810  308.0720    2.0940 C.3   248  GLN248      0.1601
     90  C         75.8180  307.7110    0.6940 C.2   248  GLN248      0.2287
     91  O         74.6690  307.5500    0.4880 O.2   248  GLN248     -0.2864
     92  CB        76.5020  309.5470    2.2120 C.3   248  GLN248      0.0394
     93  CG        75.3040  310.3690    1.8610 C.3   248  GLN248      0.0908
     94  CD        74.2270  310.2800    2.8900 C.2   248  GLN248      0.2608
     95  OE1       73.5910  309.2910    2.9970 O.2   248  GLN248     -0.2717
     96  NE2       74.0400  311.3250    3.6510 N.am  248  GLN248     -0.0878
     97  N         78.4880  302.6690    5.6340 N.3   273  SER273     -0.1202
     98  CA        77.6330  302.5760    6.7980 C.3   273  SER273      0.2020
     99  C         76.1710  302.9170    6.4810 C.2   273  SER273      0.2618
    100  O         75.5520  302.2380    5.7570 O.2   273  SER273     -0.2717
    101  CB        78.1590  303.4220    7.9350 C.3   273  SER273      0.2103
    102  OG        77.7430  302.9080    9.1210 O.3   273  SER273     -0.2182
    103  N         75.6550  303.9980    7.0150 N.am  274  LYS274     -0.1979
    104  CA        74.2700  304.3970    6.8990 C.3   274  LYS274      0.1596
    105  C         73.2220  303.2960    6.7080 C.2   274  LYS274      0.2287
    106  O         72.7730  302.7740    7.6680 O.2   274  LYS274     -0.2864
    107  CB        74.0910  305.5830    5.9880 C.3   274  LYS274      0.0298
    108  CG        74.1160  306.8630    6.7710 C.3   274  LYS274      0.0038
    109  CD        74.9010  307.9750    6.1490 C.3   274  LYS274      0.0206
    110  CE        74.6890  309.2640    6.8920 C.3   274  LYS274      0.1093
    111  NZ        75.9480  309.7870    7.4570 N.3   274  LYS274     -0.1314
@<TRIPOS>BOND
     1    54    53    2
     2    53    52    1
     3    52    51    1
     4    52    55    1
     5    55    56    1
     6    60    61    1
     7    76    75    2
     8    91    90    2
     9    61    62    1
    10    73    74    1
    11    90    89    1
    12    56    57    1
    13    75    74    1
    14    63    62    2
    15    57    58   ar
    16    57    59   ar
    17    62    64   am
    18    74    77    1
    19    93    92    1
    20    93    94    1
    21    89    92    1
    22    89    88    1
    23    77    78    1
    24    88    83   am
    25    64    65    1
    26    81    82    1
    27    94    95    2
    28    94    96   am
    29    66    65    1
    30    66    67    2
    31    45    46   ar
    32    45    43   ar
    33    83    84    2
    34    83    82    1
    35    46    44   ar
    36    78    79   ar
    37    78    80   ar
    38    65    68    1
    39    82    85    1
    40    25    26    1
    41    43    42   ar
    42    44    42   ar
    43    68    69    1
    44    28    27    2
    45    85    87    1
    46    85    86    1
    47    42    41    1
    48    26    29    1
    49    26    27    1
    50    72    70   ar
    51    29    30    1
    52    97    98    1
    53    27    37   am
    54   100    99    2
    55    70    71   ar
    56    70    69    1
    57   107   108    1
    58   107   104    1
    59   109   108    1
    60   109   110    1
    61    99    98    1
    62    99   103   am
    63   105   104    1
    64   105   106    2
    65    41    38    1
    66    37    38    1
    67    98   101    1
    68    30    32   ar
    69    30    31   ar
    70   110   111    1
    71   104   103    1
    72    38    39    1
    73    32    34   ar
    74    24    22    1
    75    31    33   ar
    76   101   102    1
    77    34    35   ar
    78    23    22    1
    79    39    40    2
    80    39    47   am
    81    22    19    1
    82    19    18    1
    83    19    20    1
    84    21    20    2
    85    33    35   ar
    86    47    48    1
    87    35    36    1
    88    10     9    2
    89     8     9    1
    90     8     7    1
    91     9    11   am
    92    48    49    1
    93     7     3   am
    94    11    12    1
    95     4     3    2
    96     3     2    1
    97    50    49    2
    98    12    13    1
    99    12    15    1
   100    14    13    2
   101     2     1    1
   102     2     5    1
   103    15    16    1
   104    15    17    1
   105     5     6    1
