@<TRIPOS>MOLECULE
tmp/4pprA00.pdb
 130 121 0 0 0
SMALL
GASTEIGER

@<TRIPOS>ATOM
      1  N        -24.5620  -15.2760    5.3520 N.3    62  ALA62      -0.1231
      2  CA       -25.3990  -15.3970    6.5450 C.3    62  ALA62       0.1694
      3  C        -24.5000  -15.5510    7.7790 C.2    62  ALA62       0.2592
      4  O        -23.4170  -14.9690    7.8320 O.2    62  ALA62      -0.2718
      5  CB       -26.3720  -16.5660    6.4180 C.3    62  ALA62       0.0304
      6  N        -24.9230  -16.3460    8.7570 N.am   63  SER63      -0.1952
      7  CA       -24.2260  -16.3960   10.0500 C.3    63  SER63       0.1924
      8  C        -22.8050  -16.9870   10.0450 C.2    63  SER63       0.2314
      9  O        -22.0690  -16.8130   11.0190 O.2    63  SER63      -0.2863
     10  CB       -25.0640  -17.1820   11.0690 C.3    63  SER63       0.2116
     11  OG       -26.1990  -16.4420   11.4970 O.3    63  SER63      -0.2180
     12  N        -19.7050  -15.0140   11.1040 N.3    66  LYS66      -0.1245
     13  CA       -19.4060  -14.7130   12.5120 C.3    66  LYS66       0.1561
     14  C        -17.9740  -15.0820   12.8960 C.2    66  LYS66       0.2260
     15  O        -17.4580  -14.6160   13.9100 O.2    66  LYS66      -0.2867
     16  CB       -20.3810  -15.4400   13.4490 C.3    66  LYS66       0.0271
     17  CG       -21.7710  -14.8170   13.5280 C.3    66  LYS66       0.0035
     18  CD       -22.6560  -15.6120   14.4890 C.3    66  LYS66       0.0206
     19  CE       -23.8890  -14.8140   14.9200 C.3    66  LYS66       0.1093
     20  NZ       -24.9070  -14.7060   13.8320 N.3    66  LYS66      -0.1314
     21  N        -33.0940  -11.6810   15.0070 N.3    94  GLY94      -0.1210
     22  CA       -32.5640  -13.0260   14.9390 C.3    94  GLY94       0.1956
     23  C        -32.3160  -13.6540   16.2960 C.2    94  GLY94       0.2612
     24  O        -32.7970  -13.1810   17.3290 O.2    94  GLY94      -0.2717
     25  N        -31.5400  -14.7300   16.2800 N.am   95  THR95      -0.1952
     26  CA       -31.2700  -15.5230   17.4670 C.3    95  THR95       0.1897
     27  C        -30.4450  -14.7500   18.4930 C.2    95  THR95       0.2313
     28  O        -29.5410  -13.9930   18.1390 O.2    95  THR95      -0.2863
     29  CB       -30.5390  -16.8210   17.0850 C.3    95  THR95       0.1794
     30  OG1      -29.5010  -16.5130   16.1510 O.3    95  THR95      -0.2208
     31  CG2      -31.5000  -17.7940   16.4270 C.3    95  THR95       0.0378
     32  N        -25.2420  -18.9610   17.6290 N.3   118  SER118     -0.1217
     33  CA       -25.3230  -17.9100   16.6180 C.3   118  SER118      0.1889
     34  C        -25.9590  -16.6340   17.1820 C.2   118  SER118      0.2288
     35  O        -26.6880  -15.9210   16.4890 O.2   118  SER118     -0.2866
     36  CB       -26.1000  -18.4110   15.3950 C.3   118  SER118      0.2089
     37  OG       -25.7290  -17.7060   14.2190 O.3   118  SER118     -0.2183
     38  N        -26.8470  -13.2400   17.8340 N.3   120  ASN120     -0.1240
     39  CA       -26.6350  -11.9460   17.1980 C.3   120  ASN120      0.1653
     40  C        -26.3950  -10.8510   18.2290 C.2   120  ASN120      0.2266
     41  O        -25.7460   -9.8480   17.9350 O.2   120  ASN120     -0.2867
     42  CB       -27.8230  -11.5800   16.3090 C.3   120  ASN120      0.1155
     43  CG       -27.8790  -12.4130   15.0390 C.2   120  ASN120      0.2627
     44  OD1      -26.8870  -13.0270   14.6370 O.2   120  ASN120     -0.2716
     45  ND2      -29.0390  -12.4270   14.3920 N.am  120  ASN120     -0.0877
     46  N        -22.8070   -9.9950   12.4510 N.3   158  SER158     -0.1202
     47  CA       -23.6430  -11.1630   12.7460 C.3   158  SER158      0.2020
     48  C        -23.9440  -12.0310   11.5240 C.2   158  SER158      0.2619
     49  O        -24.2670  -13.2110   11.6590 O.2   158  SER158     -0.2717
     50  CB       -24.9670  -10.7160   13.3620 C.3   158  SER158      0.2103
     51  OG       -25.7180   -9.9920   12.4040 O.3   158  SER158     -0.2182
     52  N        -23.8650  -11.4410   10.3380 N.am  159  GLY159     -0.1942
     53  CA       -24.2310  -12.1510    9.1290 C.3   159  GLY159      0.2014
     54  C        -25.5450  -11.6860    8.5360 C.2   159  GLY159      0.2638
     55  O        -25.9060  -12.0960    7.4330 O.2   159  GLY159     -0.2714
     56  N        -26.2650  -10.8420    9.2690 N.am  160  LEU160     -0.1977
     57  CA       -27.4870  -10.2330    8.7490 C.3   160  LEU160      0.1596
     58  C        -27.1930   -9.5460    7.4240 C.2   160  LEU160      0.2287
     59  O        -26.1360   -8.9340    7.2720 O.2   160  LEU160     -0.2864
     60  CB       -28.0630   -9.2350    9.7520 C.3   160  LEU160      0.0297
     61  CG       -28.6730   -9.8410   11.0180 C.3   160  LEU160      0.0022
     62  CD1      -28.9530   -8.7660   12.0610 C.3   160  LEU160      0.0001
     63  CD2      -29.9520  -10.6010   10.6760 C.3   160  LEU160      0.0001
     64  N        -25.8480  -25.7710   18.6780 N.3   210  ASP210     -0.1239
     65  CA       -26.9150  -26.0390   17.7180 C.3   210  ASP210      0.1674
     66  C        -26.4690  -26.9560   16.5810 C.2   210  ASP210      0.2266
     67  O        -27.2950  -27.4900   15.8440 O.2   210  ASP210     -0.2867
     68  CB       -27.4540  -24.7220   17.1360 C.3   210  ASP210      0.1410
     69  CG       -26.3610  -23.8540   16.5130 C.2   210  ASP210      0.3668
     70  OD1      -25.1960  -24.3000   16.4480 O.co2 210  ASP210     -0.2456
     71  OD2      -26.6730  -22.7230   16.0760 O.co2 210  ASP210     -0.2456
     72  N        -20.4860  -24.4110   11.8790 N.3   224  LYS224     -0.1231
     73  CA       -21.3100  -23.2230   12.0310 C.3   224  LYS224      0.1693
     74  C        -22.3950  -23.1630   10.9660 C.2   224  LYS224      0.2593
     75  O        -22.1320  -23.3220    9.7750 O.2   224  LYS224     -0.2718
     76  CB       -20.4470  -21.9630   11.9790 C.3   224  LYS224      0.0285
     77  CG       -21.2240  -20.6760   12.2410 C.3   224  LYS224      0.0035
     78  CD       -21.5890  -20.5380   13.7050 C.3   224  LYS224      0.0206
     79  CE       -22.6340  -19.4600   13.8990 C.3   224  LYS224      0.1093
     80  NZ       -23.9730  -19.9090   13.4420 N.3   224  LYS224     -0.1314
     81  N        -23.6210  -22.9330   11.4170 N.am  225  THR225     -0.1939
     82  CA       -24.7730  -22.8540   10.5380 C.3   225  THR225      0.2028
     83  C        -25.0840  -21.4180   10.1420 C.2   225  THR225      0.2643
     84  O        -24.6360  -20.4750   10.7900 O.2   225  THR225     -0.2714
     85  CB       -26.0210  -23.4470   11.2130 C.3   225  THR225      0.1808
     86  OG1      -26.1450  -22.8910   12.5270 O.3   225  THR225     -0.2208
     87  CG2      -25.8960  -24.9470   11.3310 C.3   225  THR225      0.0379
     88  N        -25.8760  -21.2650    9.0880 N.am  226  GLY226     -0.1939
     89  CA       -26.3920  -19.9680    8.7050 C.3   226  GLY226      0.2014
     90  C        -27.5610  -20.0480    7.7410 C.2   226  GLY226      0.2639
     91  O        -27.6900  -21.0060    6.9790 O.2   226  GLY226     -0.2714
     92  N        -28.4240  -19.0410    7.7970 N.am  227  TYR227     -0.1959
     93  CA       -29.4670  -18.8380    6.7960 C.3   227  TYR227      0.1771
     94  C        -29.9580  -17.3990    6.8130 C.2   227  TYR227      0.2620
     95  O        -30.1880  -16.8310    7.8780 O.2   227  TYR227     -0.2715
     96  CB       -30.6670  -19.7730    7.0130 C.3   227  TYR227      0.0574
     97  CG       -31.8780  -19.3450    6.1900 C.ar  227  TYR227     -0.0198
     98  CD1      -31.9970  -19.7050    4.8520 C.ar  227  TYR227     -0.0009
     99  CD2      -32.8770  -18.5470    6.7400 C.ar  227  TYR227     -0.0009
    100  CE1      -33.0810  -19.2970    4.0910 C.ar  227  TYR227      0.0417
    101  CE2      -33.9600  -18.1310    5.9860 C.ar  227  TYR227      0.0417
    102  CZ       -34.0590  -18.5100    4.6640 C.ar  227  TYR227      0.1957
    103  OH       -35.1390  -18.1000    3.9150 O.3   227  TYR227     -0.2866
    104  N        -30.1180  -16.8200    5.6270 N.am  228  THR228     -0.1951
    105  CA       -30.9140  -15.6070    5.4450 C.3   228  THR228      0.1897
    106  C        -31.6920  -15.7180    4.1400 C.2   228  THR228      0.2313
    107  O        -31.4160  -16.5890    3.3120 O.2   228  THR228     -0.2863
    108  CB       -30.0730  -14.3120    5.3920 C.3   228  THR228      0.1794
    109  OG1      -29.2460  -14.3220    4.2220 O.3   228  THR228     -0.2208
    110  CG2      -29.2150  -14.1360    6.6400 C.3   228  THR228      0.0378
    111  N        -29.3040  -21.3230    2.6120 N.3   233  GLN233     -0.1245
    112  CA       -28.6160  -22.1040    3.6350 C.3   233  GLN233      0.1566
    113  C        -27.1020  -22.0450    3.4610 C.2   233  GLN233      0.2260
    114  O        -26.5950  -22.2870    2.3670 O.2   233  GLN233     -0.2867
    115  CB       -29.0720  -23.5660    3.5920 C.3   233  GLN233      0.0367
    116  CG       -30.5590  -23.7540    3.8200 C.3   233  GLN233      0.0905
    117  CD       -30.9670  -23.3920    5.2290 C.2   233  GLN233      0.2608
    118  OE1      -30.1670  -23.4870    6.1590 O.2   233  GLN233     -0.2717
    119  NE2      -32.2160  -22.9700    5.3970 N.am  233  GLN233     -0.0878
    120  N        -32.6050  -26.7810    2.3310 N.3   255  ARG255     -0.1245
    121  CA       -32.7340  -27.8860    3.2740 C.3   255  ARG255      0.1563
    122  C        -33.2080  -29.1570    2.5670 C.2   255  ARG255      0.2260
    123  O        -33.5390  -30.1500    3.2160 O.2   255  ARG255     -0.2867
    124  CB       -33.6980  -27.5240    4.4100 C.3   255  ARG255      0.0307
    125  CG       -33.4210  -26.1780    5.0690 C.3   255  ARG255      0.0489
    126  CD       -34.1110  -26.0730    6.4260 C.3   255  ARG255      0.2205
    127  NE       -33.5140  -26.9900    7.3940 N.pl3 255  ARG255     -0.0865
    128  CZ       -32.4630  -26.6940    8.1540 C.cat 255  ARG255      0.5346
    129  NH1      -31.8880  -25.4960    8.0710 N.pl3 255  ARG255      0.1354
    130  NH2      -31.9820  -27.5960    9.0000 N.pl3 255  ARG255      0.1354
@<TRIPOS>BOND
     1   120   121    1
     2   114   113    2
     3   122   123    2
     4   122   121    1
     5   111   112    1
     6   121   124    1
     7   107   106    2
     8   113   112    1
     9   115   112    1
    10   115   116    1
    11   116   117    1
    12   103   102    1
    13   100   102   ar
    14   100    98   ar
    15   106   105    1
    16   109   108    1
    17   124   125    1
    18   102   101   ar
    19    98    97   ar
    20   125   126    1
    21   117   119   am
    22   117   118    2
    23     1     2    1
    24   108   105    1
    25   108   110    1
    26   105   104    1
    27   104    94   am
    28   101    99   ar
    29    97    99   ar
    30    97    96    1
    31     5     2    1
    32   126   127    1
    33     2     3    1
    34    93    94    1
    35    93    96    1
    36    93    92    1
    37    94    95    2
    38    91    90    2
    39    59    58    2
    40   127   128    2
    41    58    57    1
    42    55    54    2
    43    90    92   am
    44    90    89    1
    45     3     4    2
    46     3     6   am
    47   129   128    1
    48   128   130    1
    49    54    53    1
    50    54    56   am
    51    89    88    1
    52    57    56    1
    53    57    60    1
    54     6     7    1
    55    88    83   am
    56    53    52    1
    57    60    61    1
    58    75    74    2
    59     8     7    1
    60     8     9    2
    61     7    10    1
    62    83    82    1
    63    83    84    2
    64    52    48   am
    65    82    85    1
    66    82    81    1
    67    63    61    1
    68    74    81   am
    69    74    73    1
    70    61    62    1
    71    10    11    1
    72    12    13    1
    73    85    87    1
    74    85    86    1
    75    48    49    2
    76    48    47    1
    77    72    73    1
    78    76    73    1
    79    76    77    1
    80    77    78    1
    81    51    50    1
    82    46    47    1
    83    13    14    1
    84    13    16    1
    85    47    50    1
    86    14    15    2
    87    80    79    1
    88    16    17    1
    89    17    18    1
    90    78    79    1
    91    20    19    1
    92    37    36    1
    93    45    43   am
    94    18    19    1
    95    44    43    2
    96    22    21    1
    97    22    23    1
    98    43    42    1
    99    36    33    1
   100    67    66    2
   101    71    69   ar
   102    30    29    1
   103    25    23   am
   104    25    26    1
   105    23    24    2
   106    42    39    1
   107    31    29    1
   108    70    69   ar
   109    35    34    2
   110    69    68    1
   111    66    65    1
   112    33    34    1
   113    33    32    1
   114    29    26    1
   115    68    65    1
   116    39    38    1
   117    39    40    1
   118    26    27    1
   119    65    64    1
   120    41    40    2
   121    28    27    2
