@<TRIPOS>MOLECULE
tmp/4ppsB01.pdb
 170 161 0 0 0
SMALL
GASTEIGER

@<TRIPOS>ATOM
      1  N         32.3570   -8.1060    6.0960 N.3    39  MET39      -0.1245
      2  CA        32.0020   -6.7640    6.5520 C.3    39  MET39       0.1570
      3  C         32.2380   -5.7480    5.4370 C.2    39  MET39       0.2261
      4  O         31.4490   -4.8220    5.2530 O.2    39  MET39      -0.2867
      5  CB        32.7950   -6.3750    7.8020 C.3    39  MET39       0.0387
      6  CG        32.2820   -7.0010    9.0870 C.3    39  MET39       0.0595
      7  SD        30.5880   -6.5050    9.4820 S.3    39  MET39      -0.1393
      8  CE        30.6820   -4.7330    9.2240 C.3    39  MET39       0.0692
      9  N         29.2800   -6.0970    2.8200 N.3    42  LEU42      -0.1231
     10  CA        28.0230   -5.5480    3.3140 C.3    42  LEU42       0.1693
     11  C         28.0640   -4.0300    3.4570 C.2    42  LEU42       0.2592
     12  O         27.0760   -3.3520    3.1720 O.2    42  LEU42      -0.2718
     13  CB        27.6430   -6.1990    4.6460 C.3    42  LEU42       0.0284
     14  CG        27.5240   -7.7240    4.5850 C.3    42  LEU42       0.0019
     15  CD1       27.2960   -8.3150    5.9710 C.3    42  LEU42       0.0001
     16  CD2       26.4140   -8.1300    3.6300 C.3    42  LEU42       0.0001
     17  N         29.2000   -3.4960    3.8970 N.am   43  THR43      -0.1953
     18  CA        29.3150   -2.0500    4.0760 C.3    43  THR43       0.1897
     19  C         29.5030   -1.3230    2.7440 C.2    43  THR43       0.2313
     20  O         29.0010   -0.2130    2.5630 O.2    43  THR43      -0.2863
     21  CB        30.4350   -1.6650    5.0670 C.3    43  THR43       0.1794
     22  OG1       31.6540   -2.3180    4.6940 O.3    43  THR43      -0.2208
     23  CG2       30.0520   -2.0770    6.4850 C.3    43  THR43       0.0378
     24  N         28.1660   -2.3400    0.0270 N.3    45  LEU45      -0.1231
     25  CA        26.7930   -2.3760   -0.4710 C.3    45  LEU45       0.1693
     26  C         25.9320   -1.2790    0.1510 C.2    45  LEU45       0.2591
     27  O         25.2610   -0.5310   -0.5600 O.2    45  LEU45      -0.2718
     28  CB        26.1620   -3.7440   -0.1930 C.3    45  LEU45       0.0284
     29  CG        24.7240   -3.9710   -0.6660 C.3    45  LEU45       0.0019
     30  CD1       24.5850   -3.7010   -2.1500 C.3    45  LEU45       0.0001
     31  CD2       24.2800   -5.3880   -0.3420 C.3    45  LEU45       0.0001
     32  N         25.9460   -1.1880    1.4780 N.am   46  ALA46      -0.1980
     33  CA        25.1490   -0.1810    2.1710 C.3    46  ALA46       0.1597
     34  C         25.4900    1.2120    1.6570 C.2    46  ALA46       0.2287
     35  O         24.6080    2.0570    1.4870 O.2    46  ALA46      -0.2864
     36  CB        25.3610   -0.2600    3.6790 C.3    46  ALA46       0.0319
     37  N         23.9640    1.8380   -1.6840 N.3    49  GLU49      -0.1245
     38  CA        22.5280    1.9360   -1.4530 C.3    49  GLU49       0.1567
     39  C         22.1420    3.3010   -0.8820 C.2    49  GLU49       0.2260
     40  O         21.0880    3.8480   -1.2150 O.2    49  GLU49      -0.2867
     41  CB        22.0540    0.8340   -0.5070 C.3    49  GLU49       0.0388
     42  CG        22.0050   -0.5530   -1.1260 C.3    49  GLU49       0.1160
     43  CD        21.3810   -1.5660   -0.1860 C.2    49  GLU49       0.3649
     44  OE1       22.0660   -1.9960    0.7630 O.co2  49  GLU49      -0.2457
     45  OE2       20.2000   -1.9210   -0.3880 O.co2  49  GLU49      -0.2457
     46  N         18.2590    5.7400    8.3630 N.3    79  TRP79      -0.1227
     47  CA        18.9440    5.1000    7.2320 C.3    79  TRP79       0.1737
     48  C         19.0660    3.5820    7.3490 C.2    79  TRP79       0.2595
     49  O         18.8200    2.8650    6.3790 O.2    79  TRP79      -0.2718
     50  CB        20.3200    5.7260    6.9590 C.3    79  TRP79       0.0564
     51  CG        21.3590    5.4630    8.0120 C.ar   79  TRP79       0.0003
     52  CD1       21.5970    6.2060    9.1310 C.ar   79  TRP79       0.0946
     53  CD2       22.3160    4.3930    8.0330 C.ar   79  TRP79       0.0152
     54  NE1       22.6320    5.6620    9.8520 N.ar   79  TRP79      -0.2442
     55  CE2       23.0910    4.5490    9.2010 C.ar   79  TRP79       0.0810
     56  CE3       22.5870    3.3180    7.1820 C.ar   79  TRP79       0.0012
     57  CZ2       24.1180    3.6680    9.5400 C.ar   79  TRP79       0.0191
     58  CZ3       23.6090    2.4440    7.5210 C.ar   79  TRP79       0.0001
     59  CH2       24.3620    2.6260    8.6870 C.ar   79  TRP79       0.0015
     60  N         19.4480    3.0920    8.5250 N.am   80  LEU80      -0.1980
     61  CA        19.6480    1.6540    8.6930 C.3    80  LEU80       0.1596
     62  C         18.3210    0.9020    8.7610 C.2    80  LEU80       0.2287
     63  O         18.1990   -0.1980    8.2220 O.2    80  LEU80      -0.2864
     64  CB        20.5350    1.3450    9.9020 C.3    80  LEU80       0.0297
     65  CG        20.9140   -0.1320   10.0800 C.3    80  LEU80       0.0022
     66  CD1       21.4580   -0.7250    8.7780 C.3    80  LEU80       0.0001
     67  CD2       21.9170   -0.3100   11.2150 C.3    80  LEU80       0.0001
     68  N         17.3900    0.5860    5.1330 N.3    83  LEU83      -0.1231
     69  CA        18.1500   -0.4830    4.4950 C.3    83  LEU83       0.1693
     70  C         17.6220   -1.8460    4.9270 C.2    83  LEU83       0.2591
     71  O         17.4880   -2.7620    4.1140 O.2    83  LEU83      -0.2718
     72  CB        19.6400   -0.3740    4.8310 C.3    83  LEU83       0.0284
     73  CG        20.4100    0.7850    4.1990 C.3    83  LEU83       0.0019
     74  CD1       21.8590    0.7700    4.6640 C.3    83  LEU83       0.0001
     75  CD2       20.3350    0.6990    2.6760 C.3    83  LEU83       0.0001
     76  N         17.3180   -1.9830    6.2120 N.am   84  MET84      -0.1979
     77  CA        16.8860   -3.2740    6.7290 C.3    84  MET84       0.1605
     78  C         15.5050   -3.6870    6.2280 C.2    84  MET84       0.2287
     79  O         15.2920   -4.8510    5.8970 O.2    84  MET84      -0.2864
     80  CB        16.9490   -3.3020    8.2560 C.3    84  MET84       0.0413
     81  CG        18.3630   -3.4700    8.7910 C.3    84  MET84       0.0598
     82  SD        18.4240   -3.3850   10.5850 S.3    84  MET84      -0.1393
     83  CE        20.1300   -3.8410   10.8840 C.3    84  MET84       0.0692
     84  N         15.9450   -4.9330    2.7650 N.3    87  LEU87      -0.1245
     85  CA        16.5510   -6.2590    2.7700 C.3    87  LEU87       0.1561
     86  C         15.5220   -7.3400    3.0990 C.2    87  LEU87       0.2260
     87  O         15.4270   -8.3550    2.4080 O.2    87  LEU87      -0.2867
     88  CB        17.7030   -6.3120    3.7770 C.3    87  LEU87       0.0270
     89  CG        18.2830   -7.7000    4.0590 C.3    87  LEU87       0.0019
     90  CD1       19.0260   -8.2290    2.8470 C.3    87  LEU87       0.0001
     91  CD2       19.1960   -7.6740    5.2830 C.3    87  LEU87       0.0001
     92  N         13.0730   -7.8660    0.0630 N.3    90  ARG90      -0.1245
     93  CA        13.5480   -8.6260   -1.0880 C.3    90  ARG90       0.1563
     94  C         13.9490  -10.0530   -0.7180 C.2    90  ARG90       0.2260
     95  O         14.1390  -10.8930   -1.5920 O.2    90  ARG90      -0.2867
     96  CB        14.6720   -7.8960   -1.8340 C.3    90  ARG90       0.0307
     97  CG        15.9140   -7.6010   -1.0220 C.3    90  ARG90       0.0489
     98  CD        16.9180   -6.8040   -1.8540 C.3    90  ARG90       0.2205
     99  NE        18.1220   -6.4910   -1.0910 N.pl3  90  ARG90      -0.0865
    100  CZ        18.2990   -5.3640   -0.4090 C.cat  90  ARG90       0.5346
    101  NH1       17.3540   -4.4340   -0.4070 N.pl3  90  ARG90       0.1354
    102  NH2       19.4230   -5.1610    0.2640 N.pl3  90  ARG90       0.1354
    103  N         20.9030   -9.9350    0.2720 N.3   100  PHE100     -0.1241
    104  CA        21.5630   -8.6360    0.3200 C.3   100  PHE100      0.1605
    105  C         21.6840   -8.0850   -1.0920 C.2   100  PHE100      0.2264
    106  O         21.4540   -6.9000   -1.3340 O.2   100  PHE100     -0.2867
    107  CB        22.9360   -8.7420    0.9900 C.3   100  PHE100      0.0534
    108  CG        22.8680   -8.8150    2.4920 C.ar  100  PHE100     -0.0203
    109  CD1       22.7310   -7.6590    3.2460 C.ar  100  PHE100     -0.0042
    110  CD2       22.9330  -10.0330    3.1470 C.ar  100  PHE100     -0.0042
    111  CE1       22.6620   -7.7150    4.6240 C.ar  100  PHE100     -0.0003
    112  CE2       22.8640  -10.0950    4.5300 C.ar  100  PHE100     -0.0003
    113  CZ        22.7290   -8.9340    5.2660 C.ar  100  PHE100     -0.0000
    114  N         27.3360  -11.1430   14.3620 N.3   117  MET117     -0.1245
    115  CA        26.4230  -10.7610   13.2890 C.3   117  MET117      0.1570
    116  C         25.2610  -11.7390   13.1160 C.2   117  MET117      0.2261
    117  O         24.1780  -11.3480   12.6830 O.2   117  MET117     -0.2867
    118  CB        27.1720  -10.5650   11.9640 C.3   117  MET117      0.0387
    119  CG        26.3650   -9.7930   10.9200 C.3   117  MET117      0.0595
    120  SD        27.3210   -9.3410    9.4600 S.3   117  MET117     -0.1393
    121  CE        27.7450  -10.9570    8.8080 C.3   117  MET117      0.0692
    122  N         22.0620  -10.5880   14.4690 N.3   120  ILE120     -0.1231
    123  CA        21.3690   -9.6360   13.6120 C.3   120  ILE120      0.1692
    124  C         20.6940  -10.3570   12.4490 C.2   120  ILE120      0.2592
    125  O         19.5400  -10.0760   12.1220 O.2   120  ILE120     -0.2718
    126  CB        22.3240   -8.5700   13.0440 C.3   120  ILE120      0.0266
    127  CG1       23.2620   -8.0440   14.1320 C.3   120  ILE120      0.0019
    128  CG2       21.5290   -7.4320   12.4190 C.3   120  ILE120      0.0020
    129  CD1       22.5820   -7.1760   15.1570 C.3   120  ILE120      0.0001
    130  N         21.4130  -11.2860   11.8230 N.am  121  PHE121     -0.1976
    131  CA        20.8260  -12.0730   10.7440 C.3   121  PHE121      0.1639
    132  C         19.5460  -12.7660   11.2110 C.2   121  PHE121      0.2290
    133  O         18.5360  -12.7550   10.5070 O.2   121  PHE121     -0.2864
    134  CB        21.8140  -13.1090   10.1980 C.3   121  PHE121      0.0560
    135  CG        22.7650  -12.5660    9.1610 C.ar  121  PHE121     -0.0200
    136  CD1       23.0800  -11.2160    9.1190 C.ar  121  PHE121     -0.0042
    137  CD2       23.3320  -13.4100    8.2180 C.ar  121  PHE121     -0.0042
    138  CE1       23.9570  -10.7190    8.1580 C.ar  121  PHE121     -0.0003
    139  CE2       24.2040  -12.9200    7.2570 C.ar  121  PHE121     -0.0003
    140  CZ        24.5170  -11.5720    7.2300 C.ar  121  PHE121     -0.0000
    141  N         16.6500  -10.3470   11.3520 N.3   124  LEU124     -0.1245
    142  CA        16.2330  -10.0000    9.9960 C.3   124  LEU124      0.1561
    143  C         15.4380  -11.1320    9.3520 C.2   124  LEU124      0.2260
    144  O         14.3930  -10.8990    8.7470 O.2   124  LEU124     -0.2867
    145  CB        17.4460   -9.6410    9.1340 C.3   124  LEU124      0.0270
    146  CG        18.2150   -8.3820    9.5460 C.3   124  LEU124      0.0019
    147  CD1       19.6260   -8.3860    8.9650 C.3   124  LEU124      0.0001
    148  CD2       17.4570   -7.1190    9.1380 C.3   124  LEU124      0.0001
    149  N         21.9630   -3.2740   15.0840 N.3   209  GLY209     -0.1225
    150  CA        22.8810   -3.2100   13.9610 C.3   209  GLY209      0.1811
    151  C         23.8330   -2.0350   14.0750 C.2   209  GLY209      0.2280
    152  O         25.0110   -2.1380   13.7270 O.2   209  GLY209     -0.2866
    153  N         26.5190   -2.8760   16.5140 N.3   212  HIS212     -0.1226
    154  CA        27.4310   -3.8470   15.9160 C.3   212  HIS212      0.1752
    155  C         28.3820   -3.1980   14.9110 C.2   212  HIS212      0.2595
    156  O         29.5930   -3.4180   14.9490 O.2   212  HIS212     -0.2718
    157  CB        26.6540   -4.9730   15.2300 C.3   212  HIS212      0.0759
    158  CG        27.5330   -6.0280   14.6370 C.ar  212  HIS212      0.0818
    159  ND1       27.9410   -6.0050   13.3210 N.ar  212  HIS212     -0.2268
    160  CD2       28.1030   -7.1260   15.1900 C.ar  212  HIS212      0.1154
    161  CE1       28.7150   -7.0500   13.0840 C.ar  212  HIS212      0.1986
    162  NE2       28.8290   -7.7460   14.2010 N.ar  212  HIS212     -0.2212
    163  N         27.8250   -2.4050   14.0050 N.am  213  LEU213     -0.1980
    164  CA        28.6260   -1.6950   13.0160 C.3   213  LEU213      0.1596
    165  C         29.6690   -0.8140   13.7070 C.2   213  LEU213      0.2287
    166  O         30.8460   -0.8060   13.3350 O.2   213  LEU213     -0.2864
    167  CB        27.7140   -0.8440   12.1330 C.3   213  LEU213      0.0297
    168  CG        28.3420   -0.0870   10.9660 C.3   213  LEU213      0.0022
    169  CD1       29.1310   -1.0350   10.0700 C.3   213  LEU213      0.0001
    170  CD2       27.2560    0.6340   10.1770 C.3   213  LEU213      0.0001
@<TRIPOS>BOND
     1    30    29    1
     2    98    99    1
     3    98    97    1
     4    96    93    1
     5    96    97    1
     6    37    38    1
     7    95    94    2
     8    38    39    1
     9    38    41    1
    10   106   105    2
    11    40    39    2
    12    42    41    1
    13    42    43    1
    14   105   104    1
    15    99   100    2
    16    93    94    1
    17    93    92    1
    18    29    31    1
    19    29    28    1
    20    27    26    2
    21    25    28    1
    22    25    24    1
    23    25    26    1
    24   100   101    1
    25   100   102    1
    26    45    43   ar
    27    43    44   ar
    28    26    32   am
    29   103   104    1
    30   104   107    1
    31   107   108    1
    32    32    33    1
    33    35    34    2
    34    34    33    1
    35    33    36    1
    36    87    86    2
    37   108   110   ar
    38   108   109   ar
    39    20    19    2
    40    75    73    1
    41    19    18    1
    42    84    85    1
    43    85    86    1
    44    85    88    1
    45     9    10    1
    46    90    89    1
    47   110   112   ar
    48    12    11    2
    49   109   111   ar
    50    10    11    1
    51    10    13    1
    52    11    17   am
    53    16    14    1
    54    88    89    1
    55    17    18    1
    56    89    91    1
    57    18    21    1
    58    71    70    2
    59    73    74    1
    60    73    72    1
    61    69    72    1
    62    69    70    1
    63    69    68    1
    64   112   113   ar
    65    14    13    1
    66    14    15    1
    67   111   113   ar
    68    22    21    1
    69    70    76   am
    70    21    23    1
    71     4     3    2
    72     3     2    1
    73    79    78    2
    74     1     2    1
    75    76    77    1
    76    78    77    1
    77    49    48    2
    78     2     5    1
    79    77    80    1
    80    50    47    1
    81    50    51    1
    82    56    58   ar
    83    56    53   ar
    84   140   139   ar
    85   140   138   ar
    86    47    48    1
    87    47    46    1
    88   139   137   ar
    89    48    60   am
    90    58    59   ar
    91     5     6    1
    92    51    53   ar
    93    51    52   ar
    94    53    55   ar
    95   138   136   ar
    96   137   135   ar
    97    63    62    2
    98    80    81    1
    99    60    61    1
   100    59    57   ar
   101    61    62    1
   102    61    64    1
   103   144   143    2
   104    66    65    1
   105    81    82    1
   106   121   120    1
   107   147   146    1
   108     6     7    1
   109   136   135   ar
   110    52    54   ar
   111   145   146    1
   112   145   142    1
   113   148   146    1
   114   135   134    1
   115    55    57   ar
   116    55    54   ar
   117     8     7    1
   118   143   142    1
   119   120   119    1
   120    64    65    1
   121   142   141    1
   122   169   168    1
   123    65    67    1
   124   170   168    1
   125   134   131    1
   126   133   132    2
   127    82    83    1
   128   131   132    1
   129   131   130    1
   130   119   118    1
   131   168   167    1
   132   130   124   am
   133   118   115    1
   134   125   124    2
   135   167   164    1
   136   128   126    1
   137   124   123    1
   138   117   116    2
   139   164   165    1
   140   164   163    1
   141   126   123    1
   142   126   127    1
   143   161   159   ar
   144   161   162   ar
   145   116   115    1
   146   115   114    1
   147   159   158   ar
   148   166   165    2
   149   123   122    1
   150   152   151    2
   151   150   151    1
   152   150   149    1
   153   163   155   am
   154   127   129    1
   155   162   160   ar
   156   158   160   ar
   157   158   157    1
   158   155   156    2
   159   155   154    1
   160   157   154    1
   161   154   153    1
