@<TRIPOS>MOLECULE
tmp/4pq7A00.pdb
 133 130 0 0 0
SMALL
GASTEIGER

@<TRIPOS>ATOM
      1  N        -12.6560    6.2890   11.1630 N.3    93  GLN93      -0.1245
      2  CA       -12.4200    5.1220   10.3120 C.3    93  GLN93       0.1566
      3  C        -12.5700    3.8180   11.0710 C.2    93  GLN93       0.2260
      4  O        -12.6050    3.8290   12.2840 O.2    93  GLN93      -0.2867
      5  CB       -10.9810    5.1640    9.7490 C.3    93  GLN93       0.0367
      6  CG        -9.8830    5.2520   10.8580 C.3    93  GLN93       0.0905
      7  CD        -9.0740    3.9560   11.0720 C.2    93  GLN93       0.2608
      8  OE1       -9.6210    2.8420   11.1280 O.2    93  GLN93      -0.2717
      9  NE2       -7.7690    4.1100   11.2060 N.am   93  GLN93      -0.0878
     10  N        -11.1950   -0.5080   10.8450 N.3    95  HIS95      -0.1241
     11  CA       -10.3110   -1.4590   10.1800 C.3    95  HIS95       0.1621
     12  C        -10.3860   -2.7210   11.0100 C.2    95  HIS95       0.2264
     13  O        -11.0800   -2.7530   12.0360 O.2    95  HIS95      -0.2867
     14  CB        -8.8550   -0.9660   10.1750 C.3    95  HIS95       0.0745
     15  CG        -8.3210   -0.6410   11.5410 C.ar   95  HIS95       0.0817
     16  ND1       -8.4710    0.5810   12.1620 N.ar   95  HIS95      -0.2268
     17  CD2       -7.6660   -1.4260   12.4340 C.ar   95  HIS95       0.1154
     18  CE1       -7.9100    0.4860   13.3810 C.ar   95  HIS95       0.1986
     19  NE2       -7.4150   -0.7240   13.5730 N.ar   95  HIS95      -0.2212
     20  N         -8.0280   -6.5040   12.2960 N.3    97  HIS97      -0.1241
     21  CA        -6.7580   -7.2100   12.4860 C.3    97  HIS97       0.1621
     22  C         -7.2060   -8.6610   12.3680 C.2    97  HIS97       0.2264
     23  O         -8.2530   -9.0190   12.9160 O.2    97  HIS97      -0.2867
     24  CB        -6.1790   -6.9620   13.8760 C.3    97  HIS97       0.0745
     25  CG        -5.8460   -5.5310   14.1200 C.ar   97  HIS97       0.0817
     26  ND1       -4.6060   -4.9780   13.8800 N.ar   97  HIS97      -0.2268
     27  CD2       -6.6410   -4.5040   14.5180 C.ar   97  HIS97       0.1154
     28  CE1       -4.6860   -3.6640   14.1490 C.ar   97  HIS97       0.1986
     29  NE2       -5.9030   -3.3290   14.5350 N.ar   97  HIS97      -0.2212
     30  N        -11.9690   -2.6360   14.7000 N.3   120  HIS120     -0.1241
     31  CA       -11.7250   -1.4390   15.4910 C.3   120  HIS120      0.1621
     32  C        -12.3870   -0.2300   14.8130 C.2   120  HIS120      0.2264
     33  O        -12.0150    0.1390   13.6810 O.2   120  HIS120     -0.2867
     34  CB       -10.2040   -1.1770   15.6280 C.3   120  HIS120      0.0745
     35  CG        -9.4980   -2.1680   16.5070 C.ar  120  HIS120      0.0817
     36  ND1       -8.1320   -2.3550   16.4470 N.ar  120  HIS120     -0.2268
     37  CD2      -10.0210   -2.9830   17.4550 C.ar  120  HIS120      0.1154
     38  CE1       -7.8570   -3.2730   17.3560 C.ar  120  HIS120      0.1986
     39  NE2       -8.9630   -3.6850   17.9950 N.ar  120  HIS120     -0.2212
     40  N        -12.6180    3.4930   15.1380 N.3   122  VAL122     -0.1245
     41  CA       -11.8230    4.5460   15.7680 C.3   122  VAL122      0.1561
     42  C        -12.5730    5.8580   15.7930 C.2   122  VAL122      0.2260
     43  O        -13.0670    6.3020   14.7530 O.2   122  VAL122     -0.2867
     44  CB       -10.5060    4.7400   14.9800 C.3   122  VAL122      0.0252
     45  CG1       -9.6040    5.7490   15.6800 C.3   122  VAL122      0.0019
     46  CG2       -9.8020    3.3960   14.8150 C.3   122  VAL122      0.0019
     47  N         -8.2990   14.9220   14.6520 N.3   131  PHE131     -0.1227
     48  CA        -7.6690   13.6710   15.0280 C.3   131  PHE131      0.1736
     49  C         -6.1990   13.8260   15.4080 C.2   131  PHE131      0.2596
     50  O         -5.7420   13.2200   16.3780 O.2   131  PHE131     -0.2718
     51  CB        -7.8180   12.6790   13.8840 C.3   131  PHE131      0.0547
     52  CG        -7.2170   11.3540   14.1590 C.ar  131  PHE131     -0.0202
     53  CD1       -7.9270   10.3840   14.8590 C.ar  131  PHE131     -0.0042
     54  CD2       -5.9500   11.0570   13.7030 C.ar  131  PHE131     -0.0042
     55  CE1       -7.3730    9.1260   15.0880 C.ar  131  PHE131     -0.0003
     56  CE2       -5.3840    9.8090   13.9240 C.ar  131  PHE131     -0.0003
     57  CZ        -6.0960    8.8390   14.6170 C.ar  131  PHE131     -0.0000
     58  N         -5.4610   14.6200   14.6330 N.am  132  GLY132     -0.1957
     59  CA        -4.0530   14.8340   14.9390 C.3   132  GLY132      0.1869
     60  C         -3.8220   15.3950   16.3390 C.2   132  GLY132      0.2309
     61  O         -2.8630   15.0050   17.0220 O.2   132  GLY132     -0.2863
     62  N         -4.8570   12.6030   19.2110 N.3   135  VAL135     -0.1245
     63  CA        -3.9500   11.4920   19.5700 C.3   135  VAL135      0.1561
     64  C         -2.8510   11.8800   20.5560 C.2   135  VAL135      0.2260
     65  O         -2.1610   11.0090   21.0870 O.2   135  VAL135     -0.2867
     66  CB        -3.2960   10.7940   18.3150 C.3   135  VAL135      0.0252
     67  CG1       -4.3950   10.1970   17.4240 C.3   135  VAL135      0.0019
     68  CG2       -2.4320   11.7750   17.5300 C.3   135  VAL135      0.0019
     69  N        -11.8540    3.7810   21.0230 N.3   143  VAL143     -0.1245
     70  CA       -11.9150    2.7500   19.9870 C.3   143  VAL143      0.1561
     71  C        -12.8590    1.6510   20.4470 C.2   143  VAL143      0.2260
     72  O        -12.7220    1.1150   21.5620 O.2   143  VAL143     -0.2867
     73  CB       -10.5130    2.1400   19.6600 C.3   143  VAL143      0.0252
     74  CG1      -10.6250    1.1180   18.4940 C.3   143  VAL143      0.0019
     75  CG2       -9.5660    3.2340   19.2290 C.3   143  VAL143      0.0019
     76  N         -2.9220    3.0660   21.0890 N.3   198  LEU198     -0.1231
     77  CA        -3.0830    2.6220   19.7060 C.3   198  LEU198      0.1693
     78  C         -2.3040    1.2980   19.7360 C.2   198  LEU198      0.2593
     79  O         -1.2800    1.1910   20.4310 O.2   198  LEU198     -0.2718
     80  CB        -2.3510    3.5690   18.7580 C.3   198  LEU198      0.0284
     81  CG        -2.7550    5.0430   18.7890 C.3   198  LEU198      0.0019
     82  CD1       -1.8010    5.8230   17.8640 C.3   198  LEU198      0.0001
     83  CD2       -4.2090    5.1990   18.3310 C.3   198  LEU198      0.0001
     84  N         -2.7540    0.2950   18.9960 N.am  199  THR199     -0.1939
     85  CA        -2.0420   -0.9850   18.9820 C.3   199  THR199      0.2028
     86  C         -0.9790   -1.0930   17.8990 C.2   199  THR199      0.2643
     87  O         -0.3520   -2.1580   17.7420 O.2   199  THR199     -0.2714
     88  CB        -2.9940   -2.1440   18.8160 C.3   199  THR199      0.1808
     89  OG1       -3.6100   -2.0590   17.5180 O.3   199  THR199     -0.2208
     90  CG2       -4.0440   -2.1120   19.9360 C.3   199  THR199      0.0379
     91  N         -0.8200   -0.0340   17.1080 N.am  200  THR200     -0.1937
     92  CA         0.2600    0.0000   16.1260 C.3   200  THR200      0.2013
     93  C          1.0530    1.2760   16.3620 C.2   200  THR200      0.2484
     94  O          0.5440    2.2420   16.9720 O.2   200  THR200     -0.2729
     95  CB        -0.1930    0.0830   14.6390 C.3   200  THR200      0.1807
     96  OG1       -0.5990    1.4220   14.3260 O.3   200  THR200     -0.2208
     97  CG2       -1.3150   -0.8840   14.3550 C.3   200  THR200      0.0379
     98  N          2.3190    1.3000   15.8830 N.am  201  PRO201     -0.2715
     99  CA         3.1320    2.5130   16.0520 C.3   201  PRO201      0.1521
    100  C          2.2650    3.6530   15.4960 C.2   201  PRO201      0.2440
    101  O          1.5620    3.4620   14.4890 O.2   201  PRO201     -0.2731
    102  CB         4.3480    2.2320   15.1640 C.3   201  PRO201      0.0310
    103  CG         4.5780    0.7450   15.3830 C.3   201  PRO201      0.0237
    104  CD         3.1090    0.2020   15.2890 C.3   201  PRO201      0.0939
    105  N          2.3570    4.8610   16.0640 N.am  202  PRO202     -0.2727
    106  CA         3.1940    5.3070   17.1820 C.3   202  PRO202      0.1402
    107  C          2.8390    4.8220   18.5880 C.2   202  PRO202      0.2269
    108  O          3.4650    5.2650   19.5520 O.2   202  PRO202     -0.2865
    109  CB         3.1440    6.8340   17.0500 C.3   202  PRO202      0.0296
    110  CG         1.7600    7.0750   16.5420 C.3   202  PRO202      0.0237
    111  CD         1.6130    6.0010   15.4820 C.3   202  PRO202      0.0939
    112  N          0.6590    5.5370   20.6860 N.3   204  LEU204     -0.1245
    113  CA         0.3220    6.6080   21.6240 C.3   204  LEU204      0.1561
    114  C         -0.7340    6.1790   22.6590 C.2   204  LEU204      0.2260
    115  O         -1.7260    5.5130   22.3360 O.2   204  LEU204     -0.2867
    116  CB        -0.1380    7.8620   20.8520 C.3   204  LEU204      0.0270
    117  CG         0.9430    8.3850   19.8820 C.3   204  LEU204      0.0019
    118  CD1        0.3780    9.5080   19.0050 C.3   204  LEU204      0.0001
    119  CD2        2.1580    8.8710   20.6800 C.3   204  LEU204      0.0001
    120  N        -10.4240    2.2980   25.5670 N.3   209  TRP209     -0.1241
    121  CA       -10.9060    1.1090   24.8740 C.3   209  TRP209      0.1605
    122  C        -12.2570    0.6450   25.3800 C.2   209  TRP209      0.2264
    123  O        -12.5080    0.5970   26.5920 O.2   209  TRP209     -0.2867
    124  CB        -9.9020   -0.0610   25.0160 C.3   209  TRP209      0.0550
    125  CG        -8.8030    0.0530   24.0420 C.ar  209  TRP209      0.0003
    126  CD1       -7.5720    0.6240   24.2290 C.ar  209  TRP209      0.0946
    127  CD2       -8.8510   -0.3730   22.6910 C.ar  209  TRP209      0.0152
    128  NE1       -6.8550    0.5750   23.0620 N.ar  209  TRP209     -0.2442
    129  CE2       -7.6200   -0.0340   22.1010 C.ar  209  TRP209      0.0810
    130  CE3       -9.8290   -1.0140   21.9110 C.ar  209  TRP209      0.0012
    131  CZ2       -7.3350   -0.3120   20.7650 C.ar  209  TRP209      0.0191
    132  CZ3       -9.5410   -1.2940   20.5830 C.ar  209  TRP209      0.0001
    133  CH2       -8.3050   -0.9420   20.0250 C.ar  209  TRP209      0.0015
@<TRIPOS>BOND
     1     5     2    1
     2     5     6    1
     3    14    11    1
     4    14    15    1
     5    11    10    1
     6    11    12    1
     7     2     3    1
     8     2     1    1
     9     6     7    1
    10    12    13    2
    11     3     4    2
    12     7     8    2
    13     7     9   am
    14    15    16   ar
    15    15    17   ar
    16    16    18   ar
    17    20    21    1
    18    22    21    1
    19    22    23    2
    20    17    19   ar
    21    21    24    1
    22    18    19   ar
    23    33    32    2
    24    54    56   ar
    25    54    52   ar
    26    24    25    1
    27    26    25   ar
    28    26    28   ar
    29    51    52    1
    30    51    48    1
    31    56    57   ar
    32    25    27   ar
    33    28    29   ar
    34    52    53   ar
    35    96    95    1
    36    97    95    1
    37   101   100    2
    38    27    29   ar
    39    57    55   ar
    40    58    59    1
    41    58    49   am
    42    95    92    1
    43    47    48    1
    44    30    31    1
    45    43    42    2
    46    32    31    1
    47    46    44    1
    48    53    55   ar
    49    59    60    1
    50    44    45    1
    51    44    41    1
    52    48    49    1
    53    40    41    1
    54   102   103    1
    55   102    99    1
    56   104   103    1
    57   104    98    1
    58    49    50    2
    59   111   105    1
    60   111   110    1
    61    31    34    1
    62   100    99    1
    63   100   105   am
    64    34    35    1
    65    41    42    1
    66    98    99    1
    67    98    93   am
    68   105   106    1
    69    92    93    1
    70    92    91    1
    71    60    61    2
    72    93    94    2
    73    36    35   ar
    74    36    38   ar
    75    35    37   ar
    76   110   109    1
    77   109   106    1
    78    91    86   am
    79   106   107    1
    80    38    39   ar
    81    67    66    1
    82    37    39   ar
    83    89    88    1
    84    68    66    1
    85    87    86    2
    86    82    81    1
    87    86    85    1
    88    66    63    1
    89    83    81    1
    90    74    73    1
    91   107   108    2
    92    80    81    1
    93    80    77    1
    94    88    85    1
    95    88    90    1
    96    85    84    1
    97    84    78   am
    98   118   117    1
    99    62    63    1
   100    75    73    1
   101    63    64    1
   102    73    70    1
   103    77    78    1
   104    77    76    1
   105    78    79    2
   106   117   119    1
   107   117   116    1
   108    70    71    1
   109    70    69    1
   110   133   132   ar
   111   133   131   ar
   112    71    72    2
   113    64    65    2
   114   132   130   ar
   115   112   113    1
   116   131   129   ar
   117   116   113    1
   118   113   114    1
   119   130   127   ar
   120   129   127   ar
   121   129   128   ar
   122   115   114    2
   123   127   125   ar
   124   128   126   ar
   125   125   126   ar
   126   125   124    1
   127   121   124    1
   128   121   122    1
   129   121   120    1
   130   122   123    2
