@<TRIPOS>MOLECULE
tmp/4pq9A00.pdb
 119 112 0 0 0
SMALL
GASTEIGER

@<TRIPOS>ATOM
      1  N          3.8600   18.9620   16.6740 N.3    31  GLU31      -0.1245
      2  CA         2.6190   18.4370   17.2370 C.3    31  GLU31       0.1567
      3  C          1.6100   19.5890   17.4480 C.2    31  GLU31       0.2260
      4  O          1.9350   20.5930   18.0660 O.2    31  GLU31      -0.2867
      5  CB         2.9120   17.6710   18.5450 C.3    31  GLU31       0.0388
      6  CG         3.3850   18.4960   19.7600 C.3    31  GLU31       0.1160
      7  CD         4.8490   18.9300   19.7320 C.2    31  GLU31       0.3649
      8  OE1        5.6380   18.4570   18.8800 O.co2  31  GLU31      -0.2457
      9  OE2        5.2150   19.7600   20.5900 O.co2  31  GLU31      -0.2457
     10  N         -1.2330   21.7240   19.1270 N.3    33  MET33      -0.1245
     11  CA        -1.6040   21.8680   20.5310 C.3    33  MET33       0.1570
     12  C         -3.0380   22.3600   20.6050 C.2    33  MET33       0.2261
     13  O         -3.3460   23.4430   20.1110 O.2    33  MET33      -0.2867
     14  CB        -0.6760   22.8590   21.2410 C.3    33  MET33       0.0387
     15  CG         0.7950   22.5080   21.3370 C.3    33  MET33       0.0595
     16  SD         1.1210   20.9320   22.1050 S.3    33  MET33      -0.1393
     17  CE         0.5920   21.3180   23.8490 C.3    33  MET33       0.0692
     18  N         13.1950   17.1420   14.8710 N.3    78  LYS78      -0.1245
     19  CA        12.9440   16.0280   15.7750 C.3    78  LYS78       0.1561
     20  C         13.1860   14.7540   14.9870 C.2    78  LYS78       0.2260
     21  O         12.7210   14.6340   13.8380 O.2    78  LYS78      -0.2867
     22  CB        11.4920   16.0820   16.2700 C.3    78  LYS78       0.0271
     23  CG        10.9610   14.8490   16.9690 C.3    78  LYS78       0.0035
     24  CD         9.5360   15.1130   17.4300 C.3    78  LYS78       0.0206
     25  CE         8.8650   13.9300   18.1020 C.3    78  LYS78       0.1093
     26  NZ         7.5850   14.2960   18.7680 N.3    78  LYS78      -0.1314
     27  N         13.9910   24.5080   23.2530 N.3   105  TRP105     -0.1241
     28  CA        13.4350   23.4550   24.1020 C.3   105  TRP105      0.1605
     29  C         13.9540   22.1100   23.5890 C.2   105  TRP105      0.2264
     30  O         13.2470   21.3640   22.9150 O.2   105  TRP105     -0.2867
     31  CB        11.9170   23.5490   24.0890 C.3   105  TRP105      0.0550
     32  CG        11.1790   22.6010   24.9730 C.ar  105  TRP105      0.0003
     33  CD1       11.6840   21.7640   25.9360 C.ar  105  TRP105      0.0946
     34  CD2        9.7730   22.4320   24.9870 C.ar  105  TRP105      0.0152
     35  NE1       10.6540   21.0640   26.5290 N.ar  105  TRP105     -0.2442
     36  CE2        9.4690   21.4730   25.9710 C.ar  105  TRP105      0.0810
     37  CE3        8.7310   23.0120   24.2580 C.ar  105  TRP105      0.0012
     38  CZ2        8.1560   21.0800   26.2470 C.ar  105  TRP105      0.0191
     39  CZ3        7.4390   22.6090   24.5200 C.ar  105  TRP105      0.0001
     40  CH2        7.1580   21.6510   25.5060 C.ar  105  TRP105      0.0015
     41  N         15.4420   18.1750   23.9800 N.3   107  ALA107     -0.1245
     42  CA        15.1320   17.0260   24.8050 C.3   107  ALA107      0.1562
     43  C         15.6940   15.7380   24.2270 C.2   107  ALA107      0.2260
     44  O         15.7770   15.5710   23.0180 O.2   107  ALA107     -0.2867
     45  CB        13.6370   16.9060   24.9930 C.3   107  ALA107      0.0290
     46  N         14.6180   11.8000   25.1190 N.3   109  TRP109     -0.1241
     47  CA        13.5320   11.1720   25.8370 C.3   109  TRP109      0.1605
     48  C         13.1070    9.8790   25.1870 C.2   109  TRP109      0.2264
     49  O         13.4220    9.6170   24.0150 O.2   109  TRP109     -0.2867
     50  CB        12.3540   12.1520   25.9910 C.3   109  TRP109      0.0550
     51  CG        11.7590   12.7070   24.7380 C.ar  109  TRP109      0.0003
     52  CD1       12.2860   13.6760   23.9410 C.ar  109  TRP109      0.0946
     53  CD2       10.4880   12.4010   24.1960 C.ar  109  TRP109      0.0152
     54  NE1       11.4190   13.9970   22.9370 N.ar  109  TRP109     -0.2442
     55  CE2       10.3060   13.2220   23.0670 C.ar  109  TRP109      0.0810
     56  CE3        9.4760   11.5020   24.5500 C.ar  109  TRP109      0.0012
     57  CZ2        9.1490   13.1830   22.2970 C.ar  109  TRP109      0.0191
     58  CZ3        8.3270   11.4550   23.7740 C.ar  109  TRP109      0.0001
     59  CH2        8.1740   12.2830   22.6620 C.ar  109  TRP109      0.0015
     60  N          6.1700    8.4740   29.7620 N.3   117  GLU117     -0.1245
     61  CA         7.2210    9.1920   29.0680 C.3   117  GLU117      0.1567
     62  C          8.3950    9.2790   30.0000 C.2   117  GLU117      0.2260
     63  O          8.2260    9.5400   31.1770 O.2   117  GLU117     -0.2867
     64  CB         6.7680   10.5940   28.6650 C.3   117  GLU117      0.0388
     65  CG         7.7880   11.3460   27.8310 C.3   117  GLU117      0.1160
     66  CD         7.2230   12.5770   27.1780 C.2   117  GLU117      0.3649
     67  OE1        6.1170   12.4850   26.5980 O.co2 117  GLU117     -0.2457
     68  OE2        7.9150   13.6280   27.1950 O.co2 117  GLU117     -0.2457
     69  N         11.6080   11.5180   30.2430 N.3   119  ASP119     -0.1239
     70  CA        12.3740   12.6600   29.7510 C.3   119  ASP119      0.1674
     71  C         13.7290   12.6200   30.4210 C.2   119  ASP119      0.2266
     72  O         13.8990   13.0270   31.5720 O.2   119  ASP119     -0.2867
     73  CB        11.6180   13.9450   30.0450 C.3   119  ASP119      0.1410
     74  CG        10.3010   13.9630   29.3750 C.2   119  ASP119      0.3668
     75  OD1       10.2800   13.7830   28.1450 O.co2 119  ASP119     -0.2456
     76  OD2        9.2800   14.1490   30.0430 O.co2 119  ASP119     -0.2456
     77  N         15.9160   17.5260   29.5910 N.3   122  GLU122     -0.1245
     78  CA        15.2510   18.5400   28.8170 C.3   122  GLU122      0.1567
     79  C         15.5410   19.8850   29.4140 C.2   122  GLU122      0.2260
     80  O         15.7480   20.0090   30.6230 O.2   122  GLU122     -0.2867
     81  CB        13.7910   18.2100   28.6200 C.3   122  GLU122      0.0388
     82  CG        12.7290   18.9400   29.3220 C.3   122  GLU122      0.1160
     83  CD        11.3660   18.2770   29.1280 C.2   122  GLU122      0.3649
     84  OE1       11.0280   17.3660   29.9130 O.co2 122  GLU122     -0.2457
     85  OE2       10.6120   18.6950   28.2220 O.co2 122  GLU122     -0.2457
     86  N         14.3920   24.1300   29.1890 N.3   124  TYR124     -0.1241
     87  CA        13.3270   25.0400   28.8050 C.3   124  TYR124      0.1605
     88  C         13.8500   26.4430   28.5730 C.2   124  TYR124      0.2264
     89  O         14.4840   27.0450   29.4460 O.2   124  TYR124     -0.2867
     90  CB        12.2410   25.0810   29.8560 C.3   124  TYR124      0.0534
     91  CG        11.5970   23.7530   30.1730 C.ar  124  TYR124     -0.0201
     92  CD1       10.6160   23.2310   29.3540 C.ar  124  TYR124     -0.0009
     93  CD2       11.9600   23.0220   31.2900 C.ar  124  TYR124     -0.0009
     94  CE1        9.9890   22.0480   29.6540 C.ar  124  TYR124      0.0417
     95  CE2       11.3510   21.8290   31.5920 C.ar  124  TYR124      0.0417
     96  CZ        10.3530   21.3500   30.7750 C.ar  124  TYR124      0.1957
     97  OH         9.6970   20.1850   31.0670 O.3   124  TYR124     -0.2866
     98  N          6.9850   10.5220   33.5700 N.3   136  HIS136     -0.1241
     99  CA         5.5430   10.7540   33.5590 C.3   136  HIS136      0.1621
    100  C          4.8100    9.4440   33.4490 C.2   136  HIS136      0.2264
    101  O          5.1920    8.5640   32.6910 O.2   136  HIS136     -0.2867
    102  CB         5.1220   11.5990   32.3460 C.3   136  HIS136      0.0745
    103  CG         5.7280   12.9790   32.2900 C.ar  136  HIS136      0.0817
    104  ND1        5.0830   14.1050   32.7460 N.ar  136  HIS136     -0.2268
    105  CD2        6.9110   13.4010   31.7850 C.ar  136  HIS136      0.1154
    106  CE1        5.8500   15.1600   32.5130 C.ar  136  HIS136      0.1986
    107  NE2        6.9620   14.7580   31.9330 N.ar  136  HIS136     -0.2212
    108  N          0.2440   13.7950   31.1180 N.3   141  GLY141     -0.1225
    109  CA         1.5750   14.1640   31.5390 C.3   141  GLY141      0.1811
    110  C          1.5730   14.4310   33.0270 C.2   141  GLY141      0.2280
    111  O          2.6480   14.4790   33.6190 O.2   141  GLY141     -0.2866
    112  N         15.0620   15.8320   20.0750 N.3   205  ASN205     -0.1240
    113  CA        14.4640   16.9720   19.3880 C.3   205  ASN205      0.1653
    114  C         14.9890   18.2720   19.9420 C.2   205  ASN205      0.2266
    115  O         15.4600   18.3610   21.0850 O.2   205  ASN205     -0.2867
    116  CB        12.9200   16.9290   19.4530 C.3   205  ASN205      0.1155
    117  CG        12.3640   17.2180   20.8370 C.2   205  ASN205      0.2627
    118  OD1       12.3140   16.3400   21.6770 O.2   205  ASN205     -0.2716
    119  ND2       12.0320   18.4640   21.0950 N.am  205  ASN205     -0.0877
@<TRIPOS>BOND
     1    21    20    2
     2    18    19    1
     3    20    19    1
     4    19    22    1
     5    22    23    1
     6     1     2    1
     7    23    24    1
     8     2     3    1
     9     2     5    1
    10    24    25    1
    11     3     4    2
    12    25    26    1
    13     5     6    1
    14     8     7   ar
    15    10    11    1
    16   113   116    1
    17   113   114    1
    18   113   112    1
    19   116   117    1
    20     7     6    1
    21     7     9   ar
    22   114   115    2
    23    13    12    2
    24    11    12    1
    25    11    14    1
    26   117   119   am
    27   117   118    2
    28    14    15    1
    29    15    16    1
    30    16    17    1
    31    57    59   ar
    32    57    55   ar
    33    59    58   ar
    34    30    29    2
    35    54    55   ar
    36    54    52   ar
    37    44    43    2
    38    55    53   ar
    39    27    28    1
    40    29    28    1
    41    58    56   ar
    42    52    51   ar
    43    41    42    1
    44    49    48    2
    45    31    28    1
    46    31    32    1
    47    53    56   ar
    48    53    51   ar
    49    43    42    1
    50    37    39   ar
    51    37    34   ar
    52    39    40   ar
    53    51    50    1
    54    42    45    1
    55    32    34   ar
    56    32    33   ar
    57    34    36   ar
    58    46    47    1
    59    48    47    1
    60    40    38   ar
    61    47    50    1
    62    33    35   ar
    63    36    38   ar
    64    36    35   ar
    65    67    66   ar
    66    66    68   ar
    67    66    65    1
    68    65    64    1
    69    75    74   ar
    70    85    83   ar
    71    88    87    1
    72    88    89    2
    73    81    78    1
    74    81    82    1
    75    64    61    1
    76    87    86    1
    77    87    90    1
    78    78    79    1
    79    78    77    1
    80    61    60    1
    81    61    62    1
    82    83    82    1
    83    83    84   ar
    84    92    94   ar
    85    92    91   ar
    86    74    76   ar
    87    74    73    1
    88    79    80    2
    89    94    96   ar
    90    70    73    1
    91    70    69    1
    92    70    71    1
    93    90    91    1
    94    62    63    2
    95    91    93   ar
    96    71    72    2
    97    96    97    1
    98    96    95   ar
    99   108   109    1
   100    93    95   ar
   101   109   110    1
   102   105   107   ar
   103   105   103   ar
   104   107   106   ar
   105   103   102    1
   106   103   104   ar
   107   102    99    1
   108   106   104   ar
   109   101   100    2
   110   110   111    2
   111   100    99    1
   112    99    98    1
