@<TRIPOS>MOLECULE
tmp/4pqaA00.pdb
 100 95 0 0 0
SMALL
GASTEIGER

@<TRIPOS>ATOM
      1  N         18.9590   14.2130  -13.6090 N.3   100  ASP100     -0.1239
      2  CA        19.5910   14.3800  -12.3150 C.3   100  ASP100      0.1674
      3  C         20.2340   13.0210  -11.8370 C.2   100  ASP100      0.2266
      4  O         19.6050   12.3210  -11.0470 O.2   100  ASP100     -0.2867
      5  CB        18.5560   14.8530  -11.3150 C.3   100  ASP100      0.1410
      6  CG        19.1210   15.0760   -9.9110 C.2   100  ASP100      0.3668
      7  OD1       20.3550   15.2650   -9.7180 O.co2 100  ASP100     -0.2456
      8  OD2       18.2970   15.0120   -8.8970 O.co2 100  ASP100     -0.2456
      9  N         24.4930   11.7520   -2.7230 N.3   134  GLU134     -0.1231
     10  CA        24.1300   13.1600   -2.6250 C.3   134  GLU134      0.1699
     11  C         22.6940   13.3830   -2.1760 C.2   134  GLU134      0.2592
     12  O         22.3500   14.4030   -1.5960 O.2   134  GLU134     -0.2718
     13  CB        24.3680   13.8110   -3.9970 C.3   134  GLU134      0.0402
     14  CG        24.1300   15.3260   -3.9780 C.3   134  GLU134      0.1161
     15  CD        22.6910   15.6730   -4.2260 C.2   134  GLU134      0.3649
     16  OE1       21.8800   14.7970   -4.7500 O.co2 134  GLU134     -0.2457
     17  OE2       22.3540   16.8310   -3.8610 O.co2 134  GLU134     -0.2457
     18  N         21.8340   12.4440   -2.5360 N.am  135  GLU135     -0.1979
     19  CA        20.3830   12.5920   -2.3860 C.3   135  GLU135      0.1602
     20  C         19.8730   12.2600   -0.9910 C.2   135  GLU135      0.2287
     21  O         18.7880   12.6700   -0.6530 O.2   135  GLU135     -0.2864
     22  CB        19.6420   11.7040   -3.4050 C.3   135  GLU135      0.0415
     23  CG        19.8550   12.0290   -4.9060 C.3   135  GLU135      0.1163
     24  CD        19.1720   13.2950   -5.4750 C.2   135  GLU135      0.3649
     25  OE1       18.7350   14.0890   -4.6490 O.co2 135  GLU135     -0.2457
     26  OE2       19.0820   13.3950   -6.7670 O.co2 135  GLU135     -0.2457
     27  N         25.1670   19.1300  -11.8560 N.3   163  GLU163     -0.1231
     28  CA        23.7190   19.2220  -11.5300 C.3   163  GLU163      0.1684
     29  C         22.9460   19.9220  -12.6400 C.2   163  GLU163      0.2434
     30  O         23.4900   20.8440  -13.2970 O.2   163  GLU163     -0.2733
     31  CB        23.4870   19.9190  -10.1900 C.3   163  GLU163      0.0402
     32  CG        24.0240   19.2000   -8.9240 C.3   163  GLU163      0.1161
     33  CD        23.2310   17.9380   -8.5320 C.2   163  GLU163      0.3649
     34  OE1       22.3240   17.5600   -9.2420 O.co2 163  GLU163     -0.2457
     35  OE2       23.5850   17.3310   -7.4970 O.co2 163  GLU163     -0.2457
     36  N         21.7160   19.4800  -12.8960 N.am  164  PRO164     -0.2729
     37  CA        20.8650   20.1530  -13.8630 C.3   164  PRO164      0.1401
     38  C         20.5710   21.5570  -13.3920 C.2   164  PRO164      0.2269
     39  O         20.0900   21.7220  -12.2890 O.2   164  PRO164     -0.2865
     40  CB        19.6290   19.2960  -13.8780 C.3   164  PRO164      0.0296
     41  CG        19.5700   18.5910  -12.5860 C.3   164  PRO164      0.0237
     42  CD        21.0150   18.3400  -12.2270 C.3   164  PRO164      0.0939
     43  N         25.0910   28.9660   -4.0550 N.3   178  ARG178     -0.1245
     44  CA        23.8260   28.5740   -3.5000 C.3   178  ARG178      0.1563
     45  C         23.6540   29.2410   -2.1460 C.2   178  ARG178      0.2260
     46  O         24.6240   29.5760   -1.5100 O.2   178  ARG178     -0.2867
     47  CB        23.7740   27.0070   -3.2700 C.3   178  ARG178      0.0307
     48  CG        23.9160   26.1660   -4.5610 C.3   178  ARG178      0.0489
     49  CD        22.7960   26.2810   -5.5460 C.3   178  ARG178      0.2205
     50  NE        22.8300   25.0730   -6.4000 N.pl3 178  ARG178     -0.0865
     51  CZ        21.8250   24.6030   -7.1060 C.cat 178  ARG178      0.5346
     52  NH1       20.6300   25.1610   -7.0950 N.pl3 178  ARG178      0.1354
     53  NH2       22.0250   23.5460   -7.8470 N.pl3 178  ARG178      0.1354
     54  N         17.2730   28.3420   -5.8600 N.3   323  GLY323     -0.1210
     55  CA        16.9370   26.9010   -5.6840 C.3   323  GLY323      0.1956
     56  C         17.4560   26.3020   -4.4390 C.2   323  GLY323      0.2612
     57  O         17.7010   27.0210   -3.4360 O.2   323  GLY323     -0.2717
     58  N         17.7060   24.9830   -4.5130 N.am  324  GLY324     -0.1942
     59  CA        18.1540   24.2910   -3.3290 C.3   324  GLY324      0.2014
     60  C         19.6650   24.3720   -3.2220 C.2   324  GLY324      0.2640
     61  O         20.2900   25.4140   -3.4680 O.2   324  GLY324     -0.2714
     62  N         20.2660   23.2920   -2.8250 N.am  325  THR325     -0.1936
     63  CA        21.7130   23.2820   -2.6950 C.3   325  THR325      0.2028
     64  C         22.2600   22.0090   -3.3030 C.2   325  THR325      0.2642
     65  O         21.5100   21.2230   -3.8660 O.2   325  THR325     -0.2714
     66  CB        22.1620   23.5600   -1.2660 C.3   325  THR325      0.1808
     67  OG1       23.5900   23.8610   -1.2940 O.3   325  THR325     -0.2208
     68  CG2       21.7520   22.3690   -0.2840 C.3   325  THR325      0.0379
     69  N         23.5670   21.8560   -3.2790 N.am  326  SER326     -0.1949
     70  CA        24.2370   20.7550   -3.9190 C.3   326  SER326      0.1924
     71  C         25.4880   20.4980   -3.0770 C.2   326  SER326      0.2314
     72  O         25.8130   21.2120   -2.1070 O.2   326  SER326     -0.2863
     73  CB        24.6860   21.1830   -5.3400 C.3   326  SER326      0.2116
     74  OG        25.7290   22.2310   -5.3180 O.3   326  SER326     -0.2180
     75  N         16.3730   21.3040  -15.1120 N.3   345  ASN345     -0.1240
     76  CA        15.9570   20.6930  -13.8700 C.3   345  ASN345      0.1653
     77  C         14.4480   20.5950  -13.6470 C.2   345  ASN345      0.2266
     78  O         14.0120   20.2090  -12.6190 O.2   345  ASN345     -0.2867
     79  CB        16.6830   21.2970  -12.6690 C.3   345  ASN345      0.1155
     80  CG        16.3600   22.7540  -12.4530 C.2   345  ASN345      0.2627
     81  OD1       15.6310   23.3450  -13.1710 O.2   345  ASN345     -0.2716
     82  ND2       16.9130   23.2980  -11.4140 N.am  345  ASN345     -0.0877
     83  N         13.2000   16.9340  -12.4620 N.3   348  ILE348     -0.1231
     84  CA        13.9620   16.1850  -11.4700 C.3   348  ILE348      0.1692
     85  C         13.1010   15.7060  -10.3030 C.2   348  ILE348      0.2592
     86  O         12.1220   16.3760   -9.9270 O.2   348  ILE348     -0.2718
     87  CB        15.2160   16.8980  -10.9850 C.3   348  ILE348      0.0266
     88  CG1       14.8990   18.0670  -10.1000 C.3   348  ILE348      0.0019
     89  CG2       16.0640   17.2420  -12.2200 C.3   348  ILE348      0.0020
     90  CD1       16.1780   18.6070   -9.4470 C.3   348  ILE348      0.0001
     91  N         13.3950   14.4890   -9.8400 N.am  349  HIS349     -0.1976
     92  CA        12.7420   13.9080   -8.6700 C.3   349  HIS349      0.1656
     93  C         11.2350   13.6510   -8.9190 C.2   349  HIS349      0.2291
     94  O         10.4470   13.5230   -7.9670 O.2   349  HIS349     -0.2864
     95  CB        12.9030   14.8000   -7.4040 C.3   349  HIS349      0.0771
     96  CG        14.3240   15.1000   -6.9560 C.ar  349  HIS349      0.0820
     97  ND1       14.5850   15.6790   -5.7260 N.ar  349  HIS349     -0.2267
     98  CD2       15.5400   14.8310   -7.4920 C.ar  349  HIS349      0.1154
     99  CE1       15.8940   15.8170   -5.5690 C.ar  349  HIS349      0.1986
    100  NE2       16.4910   15.3640   -6.6500 N.ar  349  HIS349     -0.2212
@<TRIPOS>BOND
     1    75    76    1
     2    40    37    1
     3    40    41    1
     4    76    77    1
     5    76    79    1
     6    37    38    1
     7    37    36    1
     8    77    78    2
     9     1     2    1
    10    38    39    2
    11    30    29    2
    12    81    80    2
    13    36    29   am
    14    36    42    1
    15    79    80    1
    16    29    28    1
    17    41    42    1
    18    83    84    1
    19    80    82   am
    20     2     3    1
    21     2     5    1
    22    89    87    1
    23    27    28    1
    24     3     4    2
    25    28    31    1
    26    84    87    1
    27    84    85    1
    28     5     6    1
    29    87    88    1
    30    85    86    2
    31    85    91   am
    32    31    32    1
    33    88    90    1
    34     6     7   ar
    35     6     8   ar
    36    91    92    1
    37    34    33   ar
    38    32    33    1
    39    93    92    1
    40    93    94    2
    41    92    95    1
    42    33    35   ar
    43    53    51    1
    44    98    96   ar
    45    98   100   ar
    46    95    96    1
    47    51    52    1
    48    51    50    2
    49    96    97   ar
    50    26    24   ar
    51   100    99   ar
    52    50    49    1
    53    54    55    1
    54    97    99   ar
    55    55    56    1
    56    49    48    1
    57    24    23    1
    58    24    25   ar
    59    73    74    1
    60    73    70    1
    61    23    22    1
    62    16    15   ar
    63    48    47    1
    64    58    56   am
    65    58    59    1
    66    56    57    2
    67    15    14    1
    68    15    17   ar
    69    43    44    1
    70    13    14    1
    71    13    10    1
    72    70    69    1
    73    70    71    1
    74    65    64    2
    75    44    47    1
    76    44    45    1
    77    61    60    2
    78    22    19    1
    79    59    60    1
    80    64    69   am
    81    64    63    1
    82    60    62   am
    83    71    72    2
    84    62    63    1
    85     9    10    1
    86    63    66    1
    87    10    11    1
    88    18    19    1
    89    18    11   am
    90    19    20    1
    91    11    12    2
    92    45    46    2
    93    67    66    1
    94    66    68    1
    95    20    21    2
