@<TRIPOS>MOLECULE
tmp/4pqgA01.pdb
 136 129 0 0 0
SMALL
GASTEIGER

@<TRIPOS>ATOM
      1  N         13.3670    5.1990   27.0190 N.3    18  SER18      -0.1202
      2  CA        12.5610    3.9970   27.1410 C.3    18  SER18       0.2020
      3  C         12.8060    3.0400   25.9750 C.2    18  SER18       0.2619
      4  O         13.4790    3.3770   24.9930 O.2    18  SER18      -0.2717
      5  CB        11.0830    4.3690   27.1650 C.3    18  SER18       0.2103
      6  OG        10.6000    4.5990   25.8400 O.3    18  SER18      -0.2182
      7  N         12.2450    1.8420   26.0900 N.am   19  GLY19      -0.1942
      8  CA        12.3150    0.8770   25.0040 C.3    19  GLY19       0.2014
      9  C         11.6990    1.3510   23.7080 C.2    19  GLY19       0.2638
     10  O         12.0760    0.8610   22.6610 O.2    19  GLY19      -0.2714
     11  N         10.7510    2.2860   23.7610 N.am   20  VAL20      -0.1977
     12  CA        10.1880    2.8600   22.5170 C.3    20  VAL20       0.1596
     13  C         11.3110    3.4580   21.6550 C.2    20  VAL20       0.2287
     14  O         11.3990    3.1830   20.4470 O.2    20  VAL20      -0.2864
     15  CB         9.0770    3.9110   22.7820 C.3    20  VAL20       0.0276
     16  CG1        8.5540    4.5020   21.4650 C.3    20  VAL20       0.0022
     17  CG2        7.9230    3.2970   23.5770 C.3    20  VAL20       0.0022
     18  N         13.7140    0.6610   20.5420 N.3    23  ALA23      -0.1245
     19  CA        13.0740   -0.0320   19.4210 C.3    23  ALA23       0.1562
     20  C         13.2990    0.7100   18.1030 C.2    23  ALA23       0.2260
     21  O         13.5130    0.0870   17.0500 O.2    23  ALA23      -0.2867
     22  CB        11.5810   -0.2010   19.6620 C.3    23  ALA23       0.0290
     23  N          3.3630   -0.4540   20.9870 N.3   245  HIS245     -0.1226
     24  CA         4.5500   -0.7730   21.7970 C.3   245  HIS245      0.1752
     25  C          4.3220   -1.5070   23.0970 C.2   245  HIS245      0.2596
     26  O          5.0260   -2.4880   23.4050 O.2   245  HIS245     -0.2718
     27  CB         5.3650    0.4830   22.0400 C.3   245  HIS245      0.0759
     28  CG         6.0810    0.9690   20.8160 C.ar  245  HIS245      0.0818
     29  ND1        7.2170    0.4110   20.3790 N.ar  245  HIS245     -0.2268
     30  CD2        5.7740    1.9900   19.9290 C.ar  245  HIS245      0.1154
     31  CE1        7.6270    1.0440   19.2700 C.ar  245  HIS245      0.1986
     32  NE2        6.7480    2.0230   19.0040 N.ar  245  HIS245     -0.2212
     33  N          3.3580   -1.0430   23.8760 N.am  246  ALA246     -0.1966
     34  CA         3.0690   -1.6510   25.1740 C.3   246  ALA246      0.1728
     35  C          1.7290   -2.3960   25.0780 C.2   246  ALA246      0.2616
     36  O          1.1460   -2.4950   23.9820 O.2   246  ALA246     -0.2715
     37  CB         3.0130   -0.5570   26.2350 C.3   246  ALA246      0.0334
     38  N          1.2460   -2.9230   26.2060 N.am  247  GLU247     -0.1977
     39  CA        -0.1290   -3.4320   26.3060 C.3   247  GLU247      0.1602
     40  C         -1.0870   -2.3200   25.8620 C.2   247  GLU247      0.2287
     41  O         -0.8580   -1.1630   26.1750 O.2   247  GLU247     -0.2864
     42  CB        -0.4120   -3.8480   27.7510 C.3   247  GLU247      0.0415
     43  CG        -1.7720   -4.4880   27.9990 C.3   247  GLU247      0.1163
     44  CD        -1.9720   -5.7580   27.1920 C.2   247  GLU247      0.3649
     45  OE1       -1.8190   -6.8580   27.7570 O.co2 247  GLU247     -0.2457
     46  OE2       -2.2640   -5.6680   25.9770 O.co2 247  GLU247     -0.2457
     47  N          4.5890   -6.6370   18.4470 N.3   281  SER281     -0.1217
     48  CA         5.8140   -7.4070   18.6320 C.3   281  SER281      0.1889
     49  C          5.6530   -8.9290   18.7620 C.2   281  SER281      0.2288
     50  O          6.6130   -9.6600   18.5410 O.2   281  SER281     -0.2866
     51  CB         6.6110   -6.8850   19.8230 C.3   281  SER281      0.2089
     52  OG         7.0940   -5.5790   19.5560 O.3   281  SER281     -0.2183
     53  N         10.1680   -5.7820   17.8410 N.3   308  VAL308     -0.1245
     54  CA        10.8090   -4.4690   17.9090 C.3   308  VAL308      0.1561
     55  C         12.3180   -4.5810   18.0980 C.2   308  VAL308      0.2260
     56  O         13.0470   -3.6070   17.9550 O.2   308  VAL308     -0.2867
     57  CB        10.2120   -3.5570   19.0230 C.3   308  VAL308      0.0252
     58  CG1        8.7940   -3.1280   18.6770 C.3   308  VAL308      0.0019
     59  CG2       10.2650   -4.2190   20.3970 C.3   308  VAL308      0.0019
     60  N         13.9190    1.1760   33.0420 N.3   331  ARG331     -0.1245
     61  CA        13.4860    2.3950   33.6980 C.3   331  ARG331      0.1563
     62  C         13.1480    2.0580   35.1580 C.2   331  ARG331      0.2260
     63  O         12.5490    1.0110   35.4450 O.2   331  ARG331     -0.2867
     64  CB        12.2500    2.9750   33.0150 C.3   331  ARG331      0.0307
     65  CG        12.4660    3.4210   31.5670 C.3   331  ARG331      0.0489
     66  CD        11.1470    3.8150   30.9090 C.3   331  ARG331      0.2205
     67  NE        10.3130    2.6390   30.6500 N.pl3 331  ARG331     -0.0865
     68  CZ         9.1200    2.4250   31.1960 C.cat 331  ARG331      0.5346
     69  NH1        8.5980    3.3030   32.0540 N.pl3 331  ARG331      0.1354
     70  NH2        8.4440    1.3180   30.8920 N.pl3 331  ARG331      0.1354
     71  N          5.7850    0.5620   37.3400 N.3   335  GLU335     -0.1231
     72  CA         5.3090   -0.6190   36.5890 C.3   335  GLU335      0.1699
     73  C          6.3480   -1.7540   36.4450 C.2   335  GLU335      0.2592
     74  O          5.9980   -2.8820   36.0510 O.2   335  GLU335     -0.2718
     75  CB         4.7510   -0.2180   35.2030 C.3   335  GLU335      0.0402
     76  CG         5.8280    0.2490   34.2090 C.3   335  GLU335      0.1161
     77  CD         5.2670    0.8880   32.9390 C.2   335  GLU335      0.3649
     78  OE1        4.0340    0.8130   32.6930 O.co2 335  GLU335     -0.2457
     79  OE2        6.0660    1.4700   32.1680 O.co2 335  GLU335     -0.2457
     80  N          7.6110   -1.4610   36.7580 N.am  336  LYS336     -0.1980
     81  CA         8.6750   -2.4870   36.7420 C.3   336  LYS336      0.1596
     82  C          8.8540   -3.1580   38.1210 C.2   336  LYS336      0.2287
     83  O          9.4900   -4.2040   38.2240 O.2   336  LYS336     -0.2864
     84  CB        10.0210   -1.8860   36.2830 C.3   336  LYS336      0.0298
     85  CG        10.0030   -1.2330   34.8910 C.3   336  LYS336      0.0038
     86  CD         9.8840   -2.2620   33.7490 C.3   336  LYS336      0.0206
     87  CE         9.7650   -1.5750   32.3920 C.3   336  LYS336      0.1093
     88  NZ        10.0800   -2.4680   31.2320 N.3   336  LYS336     -0.1314
     89  N          8.2460   -6.8560   36.3860 N.3   404  SER404     -0.1217
     90  CA         7.3210   -6.1000   35.5660 C.3   404  SER404      0.1889
     91  C          6.0220   -6.8770   35.4050 C.2   404  SER404      0.2288
     92  O          6.0280   -8.0910   35.1260 O.2   404  SER404     -0.2866
     93  CB         7.9340   -5.7890   34.1900 C.3   404  SER404      0.2089
     94  OG         6.9890   -5.1390   33.3610 O.3   404  SER404     -0.2183
     95  N          3.8100   -6.2620   33.0890 N.3   406  SER406     -0.1202
     96  CA         3.3750   -6.2490   31.6890 C.3   406  SER406      0.2020
     97  C          4.4780   -5.7980   30.7420 C.2   406  SER406      0.2619
     98  O          5.1310   -4.7820   30.9840 O.2   406  SER406     -0.2717
     99  CB         2.1460   -5.3380   31.5120 C.3   406  SER406      0.2103
    100  OG         1.8060   -5.2000   30.1430 O.3   406  SER406     -0.2182
    101  N          4.6860   -6.5510   29.6620 N.am  407  GLU407     -0.1965
    102  CA         5.6070   -6.1080   28.6050 C.3   407  GLU407      0.1733
    103  C          5.0580   -6.3680   27.2220 C.2   407  GLU407      0.2617
    104  O          4.6960   -7.5000   26.8870 O.2   407  GLU407     -0.2715
    105  CB         6.9920   -6.7620   28.7280 C.3   407  GLU407      0.0429
    106  CG         7.7430   -6.4510   30.0200 C.3   407  GLU407      0.1163
    107  CD         8.2650   -5.0170   30.1250 C.2   407  GLU407      0.3649
    108  OE1        8.3720   -4.3010   29.0890 O.co2 407  GLU407     -0.2457
    109  OE2        8.6120   -4.6160   31.2650 O.co2 407  GLU407     -0.2457
    110  N          5.0140   -5.3130   26.4120 N.am  408  GLY408     -0.1940
    111  CA         4.6810   -5.4450   25.0070 C.3   408  GLY408      0.2014
    112  C          5.6510   -6.4080   24.3420 C.2   408  GLY408      0.2639
    113  O          5.2790   -7.1720   23.4430 O.2   408  GLY408     -0.2714
    114  N          6.9000   -6.3660   24.7760 N.am  409  PHE409     -0.1959
    115  CA         7.9450   -7.2020   24.2160 C.3   409  PHE409      0.1771
    116  C          9.0240   -7.3880   25.2520 C.2   409  PHE409      0.2620
    117  O          9.2700   -8.5150   25.7170 O.2   409  PHE409     -0.2715
    118  CB         8.5540   -6.5580   22.9670 C.3   409  PHE409      0.0574
    119  CG         9.5260   -7.4550   22.2370 C.ar  409  PHE409     -0.0200
    120  CD1        9.0750   -8.6050   21.5770 C.ar  409  PHE409     -0.0042
    121  CD2       10.8840   -7.1540   22.2000 C.ar  409  PHE409     -0.0042
    122  CE1        9.9570   -9.4210   20.8820 C.ar  409  PHE409     -0.0003
    123  CE2       11.7790   -7.9720   21.4990 C.ar  409  PHE409     -0.0003
    124  CZ        11.3120   -9.1060   20.8440 C.ar  409  PHE409     -0.0000
    125  N          9.6550   -6.2730   25.6280 N.am  410  GLY410     -0.1940
    126  CA        10.7180   -6.2780   26.6320 C.3   410  GLY410      0.2014
    127  C         12.0910   -6.5160   26.0490 C.2   410  GLY410      0.2638
    128  O         12.6180   -7.6460   26.0700 O.2   410  GLY410     -0.2714
    129  N         12.6930   -5.4480   25.5440 N.am  411  LEU411     -0.1977
    130  CA        13.9720   -5.5380   24.8920 C.3   411  LEU411      0.1596
    131  C         15.0780   -6.1020   25.7940 C.2   411  LEU411      0.2287
    132  O         15.9210   -6.8450   25.3080 O.2   411  LEU411     -0.2864
    133  CB        14.3740   -4.1700   24.3210 C.3   411  LEU411      0.0297
    134  CG        13.5860   -3.7430   23.0610 C.3   411  LEU411      0.0022
    135  CD1       13.8030   -2.2650   22.7170 C.3   411  LEU411      0.0001
    136  CD2       13.8500   -4.6340   21.8500 C.3   411  LEU411      0.0001
@<TRIPOS>BOND
     1    21    20    2
     2    53    54    1
     3    54    55    1
     4    54    57    1
     5    56    55    2
     6    20    19    1
     7    47    48    1
     8    50    49    2
     9    48    49    1
    10    48    51    1
    11    58    57    1
    12    32    31   ar
    13    32    30   ar
    14    57    59    1
    15    31    29   ar
    16    19    22    1
    17    19    18    1
    18    52    51    1
    19    30    28   ar
    20    29    28   ar
    21    14    13    2
    22    28    27    1
    23   124   122   ar
    24   124   123   ar
    25   122   120   ar
    26    23    24    1
    27    16    15    1
    28   123   121   ar
    29   120   119   ar
    30    13    12    1
    31    24    27    1
    32    24    25    1
    33   136   134    1
    34   121   119   ar
    35   119   118    1
    36    12    15    1
    37    12    11    1
    38    10     9    2
    39   135   134    1
    40    15    17    1
    41   118   115    1
    42   134   133    1
    43    25    26    2
    44    25    33   am
    45   113   112    2
    46     9    11   am
    47     9     8    1
    48    33    34    1
    49    36    35    2
    50   115   114    1
    51   115   116    1
    52   133   130    1
    53   112   114   am
    54   112   111    1
    55   130   129    1
    56   130   131    1
    57     4     3    2
    58     8     7    1
    59   111   110    1
    60    35    34    1
    61    35    38   am
    62    34    37    1
    63   116   125   am
    64   116   117    2
    65   132   131    2
    66   129   127   am
    67   125   126    1
    68     6     5    1
    69    40    41    2
    70    40    39    1
    71     3     7   am
    72     3     2    1
    73    46    44   ar
    74   127   128    2
    75   127   126    1
    76    38    39    1
    77    39    42    1
    78   110   103   am
    79   104   103    2
    80     1     2    1
    81     2     5    1
    82    44    45   ar
    83    44    43    1
    84   103   102    1
    85    42    43    1
    86   102   105    1
    87   102   101    1
    88   105   106    1
    89   108   107   ar
    90   101    97   am
    91   106   107    1
    92   107   109   ar
    93   100    99    1
    94    67    66    1
    95    67    68    2
    96    97    98    2
    97    97    96    1
    98    70    68    1
    99    66    65    1
   100    68    69    1
   101    88    87    1
   102    99    96    1
   103    65    64    1
   104    96    95    1
   105    79    77   ar
   106    87    86    1
   107    78    77   ar
   108    77    76    1
   109    64    61    1
   110    60    61    1
   111    94    93    1
   112    61    62    1
   113    86    85    1
   114    93    90    1
   115    76    75    1
   116    85    84    1
   117    92    91    2
   118    62    63    2
   119    75    72    1
   120    91    90    1
   121    90    89    1
   122    74    73    2
   123    84    81    1
   124    73    72    1
   125    73    80   am
   126    72    71    1
   127    81    80    1
   128    81    82    1
   129    82    83    2
