@<TRIPOS>MOLECULE
tmp/4pqgA00.pdb
 163 157 0 0 0
SMALL
GASTEIGER

@<TRIPOS>ATOM
      1  N         16.6510    6.6790   27.7040 N.3    17  SER17      -0.1202
      2  CA        15.3460    6.5960   27.0440 C.3    17  SER17       0.2020
      3  C         14.6630    5.2540   27.3240 C.2    17  SER17       0.2619
      4  O         15.2970    4.3180   27.8160 O.2    17  SER17      -0.2717
      5  CB        15.4670    6.8310   25.5220 C.3    17  SER17       0.2103
      6  OG        16.2440    7.9880   25.2110 O.3    17  SER17      -0.2182
      7  N         13.3670    5.1990   27.0190 N.am   18  SER18      -0.1937
      8  CA        12.5610    3.9970   27.1410 C.3    18  SER18       0.2055
      9  C         12.8060    3.0400   25.9750 C.2    18  SER18       0.2644
     10  O         13.4790    3.3770   24.9930 O.2    18  SER18      -0.2714
     11  CB        11.0830    4.3690   27.1650 C.3    18  SER18       0.2130
     12  OG        10.6000    4.5990   25.8400 O.3    18  SER18      -0.2179
     13  N         12.2450    1.8420   26.0900 N.am   19  GLY19      -0.1939
     14  CA        12.3150    0.8770   25.0040 C.3    19  GLY19       0.2014
     15  C         11.6990    1.3510   23.7080 C.2    19  GLY19       0.2638
     16  O         12.0760    0.8610   22.6610 O.2    19  GLY19      -0.2714
     17  N         10.7510    2.2860   23.7610 N.am   20  VAL20      -0.1977
     18  CA        10.1880    2.8600   22.5170 C.3    20  VAL20       0.1596
     19  C         11.3110    3.4580   21.6550 C.2    20  VAL20       0.2287
     20  O         11.3990    3.1830   20.4470 O.2    20  VAL20      -0.2864
     21  CB         9.0770    3.9110   22.7820 C.3    20  VAL20       0.0276
     22  CG1        8.5540    4.5020   21.4650 C.3    20  VAL20       0.0022
     23  CG2        7.9230    3.2970   23.5770 C.3    20  VAL20       0.0022
     24  N         14.6120    2.8640   22.0610 N.3    22  TYR22      -0.1241
     25  CA        15.5480    1.7880   21.7060 C.3    22  TYR22       0.1605
     26  C         15.0200    0.9310   20.5420 C.2    22  TYR22       0.2264
     27  O         15.7980    0.5250   19.6620 O.2    22  TYR22      -0.2867
     28  CB        15.9360    0.9520   22.9350 C.3    22  TYR22       0.0534
     29  CG        16.9580    1.6820   23.7670 C.ar   22  TYR22      -0.0201
     30  CD1       18.3090    1.5920   23.4590 C.ar   22  TYR22      -0.0009
     31  CD2       16.5700    2.5180   24.8230 C.ar   22  TYR22      -0.0009
     32  CE1       19.2520    2.2870   24.1930 C.ar   22  TYR22       0.0417
     33  CE2       17.5090    3.2190   25.5680 C.ar   22  TYR22       0.0417
     34  CZ        18.8450    3.1010   25.2350 C.ar   22  TYR22       0.1957
     35  OH        19.7920    3.7690   25.9400 O.3    22  TYR22      -0.2866
     36  N         16.8220    0.0420   17.1810 N.3    26  TYR26      -0.1241
     37  CA        16.8990   -1.2780   16.5470 C.3    26  TYR26       0.1605
     38  C         16.4450   -1.2040   15.0810 C.2    26  TYR26       0.2264
     39  O         17.1530   -1.6760   14.1910 O.2    26  TYR26      -0.2867
     40  CB        16.0820   -2.3240   17.3030 C.3    26  TYR26       0.0534
     41  CG        16.8170   -2.9760   18.4620 C.ar   26  TYR26      -0.0201
     42  CD1       17.7690   -3.9830   18.2390 C.ar   26  TYR26      -0.0009
     43  CD2       16.5430   -2.6070   19.7790 C.ar   26  TYR26      -0.0009
     44  CE1       18.4230   -4.6030   19.3040 C.ar   26  TYR26       0.0417
     45  CE2       17.2030   -3.2000   20.8500 C.ar   26  TYR26       0.0417
     46  CZ        18.1450   -4.2000   20.6090 C.ar   26  TYR26       0.1957
     47  OH        18.7910   -4.7990   21.6780 O.3    26  TYR26      -0.2866
     48  N         17.3810   -4.6830   34.3120 N.3   329  ALA329     -0.1231
     49  CA        17.6950   -3.5050   33.4920 C.3   329  ALA329      0.1694
     50  C         16.3960   -2.9120   32.9830 C.2   329  ALA329      0.2593
     51  O         15.6880   -3.5330   32.1890 O.2   329  ALA329     -0.2718
     52  CB        18.6320   -3.8630   32.3390 C.3   329  ALA329      0.0304
     53  N         16.0660   -1.7300   33.4940 N.am  330  SER330     -0.1938
     54  CA        14.8240   -1.0480   33.1370 C.3   330  SER330      0.2055
     55  C         14.8150    0.3890   33.6210 C.2   330  SER330      0.2642
     56  O         15.5990    0.7910   34.5090 O.2   330  SER330     -0.2714
     57  CB        13.6060   -1.7900   33.7200 C.3   330  SER330      0.2130
     58  OG        13.4800   -1.5950   35.1240 O.3   330  SER330     -0.2179
     59  N         13.9190    1.1760   33.0420 N.am  331  ARG331     -0.1977
     60  CA        13.4860    2.3950   33.6980 C.3   331  ARG331      0.1597
     61  C         13.1480    2.0580   35.1580 C.2   331  ARG331      0.2287
     62  O         12.5490    1.0110   35.4450 O.2   331  ARG331     -0.2864
     63  CB        12.2500    2.9750   33.0150 C.3   331  ARG331      0.0334
     64  CG        12.4660    3.4210   31.5670 C.3   331  ARG331      0.0492
     65  CD        11.1470    3.8150   30.9090 C.3   331  ARG331      0.2205
     66  NE        10.3130    2.6390   30.6500 N.pl3 331  ARG331     -0.0865
     67  CZ         9.1200    2.4250   31.1960 C.cat 331  ARG331      0.5346
     68  NH1        8.5980    3.3030   32.0540 N.pl3 331  ARG331      0.1354
     69  NH2        8.4440    1.3180   30.8920 N.pl3 331  ARG331      0.1354
     70  N          7.6110   -1.4610   36.7580 N.3   336  LYS336     -0.1245
     71  CA         8.6750   -2.4870   36.7420 C.3   336  LYS336      0.1561
     72  C          8.8540   -3.1580   38.1210 C.2   336  LYS336      0.2260
     73  O          9.4900   -4.2040   38.2240 O.2   336  LYS336     -0.2867
     74  CB        10.0210   -1.8860   36.2830 C.3   336  LYS336      0.0271
     75  CG        10.0030   -1.2330   34.8910 C.3   336  LYS336      0.0035
     76  CD         9.8840   -2.2620   33.7490 C.3   336  LYS336      0.0206
     77  CE         9.7650   -1.5750   32.3920 C.3   336  LYS336      0.1093
     78  NZ        10.0800   -2.4680   31.2320 N.3   336  LYS336     -0.1314
     79  N         20.2910   -1.7760   36.6790 N.3   360  TYR360     -0.1227
     80  CA        20.6220   -0.8090   35.6220 C.3   360  TYR360      0.1736
     81  C         19.3870   -0.0170   35.2040 C.2   360  TYR360      0.2596
     82  O         18.2900   -0.5550   35.1620 O.2   360  TYR360     -0.2718
     83  CB        21.2050   -1.5320   34.4110 C.3   360  TYR360      0.0548
     84  CG        22.5770   -2.1000   34.6810 C.ar  360  TYR360     -0.0200
     85  CD1       23.7250   -1.3940   34.3350 C.ar  360  TYR360     -0.0009
     86  CD2       22.7250   -3.3340   35.3080 C.ar  360  TYR360     -0.0009
     87  CE1       24.9830   -1.8990   34.5930 C.ar  360  TYR360      0.0417
     88  CE2       23.9830   -3.8530   35.5700 C.ar  360  TYR360      0.0417
     89  CZ        25.1050   -3.1290   35.2200 C.ar  360  TYR360      0.1957
     90  OH        26.3490   -3.6480   35.4840 O.3   360  TYR360     -0.2866
     91  N         19.5780    1.2620   34.9160 N.am  361  GLY361     -0.1957
     92  CA        18.4860    2.1340   34.4800 C.3   361  GLY361      0.1869
     93  C         18.3840    3.3980   35.3180 C.2   361  GLY361      0.2309
     94  O         19.1290    3.5710   36.2820 O.2   361  GLY361     -0.2863
     95  N         21.9490    4.2970   34.1380 N.3   387  HIS387     -0.1226
     96  CA        21.6040    3.8680   32.7780 C.3   387  HIS387      0.1752
     97  C         22.8910    3.6620   32.0480 C.2   387  HIS387      0.2596
     98  O         23.7230    4.5740   31.9890 O.2   387  HIS387     -0.2718
     99  CB        20.7510    4.9320   32.0870 C.3   387  HIS387      0.0759
    100  CG        20.1250    4.4670   30.7980 C.ar  387  HIS387      0.0818
    101  ND1       18.8630    3.9950   30.7340 N.ar  387  HIS387     -0.2268
    102  CD2       20.6330    4.4220   29.4950 C.ar  387  HIS387      0.1154
    103  CE1       18.5740    3.6530   29.4660 C.ar  387  HIS387      0.1986
    104  NE2       19.6630    3.9140   28.7050 N.ar  387  HIS387     -0.2212
    105  N         23.1050    2.4650   31.5020 N.am  388  ALA388     -0.1966
    106  CA        24.3720    2.1880   30.8230 C.3   388  ALA388      0.1728
    107  C         24.2230    1.5270   29.4460 C.2   388  ALA388      0.2616
    108  O         23.1370    1.0880   29.0620 O.2   388  ALA388     -0.2715
    109  CB        25.2920    1.3710   31.7330 C.3   388  ALA388      0.0334
    110  N         25.3180    1.5090   28.6910 N.am  389  GLU389     -0.1963
    111  CA        25.4340    0.6820   27.4950 C.3   389  GLU389      0.1733
    112  C         25.5570   -0.7710   27.9700 C.2   389  GLU389      0.2616
    113  O         26.4920   -1.1020   28.6830 O.2   389  GLU389     -0.2715
    114  CB        26.6850    1.0890   26.6860 C.3   389  GLU389      0.0429
    115  CG        27.1830    0.0340   25.6990 C.3   389  GLU389      0.1163
    116  CD        26.1150   -0.3440   24.6930 C.2   389  GLU389      0.3649
    117  OE1       25.4150    0.5680   24.2060 O.co2 389  GLU389     -0.2457
    118  OE2       25.9510   -1.5450   24.4060 O.co2 389  GLU389     -0.2457
    119  N         24.6130   -1.6190   27.5750 N.am  390  LEU390     -0.1977
    120  CA        24.4750   -2.9450   28.1790 C.3   390  LEU390      0.1596
    121  C         25.0200   -4.1250   27.3660 C.2   390  LEU390      0.2287
    122  O         25.0070   -5.2630   27.8620 O.2   390  LEU390     -0.2864
    123  CB        23.0120   -3.2210   28.5430 C.3   390  LEU390      0.0297
    124  CG        22.2430   -2.2360   29.4260 C.3   390  LEU390      0.0022
    125  CD1       20.7990   -2.6860   29.5390 C.3   390  LEU390      0.0001
    126  CD2       22.8750   -2.1160   30.8080 C.3   390  LEU390      0.0001
    127  N          4.6860   -6.5510   29.6620 N.3   407  GLU407     -0.1245
    128  CA         5.6070   -6.1080   28.6050 C.3   407  GLU407      0.1567
    129  C          5.0580   -6.3680   27.2220 C.2   407  GLU407      0.2260
    130  O          4.6960   -7.5000   26.8870 O.2   407  GLU407     -0.2867
    131  CB         6.9920   -6.7620   28.7280 C.3   407  GLU407      0.0388
    132  CG         7.7430   -6.4510   30.0200 C.3   407  GLU407      0.1160
    133  CD         8.2650   -5.0170   30.1250 C.2   407  GLU407      0.3649
    134  OE1        8.3720   -4.3010   29.0890 O.co2 407  GLU407     -0.2457
    135  OE2        8.6120   -4.6160   31.2650 O.co2 407  GLU407     -0.2457
    136  N          9.6550   -6.2730   25.6280 N.3   410  GLY410     -0.1210
    137  CA        10.7180   -6.2780   26.6320 C.3   410  GLY410      0.1956
    138  C         12.0910   -6.5160   26.0490 C.2   410  GLY410      0.2612
    139  O         12.6180   -7.6460   26.0700 O.2   410  GLY410     -0.2717
    140  N         12.6930   -5.4480   25.5440 N.am  411  LEU411     -0.1965
    141  CA        13.9720   -5.5380   24.8920 C.3   411  LEU411      0.1728
    142  C         15.0780   -6.1020   25.7940 C.2   411  LEU411      0.2616
    143  O         15.9210   -6.8450   25.3080 O.2   411  LEU411     -0.2715
    144  CB        14.3740   -4.1700   24.3210 C.3   411  LEU411      0.0311
    145  CG        13.5860   -3.7430   23.0610 C.3   411  LEU411      0.0022
    146  CD1       13.8030   -2.2650   22.7170 C.3   411  LEU411      0.0001
    147  CD2       13.8500   -4.6340   21.8500 C.3   411  LEU411      0.0001
    148  N         15.0850   -5.7510   27.0840 N.am  412  THR412     -0.1951
    149  CA        16.0890   -6.3220   28.0110 C.3   412  THR412      0.1897
    150  C         15.9080   -7.8370   28.2470 C.2   412  THR412      0.2313
    151  O         16.8680   -8.5190   28.6150 O.2   412  THR412     -0.2863
    152  CB        16.1360   -5.6280   29.3810 C.3   412  THR412      0.1794
    153  OG1       14.8720   -5.7990   30.0460 O.3   412  THR412     -0.2208
    154  CG2       16.4930   -4.1320   29.2230 C.3   412  THR412      0.0378
    155  N         17.5730   -9.1650   25.0820 N.3   415  GLU415     -0.1245
    156  CA        18.9850   -8.9180   25.2790 C.3   415  GLU415      0.1567
    157  C         19.5560   -9.8910   26.3040 C.2   415  GLU415      0.2260
    158  O         20.5990  -10.5120   26.0580 O.2   415  GLU415     -0.2867
    159  CB        19.2230   -7.4530   25.6710 C.3   415  GLU415      0.0388
    160  CG        18.9880   -6.4770   24.5080 C.3   415  GLU415      0.1160
    161  CD        18.7640   -5.0140   24.9320 C.2   415  GLU415      0.3649
    162  OE1       19.1050   -4.6560   26.0850 O.co2 415  GLU415     -0.2457
    163  OE2       18.2280   -4.2350   24.0970 O.co2 415  GLU415     -0.2457
@<TRIPOS>BOND
     1    39    38    2
     2    38    37    1
     3    37    36    1
     4    37    40    1
     5    40    41    1
     6    42    41   ar
     7    42    44   ar
     8    41    43   ar
     9    44    46   ar
    10    27    26    2
    11    43    45   ar
    12    20    19    2
    13    26    25    1
    14    46    45   ar
    15    46    47    1
    16    22    21    1
    17    19    18    1
    18    25    24    1
    19    25    28    1
    20   147   145    1
    21    18    21    1
    22    18    17    1
    23    16    15    2
    24   146   145    1
    25    21    23    1
    26    28    29    1
    27   145   144    1
    28    30    29   ar
    29    30    32   ar
    30    15    17   am
    31    15    14    1
    32    29    31   ar
    33   163   161   ar
    34    32    34   ar
    35   117   116   ar
    36   144   141    1
    37   118   116   ar
    38   160   161    1
    39   160   159    1
    40   116   115    1
    41    31    33   ar
    42   141   140    1
    43   141   142    1
    44   161   162   ar
    45    10     9    2
    46    14    13    1
    47   155   156    1
    48     6     5    1
    49    34    33   ar
    50    34    35    1
    51   156   159    1
    52   156   157    1
    53   143   142    2
    54     5     2    1
    55   140   138   am
    56   136   137    1
    57   115   114    1
    58   142   148   am
    59    12    11    1
    60     9    13   am
    61     9     8    1
    62   138   139    2
    63   138   137    1
    64   158   157    2
    65   114   111    1
    66   130   129    2
    67     7     8    1
    68     7     3   am
    69     2     3    1
    70     2     1    1
    71   148   149    1
    72     8    11    1
    73   129   128    1
    74     3     4    2
    75   121   122    2
    76   121   120    1
    77   111   112    1
    78   111   110    1
    79   119   112   am
    80   119   120    1
    81   112   113    2
    82   149   150    1
    83   149   152    1
    84   120   123    1
    85   150   151    2
    86   123   124    1
    87   128   131    1
    88   128   127    1
    89   110   107   am
    90   104   103   ar
    91   104   102   ar
    92   131   132    1
    93   108   107    2
    94   134   133   ar
    95   154   152    1
    96   152   153    1
    97   124   125    1
    98   124   126    1
    99   107   106    1
   100   103   101   ar
   101   102   100   ar
   102   132   133    1
   103   133   135   ar
   104    66    65    1
   105    66    67    2
   106   101   100   ar
   107   100    99    1
   108   106   105    1
   109   106   109    1
   110    69    67    1
   111    65    64    1
   112    67    68    1
   113    78    77    1
   114   105    97   am
   115    64    63    1
   116    98    97    2
   117    97    96    1
   118    99    96    1
   119    51    50    2
   120    52    49    1
   121    77    76    1
   122    96    95    1
   123    50    49    1
   124    50    53   am
   125    63    60    1
   126    59    55   am
   127    59    60    1
   128    54    53    1
   129    54    55    1
   130    54    57    1
   131    49    48    1
   132    55    56    2
   133    60    61    1
   134    57    58    1
   135    76    75    1
   136    85    87   ar
   137    85    84   ar
   138    83    84    1
   139    83    80    1
   140    92    91    1
   141    92    93    1
   142    87    89   ar
   143    84    86   ar
   144    75    74    1
   145    91    81   am
   146    61    62    2
   147    82    81    2
   148    81    80    1
   149    89    90    1
   150    89    88   ar
   151    86    88   ar
   152    93    94    2
   153    80    79    1
   154    74    71    1
   155    71    70    1
   156    71    72    1
   157    72    73    2
