@<TRIPOS>MOLECULE
tmp/4pqnA00.pdb
 179 170 0 0 0
SMALL
GASTEIGER

@<TRIPOS>ATOM
      1  N        -16.4070   19.0240   39.7630 N.3    11  GLN11      -0.1245
      2  CA       -17.6900   19.5450   39.2910 C.3    11  GLN11       0.1566
      3  C        -18.1760   18.7490   38.1430 C.2    11  GLN11       0.2260
      4  O        -17.3620   18.1730   37.3780 O.2    11  GLN11      -0.2867
      5  CB       -17.5470   21.0120   38.8080 C.3    11  GLN11       0.0367
      6  CG       -16.6940   21.2140   37.5400 C.3    11  GLN11       0.0905
      7  CD       -16.2400   22.6520   37.3400 C.2    11  GLN11       0.2608
      8  OE1      -15.2800   23.1150   37.9480 O.2    11  GLN11      -0.2717
      9  NE2      -16.9320   23.3620   36.5000 N.am   11  GLN11      -0.0878
     10  N        -19.5560   18.0060   34.5380 N.3    13  ILE13      -0.1245
     11  CA       -19.2790   18.5970   33.2300 C.3    13  ILE13       0.1561
     12  C        -20.1060   17.9710   32.1280 C.2    13  ILE13       0.2260
     13  O        -20.0340   18.4340   30.9900 O.2    13  ILE13      -0.2867
     14  CB       -17.7810   18.5790   32.8810 C.3    13  ILE13       0.0252
     15  CG1      -17.2750   17.1400   32.7730 C.3    13  ILE13       0.0019
     16  CG2      -16.9580   19.3400   33.9210 C.3    13  ILE13       0.0019
     17  CD1      -15.7870   17.0060   32.4180 C.3    13  ILE13       0.0001
     18  N        -20.6370   12.8110   34.1510 N.3    19  VAL19      -0.1245
     19  CA       -19.1910   13.0440   34.0300 C.3    19  VAL19       0.1561
     20  C        -18.7830   14.1730   34.8870 C.2    19  VAL19       0.2260
     21  O        -19.4200   15.2330   34.8590 O.2    19  VAL19      -0.2867
     22  CB       -18.7840   13.3450   32.5630 C.3    19  VAL19       0.0252
     23  CG1      -17.2780   13.5930   32.4680 C.3    19  VAL19       0.0019
     24  CG2      -19.1850   12.1740   31.6900 C.3    19  VAL19       0.0019
     25  N        -15.3680   16.6740   36.0770 N.3    21  LEU21      -0.1245
     26  CA       -13.9870   17.0840   36.0710 C.3    21  LEU21       0.1561
     27  C        -13.4530   16.6030   37.4210 C.2    21  LEU21       0.2260
     28  O        -14.1020   16.8510   38.4450 O.2    21  LEU21      -0.2867
     29  CB       -13.8830   18.6170   35.9780 C.3    21  LEU21       0.0270
     30  CG       -12.4750   19.1800   36.2540 C.3    21  LEU21       0.0019
     31  CD1      -11.4750   18.6950   35.2010 C.3    21  LEU21       0.0001
     32  CD2      -12.5170   20.6960   36.3810 C.3    21  LEU21       0.0001
     33  N         -5.7350   17.0810   35.5760 N.3    29  LYS29      -0.1245
     34  CA        -7.1790   16.9870   35.3020 C.3    29  LYS29       0.1561
     35  C         -7.5280   15.6650   34.6050 C.2    29  LYS29       0.2260
     36  O         -6.7370   15.0670   33.8170 O.2    29  LYS29      -0.2867
     37  CB        -7.6330   18.1520   34.4430 C.3    29  LYS29       0.0271
     38  CG        -7.4680   19.5030   35.0990 C.3    29  LYS29       0.0035
     39  CD        -7.7130   20.6420   34.1310 C.3    29  LYS29       0.0206
     40  CE        -7.3370   21.9430   34.8380 C.3    29  LYS29       0.1093
     41  NZ        -7.3260   23.1070   33.8990 N.3    29  LYS29      -0.1314
     42  N        -11.3160   13.3400   33.4350 N.3    31  ALA31      -0.1245
     43  CA       -12.7780   13.2490   33.3320 C.3    31  ALA31       0.1562
     44  C        -13.1780   11.9200   33.9110 C.2    31  ALA31       0.2260
     45  O        -12.7980   10.8160   33.4460 O.2    31  ALA31      -0.2867
     46  CB       -13.2350   13.3630   31.9010 C.3    31  ALA31       0.0290
     47  N        -16.1410    9.2920   34.6920 N.3    33  LYS33      -0.1245
     48  CA       -17.4530    8.9100   34.2000 C.3    33  LYS33       0.1561
     49  C        -18.0260    7.9180   35.1980 C.2    33  LYS33       0.2260
     50  O        -17.4170    6.9010   35.4650 O.2    33  LYS33      -0.2867
     51  CB       -17.3620    8.2690   32.8200 C.3    33  LYS33       0.0271
     52  CG       -18.7020    7.9470   32.1840 C.3    33  LYS33       0.0035
     53  CD       -18.5440    7.3970   30.7730 C.3    33  LYS33       0.0206
     54  CE       -19.8540    6.9300   30.1220 C.3    33  LYS33       0.1093
     55  NZ       -19.6500    6.8430   28.6310 N.3    33  LYS33      -0.1314
     56  N         -9.6510    9.1230   22.8300 N.3    61  VAL61      -0.1245
     57  CA        -9.6590    9.5520   24.2710 C.3    61  VAL61       0.1561
     58  C         -9.1300    8.3730   25.0920 C.2    61  VAL61       0.2260
     59  O         -9.6200    7.2820   24.9400 O.2    61  VAL61      -0.2867
     60  CB       -11.0820   10.0040   24.6950 C.3    61  VAL61       0.0252
     61  CG1      -12.0370    8.8320   24.6770 C.3    61  VAL61       0.0019
     62  CG2      -11.1110   10.6800   26.0820 C.3    61  VAL61       0.0019
     63  N        -10.8430    8.9430   32.6640 N.3    77  PHE77      -0.1227
     64  CA       -10.4200    9.2950   31.3020 C.3    77  PHE77       0.1736
     65  C         -9.5980   10.5310   31.2190 C.2    77  PHE77       0.2595
     66  O         -9.6650   11.4880   32.0610 O.2    77  PHE77      -0.2718
     67  CB       -11.6120    9.5200   30.4060 C.3    77  PHE77       0.0547
     68  CG       -12.4260    8.3080   30.1040 C.ar   77  PHE77      -0.0202
     69  CD1      -13.5180    8.0040   30.8540 C.ar   77  PHE77      -0.0042
     70  CD2      -12.1630    7.5490   28.9530 C.ar   77  PHE77      -0.0042
     71  CE1      -14.3080    6.9070   30.5040 C.ar   77  PHE77      -0.0003
     72  CE2      -12.9320    6.4710   28.6070 C.ar   77  PHE77      -0.0003
     73  CZ       -14.0120    6.1760   29.3530 C.ar   77  PHE77      -0.0000
     74  N         -8.8670   10.5790   30.0970 N.am   78  GLU78      -0.1965
     75  CA        -8.2450   11.7850   29.6280 C.3    78  GLU78       0.1733
     76  C         -9.2410   12.9180   29.5890 C.2    78  GLU78       0.2616
     77  O        -10.3490   12.7790   29.0220 O.2    78  GLU78      -0.2715
     78  CB        -7.6330   11.5360   28.2230 C.3    78  GLU78       0.0429
     79  CG        -7.0520   12.7210   27.5220 C.3    78  GLU78       0.1163
     80  CD        -6.5320   12.3510   26.1390 C.2    78  GLU78       0.3649
     81  OE1       -5.8540   13.2210   25.5820 O.co2  78  GLU78      -0.2457
     82  OE2       -6.6690   11.1670   25.6680 O.co2  78  GLU78      -0.2457
     83  N         -8.8340   14.0550   30.1670 N.am   79  PHE79      -0.1960
     84  CA        -9.6480   15.2730   30.1240 C.3    79  PHE79       0.1771
     85  C         -9.4100   16.0430   28.8260 C.2    79  PHE79       0.2619
     86  O         -8.2870   16.3640   28.4890 O.2    79  PHE79      -0.2715
     87  CB        -9.3290   16.2470   31.2640 C.3    79  PHE79       0.0574
     88  CG       -10.2070   17.4660   31.2890 C.ar   79  PHE79      -0.0200
     89  CD1      -11.5810   17.3840   31.4590 C.ar   79  PHE79      -0.0042
     90  CD2       -9.6360   18.7240   31.1540 C.ar   79  PHE79      -0.0042
     91  CE1      -12.3700   18.5370   31.4500 C.ar   79  PHE79      -0.0003
     92  CE2      -10.4330   19.8550   31.1690 C.ar   79  PHE79      -0.0003
     93  CZ       -11.7860   19.7670   31.3010 C.ar   79  PHE79      -0.0000
     94  N        -10.4950   16.3170   28.1330 N.am   80  MET80      -0.1963
     95  CA       -10.4880   17.0270   26.8760 C.3    80  MET80       0.1736
     96  C        -11.0590   18.4340   27.1070 C.2    80  MET80       0.2616
     97  O        -12.2730   18.6290   27.3690 O.2    80  MET80      -0.2715
     98  CB       -11.3190   16.2480   25.8130 C.3    80  MET80       0.0427
     99  CG       -10.6890   14.8670   25.5230 C.3    80  MET80       0.0599
    100  SD        -9.0800   14.8790   24.7800 S.3    80  MET80      -0.1393
    101  CE        -9.5290   15.5120   23.1350 C.3    80  MET80       0.0692
    102  N        -10.1530   19.3900   26.9640 N.am   81  GLU81      -0.1963
    103  CA       -10.3860   20.7520   27.4500 C.3    81  GLU81       0.1733
    104  C        -11.6140   21.4270   26.9110 C.2    81  GLU81       0.2616
    105  O        -12.2990   22.1780   27.5860 O.2    81  GLU81      -0.2715
    106  CB        -9.1480   21.5850   27.1190 C.3    81  GLU81       0.0429
    107  CG        -9.0940   22.9470   27.7650 C.3    81  GLU81       0.1163
    108  CD        -8.9980   22.8780   29.2860 C.2    81  GLU81       0.3649
    109  OE1       -8.2060   22.0560   29.8130 O.co2  81  GLU81      -0.2457
    110  OE2       -9.7270   23.6500   29.9570 O.co2  81  GLU81      -0.2457
    111  N        -11.9560   21.1740   25.6630 N.am   82  HIS82      -0.1959
    112  CA       -12.9940   21.9670   25.0140 C.3    82  HIS82       0.1787
    113  C        -14.2830   21.2170   24.7810 C.2    82  HIS82       0.2621
    114  O        -15.1750   21.7030   24.0930 O.2    82  HIS82      -0.2715
    115  CB       -12.5260   22.5120   23.6570 C.3    82  HIS82       0.0785
    116  CG       -11.3590   23.4130   23.7900 C.ar   82  HIS82       0.0821
    117  ND1      -11.3810   24.5440   24.5820 N.ar   82  HIS82      -0.2267
    118  CD2      -10.0860   23.2800   23.3660 C.ar   82  HIS82       0.1154
    119  CE1      -10.1830   25.1010   24.5870 C.ar   82  HIS82       0.1986
    120  NE2       -9.3830   24.3680   23.8400 N.ar   82  HIS82      -0.2212
    121  N        -14.4200   20.0500   25.3760 N.am   83  GLY83      -0.1940
    122  CA       -15.7040   19.3330   25.2930 C.3    83  GLY83       0.2014
    123  C        -16.0710   18.7290   23.9200 C.2    83  GLY83       0.2639
    124  O        -15.1900   18.3530   23.1400 O.2    83  GLY83      -0.2714
    125  N        -17.3450   18.4750   23.7210 N.am   84  CYS84      -0.1967
    126  CA       -17.7140   17.6780   22.5670 C.3    84  CYS84       0.1712
    127  C        -17.6510   18.4400   21.2480 C.2    84  CYS84       0.2296
    128  O        -17.8500   19.6860   21.1700 O.2    84  CYS84      -0.2864
    129  CB       -19.0140   16.9420   22.7910 C.3    84  CYS84       0.0983
    130  SG       -20.3960   18.0060   22.6010 S.3    84  CYS84      -0.0798
    131  N        -20.9040   20.4220   19.8260 N.3    87  ASP87      -0.1225
    132  CA       -21.0970   21.7450   20.4440 C.3    87  ASP87       0.1805
    133  C        -20.0790   22.7740   20.0030 C.2    87  ASP87       0.2597
    134  O        -20.3840   23.9310   19.8080 O.2    87  ASP87      -0.2718
    135  CB       -21.0720   21.6290   21.9570 C.3    87  ASP87       0.1424
    136  CG       -22.3090   20.9310   22.5450 C.2    87  ASP87       0.3668
    137  OD1      -23.3220   20.7100   21.8490 O.co2  87  ASP87      -0.2456
    138  OD2      -22.2490   20.6000   23.7600 O.co2  87  ASP87      -0.2456
    139  N        -18.8580   22.3250   19.7780 N.am   88  TYR88      -0.1976
    140  CA       -17.7720   23.1760   19.4160 C.3    88  TYR88       0.1639
    141  C        -17.9570   23.6790   18.0130 C.2    88  TYR88       0.2290
    142  O        -17.8330   24.8790   17.7500 O.2    88  TYR88      -0.2864
    143  CB       -16.4690   22.3940   19.6030 C.3    88  TYR88       0.0560
    144  CG       -15.2510   23.1970   19.3690 C.ar   88  TYR88      -0.0198
    145  CD1      -14.7060   23.9330   20.4050 C.ar   88  TYR88      -0.0009
    146  CD2      -14.5930   23.1710   18.1540 C.ar   88  TYR88      -0.0009
    147  CE1      -13.5550   24.6790   20.2170 C.ar   88  TYR88       0.0417
    148  CE2      -13.4290   23.9000   17.9610 C.ar   88  TYR88       0.0417
    149  CZ       -12.9180   24.6420   19.0210 C.ar   88  TYR88       0.1957
    150  OH       -11.7840   25.3700   18.8570 O.3    88  TYR88      -0.2866
    151  N        -20.8860   26.2410   18.2230 N.3    91  THR91      -0.1218
    152  CA       -20.4780   27.4060   18.9410 C.3    91  THR91       0.1862
    153  C        -19.4920   28.2840   18.1410 C.2    91  THR91       0.2287
    154  O        -19.6050   29.5390   18.1300 O.2    91  THR91      -0.2866
    155  CB       -19.8830   26.9970   20.3140 C.3    91  THR91       0.1770
    156  OG1      -20.9290   26.4120   21.0680 O.3    91  THR91      -0.2211
    157  CG2      -19.4080   28.2360   21.0270 C.3    91  THR91       0.0375
    158  N        -14.3610   14.5320   20.8350 N.3   131  LEU131     -0.1245
    159  CA       -13.9750   15.5970   21.7960 C.3   131  LEU131      0.1561
    160  C        -12.8590   16.4640   21.2600 C.2   131  LEU131      0.2260
    161  O        -12.0840   16.0400   20.4080 O.2   131  LEU131     -0.2867
    162  CB       -13.4940   14.8910   23.0680 C.3   131  LEU131      0.0270
    163  CG       -14.5190   13.9820   23.7910 C.3   131  LEU131      0.0019
    164  CD1      -13.7980   13.0090   24.6790 C.3   131  LEU131      0.0001
    165  CD2      -15.5340   14.7930   24.5740 C.3   131  LEU131      0.0001
    166  N        -14.4010    9.5280   21.1190 N.3   141  SER141     -0.1202
    167  CA       -14.7910    9.2130   22.4980 C.3   141  SER141      0.2020
    168  C        -15.4280    7.8940   22.5860 C.2   141  SER141      0.2618
    169  O        -16.0850    7.4380   21.6010 O.2   141  SER141     -0.2717
    170  CB       -15.8960   10.2050   22.9980 C.3   141  SER141      0.2103
    171  OG       -16.0230   10.2200   24.3660 O.3   141  SER141     -0.2182
    172  N        -15.6450    7.5660   23.8740 N.am  142  ASP142     -0.1973
    173  CA       -15.5740    6.2230   24.3450 C.3   142  ASP142      0.1709
    174  C        -16.5480    5.2820   23.6100 C.2   142  ASP142      0.2293
    175  O        -17.4900    5.7010   22.9270 O.2   142  ASP142     -0.2864
    176  CB       -15.7100    6.1590   25.9080 C.3   142  ASP142      0.1436
    177  CG       -17.1330    6.5420   26.4010 C.2   142  ASP142      0.3671
    178  OD1      -17.5070    5.9950   27.4950 O.co2 142  ASP142     -0.2456
    179  OD2      -17.8430    7.4060   25.7420 O.co2 142  ASP142     -0.2456
@<TRIPOS>BOND
     1   142   141    2
     2   148   146   ar
     3   148   149   ar
     4   141   140    1
     5   154   153    2
     6   153   152    1
     7   146   144   ar
     8   151   152    1
     9   150   149    1
    10   152   155    1
    11   149   147   ar
    12   144   143    1
    13   144   145   ar
    14   140   143    1
    15   140   139    1
    16   139   133   am
    17   134   133    2
    18   131   132    1
    19   133   132    1
    20   147   145   ar
    21   155   157    1
    22   155   156    1
    23   161   160    2
    24   132   135    1
    25   158   159    1
    26   166   167    1
    27   128   127    2
    28   127   126    1
    29   160   159    1
    30   169   168    2
    31   159   162    1
    32   137   136   ar
    33   135   136    1
    34   167   168    1
    35   167   170    1
    36   136   138   ar
    37   126   129    1
    38   126   125    1
    39   168   172   am
    40   130   129    1
    41    56    57    1
    42   175   174    2
    43   170   171    1
    44   162   163    1
    45   101   100    1
    46   124   123    2
    47   118   116   ar
    48   118   120   ar
    49   174   173    1
    50   115   116    1
    51   115   112    1
    52   125   123   am
    53   116   117   ar
    54   163   165    1
    55   163   164    1
    56   120   119   ar
    57   172   173    1
    58   123   122    1
    59   114   113    2
    60    57    60    1
    61    57    58    1
    62   173   176    1
    63   117   119   ar
    64    61    60    1
    65    60    62    1
    66   100    99    1
    67   113   112    1
    68   113   121   am
    69    59    58    2
    70   112   111    1
    71   122   121    1
    72    99    98    1
    73    81    80   ar
    74   111   104   am
    75    82    80   ar
    76   179   177   ar
    77    98    95    1
    78   176   177    1
    79    80    79    1
    80   177   178   ar
    81    95    96    1
    82    95    94    1
    83   104   103    1
    84   104   105    2
    85   102    96   am
    86   102   103    1
    87    96    97    2
    88   106   103    1
    89   106   107    1
    90    79    78    1
    91   107   108    1
    92    94    85   am
    93    78    75    1
    94    86    85    2
    95    72    70   ar
    96    72    73   ar
    97    55    54    1
    98    85    84    1
    99    70    68   ar
   100    77    76    2
   101   108   109   ar
   102   108   110   ar
   103    73    71   ar
   104    76    75    1
   105    76    83   am
   106    75    74    1
   107    74    65   am
   108    68    67    1
   109    68    69   ar
   110    54    53    1
   111    84    83    1
   112    84    87    1
   113    67    64    1
   114    71    69   ar
   115    53    52    1
   116    13    12    2
   117    90    92   ar
   118    90    88   ar
   119    92    93   ar
   120    65    64    1
   121    65    66    2
   122    87    88    1
   123    88    89   ar
   124    93    91   ar
   125    64    63    1
   126    91    89   ar
   127    24    22    1
   128    46    43    1
   129    12    11    1
   130    52    51    1
   131    17    15    1
   132    23    22    1
   133    22    19    1
   134    15    14    1
   135    51    48    1
   136    14    11    1
   137    14    16    1
   138    11    10    1
   139    43    42    1
   140    43    44    1
   141    45    44    2
   142    36    35    2
   143    41    40    1
   144    19    18    1
   145    19    20    1
   146    39    40    1
   147    39    38    1
   148    48    47    1
   149    48    49    1
   150    37    38    1
   151    37    34    1
   152    35    34    1
   153    21    20    2
   154    49    50    2
   155    31    30    1
   156    34    33    1
   157    29    26    1
   158    29    30    1
   159    26    25    1
   160    26    27    1
   161    30    32    1
   162     9     7   am
   163     7     6    1
   164     7     8    2
   165     4     3    2
   166    27    28    2
   167     6     5    1
   168     3     2    1
   169     5     2    1
   170     2     1    1
