@<TRIPOS>MOLECULE
tmp/4pqqA01.pdb
 79 75 0 0 0
SMALL
GASTEIGER

@<TRIPOS>ATOM
      1  N         16.8280   55.7590   33.1130 N.3    80  GLY80      -0.1210
      2  CA        16.9730   54.7170   32.1190 C.3    80  GLY80       0.1956
      3  C         16.4350   53.3880   32.5860 C.2    80  GLY80       0.2612
      4  O         16.3140   53.1400   33.7960 O.2    80  GLY80      -0.2717
      5  N         16.1070   52.5320   31.6270 N.am   81  GLY81      -0.1942
      6  CA        15.7020   51.1720   31.9400 C.3    81  GLY81       0.2014
      7  C         15.5860   50.3130   30.7040 C.2    81  GLY81       0.2638
      8  O         15.5660   50.8190   29.5780 O.2    81  GLY81      -0.2714
      9  N         15.5080   49.0030   30.9170 N.am   82  MET82      -0.1976
     10  CA        15.1810   48.0740   29.8410 C.3    82  MET82       0.1605
     11  C         13.7470   48.2540   29.3560 C.2    82  MET82       0.2287
     12  O         13.4510   48.0870   28.1670 O.2    82  MET82      -0.2864
     13  CB        15.3860   46.6340   30.3230 C.3    82  MET82       0.0413
     14  CG        16.8630   46.2550   30.5160 C.3    82  MET82       0.0598
     15  SD        17.7410   46.2160   28.9400 S.3    82  MET82      -0.1393
     16  CE        16.9660   44.7880   28.1690 C.3    82  MET82       0.0692
     17  N          9.4090   51.8480   33.0600 N.3    86  ASN86      -0.1225
     18  CA         9.9300   51.5550   34.3940 C.3    86  ASN86       0.1785
     19  C         11.4220   51.8580   34.4440 C.2    86  ASN86       0.2597
     20  O         12.2540   51.0270   34.0740 O.2    86  ASN86      -0.2718
     21  CB         9.6530   50.0890   34.7480 C.3    86  ASN86       0.1169
     22  CG         9.7430   49.8150   36.2410 C.2    86  ASN86       0.2627
     23  OD1       10.0300   50.7120   37.0330 O.2    86  ASN86      -0.2716
     24  ND2        9.4640   48.5770   36.6350 N.am   86  ASN86      -0.0877
     25  N         11.7540   53.0610   34.8930 N.am   87  MET87      -0.1965
     26  CA        13.1400   53.5130   34.8410 C.3    87  MET87       0.1736
     27  C         13.6820   53.9440   36.1890 C.2    87  MET87       0.2617
     28  O         12.9270   54.2460   37.1160 O.2    87  MET87      -0.2715
     29  CB        13.2720   54.6720   33.8760 C.3    87  MET87       0.0427
     30  CG        12.9050   54.3350   32.4630 C.3    87  MET87       0.0599
     31  SD        13.2780   55.7910   31.4980 S.3    87  MET87      -0.1393
     32  CE        12.7410   55.2540   29.8930 C.3    87  MET87       0.0692
     33  N         15.0050   53.9920   36.2800 N.am   88  THR88      -0.1951
     34  CA        15.6570   54.4300   37.5000 C.3    88  THR88       0.1897
     35  C         16.5300   55.6390   37.1800 C.2    88  THR88       0.2313
     36  O         16.9420   55.8310   36.0300 O.2    88  THR88      -0.2863
     37  CB        16.5000   53.2920   38.1110 C.3    88  THR88       0.1794
     38  OG1       16.8700   53.6320   39.4530 O.3    88  THR88      -0.2208
     39  CG2       17.7440   53.0530   37.2990 C.3    88  THR88       0.0378
     40  N         24.4530   48.5810   40.2470 N.3   110  ILE110     -0.1245
     41  CA        23.9110   48.5270   41.5910 C.3   110  ILE110      0.1561
     42  C         24.7330   47.4860   42.3340 C.2   110  ILE110      0.2260
     43  O         24.7840   46.3280   41.9190 O.2   110  ILE110     -0.2867
     44  CB        22.4330   48.1420   41.5930 C.3   110  ILE110      0.0252
     45  CG1       21.6030   49.2920   41.0150 C.3   110  ILE110      0.0019
     46  CG2       21.9800   47.8200   43.0100 C.3   110  ILE110      0.0019
     47  CD1       20.5320   48.8600   40.0380 C.3   110  ILE110      0.0001
     48  N         24.1410   47.1080   35.0760 N.3   115  PHE115     -0.1228
     49  CA        22.8110   46.8500   34.5360 C.3   115  PHE115      0.1721
     50  C         22.6640   47.5250   33.1770 C.2   115  PHE115      0.2437
     51  O         23.2310   48.6070   32.9470 O.2   115  PHE115     -0.2733
     52  CB        21.7030   47.2900   35.5080 C.3   115  PHE115      0.0547
     53  CG        21.6610   48.7680   35.7880 C.ar  115  PHE115     -0.0202
     54  CD1       20.9550   49.6350   34.9560 C.ar  115  PHE115     -0.0042
     55  CD2       22.2790   49.2850   36.9170 C.ar  115  PHE115     -0.0042
     56  CE1       20.8970   51.0090   35.2320 C.ar  115  PHE115     -0.0003
     57  CE2       22.2260   50.6460   37.1990 C.ar  115  PHE115     -0.0003
     58  CZ        21.5370   51.5050   36.3530 C.ar  115  PHE115     -0.0000
     59  N         21.9050   46.8920   32.2680 N.am  116  PRO116     -0.2729
     60  CA        21.6680   47.4810   30.9480 C.3   116  PRO116      0.1401
     61  C         20.3640   48.2770   30.8600 C.2   116  PRO116      0.2269
     62  O         19.4510   48.0780   31.6860 O.2   116  PRO116     -0.2865
     63  CB        21.5670   46.2520   30.0520 C.3   116  PRO116      0.0296
     64  CG        20.9200   45.2340   30.9310 C.3   116  PRO116      0.0237
     65  CD        21.4610   45.4850   32.3260 C.3   116  PRO116      0.0939
     66  N         24.5110   40.4270   32.2180 N.3   153  CYS153     -0.1235
     67  CA        23.9080   41.4130   33.1150 C.3   153  CYS153      0.1677
     68  C         22.3890   41.3710   33.0610 C.2   153  CYS153      0.2270
     69  O         21.7170   42.0030   33.8770 O.2   153  CYS153     -0.2867
     70  CB        24.3920   42.8230   32.7690 C.3   153  CYS153      0.0956
     71  SG        26.1390   43.0760   33.0670 S.3   153  CYS153     -0.0801
     72  N         18.6880   39.8670   33.4830 N.3   155  ASN155     -0.1240
     73  CA        17.9740   38.9170   34.3340 C.3   155  ASN155      0.1653
     74  C         17.5190   37.6990   33.5320 C.2   155  ASN155      0.2266
     75  O         17.2180   37.8120   32.3410 O.2   155  ASN155     -0.2867
     76  CB        16.7810   39.5920   35.0140 C.3   155  ASN155      0.1155
     77  CG        17.2000   40.6990   35.9730 C.2   155  ASN155      0.2627
     78  OD1       18.2730   40.6450   36.5720 O.2   155  ASN155     -0.2716
     79  ND2       16.3470   41.7030   36.1270 N.am  155  ASN155     -0.0877
@<TRIPOS>BOND
     1    12    11    2
     2    16    15    1
     3    15    14    1
     4    11    10    1
     5     8     7    2
     6    10    13    1
     7    10     9    1
     8    32    31    1
     9    63    64    1
    10    63    60    1
    11    13    14    1
    12     7     9   am
    13     7     6    1
    14    61    60    1
    15    61    62    2
    16    64    65    1
    17    60    59    1
    18    31    30    1
    19     5     6    1
    20     5     3   am
    21     2     3    1
    22     2     1    1
    23    66    67    1
    24    59    65    1
    25    59    50   am
    26    75    74    2
    27    30    29    1
    28     3     4    2
    29    70    71    1
    30    70    67    1
    31    51    50    2
    32    17    18    1
    33    68    67    1
    34    68    69    2
    35    50    49    1
    36    72    73    1
    37    74    73    1
    38    29    26    1
    39    20    19    2
    40    73    76    1
    41    18    19    1
    42    18    21    1
    43    19    25   am
    44    49    48    1
    45    49    52    1
    46    21    22    1
    47    26    25    1
    48    26    27    1
    49    54    56   ar
    50    54    53   ar
    51    76    77    1
    52    56    58   ar
    53    52    53    1
    54    53    55   ar
    55    77    79   am
    56    77    78    2
    57    36    35    2
    58    27    33   am
    59    27    28    2
    60    22    24   am
    61    22    23    2
    62    33    34    1
    63    58    57   ar
    64    55    57   ar
    65    35    34    1
    66    39    37    1
    67    34    37    1
    68    37    38    1
    69    47    45    1
    70    40    41    1
    71    45    44    1
    72    41    44    1
    73    41    42    1
    74    44    46    1
    75    43    42    2
