@<TRIPOS>MOLECULE
tmp/4pqqA00.pdb
 89 83 0 0 0
SMALL
GASTEIGER

@<TRIPOS>ATOM
      1  N          9.8470   58.8240   22.2400 N.3    11  LYS11      -0.1245
      2  CA         8.7020   59.5840   22.7280 C.3    11  LYS11       0.1561
      3  C          9.1870   60.9330   23.2100 C.2    11  LYS11       0.2260
      4  O         10.3870   61.1400   23.4440 O.2    11  LYS11      -0.2867
      5  CB         7.9950   58.8530   23.8730 C.3    11  LYS11       0.0271
      6  CG         7.1600   57.6450   23.4460 C.3    11  LYS11       0.0035
      7  CD         6.4970   56.9810   24.6560 C.3    11  LYS11       0.0206
      8  CE         5.4260   55.9750   24.2470 C.3    11  LYS11       0.1093
      9  NZ         5.9700   54.7910   23.5420 N.3    11  LYS11      -0.1314
     10  N          5.4670   67.8190   33.2560 N.3    44  PRO44      -0.2116
     11  CA         6.7810   67.2580   32.9300 C.3    44  PRO44       0.1372
     12  C          7.1540   67.4370   31.4620 C.2    44  PRO44       0.2244
     13  O          6.3080   67.2550   30.5730 O.2    44  PRO44      -0.2868
     14  CB         6.5910   65.7730   33.2300 C.3    44  PRO44       0.0268
     15  CG         5.1560   65.5210   32.9040 C.3    44  PRO44       0.0207
     16  CD         4.4190   66.7820   33.2990 C.3    44  PRO44       0.0892
     17  N         10.1810   66.0840   28.6320 N.3    46  TYR46      -0.1241
     18  CA        11.1400   64.9860   28.5150 C.3    46  TYR46       0.1605
     19  C         11.3260   64.5490   27.0640 C.2    46  TYR46       0.2264
     20  O         10.4400   64.7410   26.2160 O.2    46  TYR46      -0.2867
     21  CB        10.6800   63.7770   29.3610 C.3    46  TYR46       0.0534
     22  CG         9.2810   63.3170   29.0100 C.ar   46  TYR46      -0.0201
     23  CD1        9.0570   62.4440   27.9490 C.ar   46  TYR46      -0.0009
     24  CD2        8.1790   63.7700   29.7260 C.ar   46  TYR46      -0.0009
     25  CE1        7.7700   62.0390   27.6080 C.ar   46  TYR46       0.0417
     26  CE2        6.8860   63.3640   29.3980 C.ar   46  TYR46       0.0417
     27  CZ         6.6930   62.5070   28.3400 C.ar   46  TYR46       0.1957
     28  OH         5.4080   62.1190   28.0150 O.3    46  TYR46      -0.2866
     29  N         12.4380   60.7600   25.3200 N.3    48  ILE48      -0.1245
     30  CA        12.7920   59.3630   25.5540 C.3    48  ILE48       0.1561
     31  C         13.4750   58.8410   24.3000 C.2    48  ILE48       0.2260
     32  O         12.9330   58.9660   23.1950 O.2    48  ILE48      -0.2867
     33  CB        11.5530   58.5070   25.9070 C.3    48  ILE48       0.0252
     34  CG1       11.0170   58.9130   27.2850 C.3    48  ILE48       0.0019
     35  CG2       11.9080   57.0280   25.9250 C.3    48  ILE48       0.0019
     36  CD1        9.6840   58.2680   27.6330 C.3    48  ILE48       0.0001
     37  N         17.1170   59.3500   33.2760 N.3    79  PHE79      -0.1241
     38  CA        16.6210   58.0820   33.7910 C.3    79  PHE79       0.1605
     39  C         16.8390   57.0260   32.7240 C.2    79  PHE79       0.2264
     40  O         16.9900   57.3560   31.5390 O.2    79  PHE79      -0.2867
     41  CB        15.1160   58.1920   34.0810 C.3    79  PHE79       0.0534
     42  CG        14.7800   59.1760   35.1560 C.ar   79  PHE79      -0.0203
     43  CD1       14.6790   60.5300   34.8700 C.ar   79  PHE79      -0.0042
     44  CD2       14.5600   58.7460   36.4560 C.ar   79  PHE79      -0.0042
     45  CE1       14.3690   61.4380   35.8560 C.ar   79  PHE79      -0.0003
     46  CE2       14.2530   59.6620   37.4550 C.ar   79  PHE79      -0.0003
     47  CZ        14.1640   61.0080   37.1520 C.ar   79  PHE79      -0.0000
     48  N         10.5590   50.8280   28.9010 N.3    84  GLU84      -0.1231
     49  CA        10.3570   52.2730   28.7700 C.3    84  GLU84       0.1699
     50  C          9.3670   52.8430   29.7790 C.2    84  GLU84       0.2592
     51  O          9.2430   54.0650   29.8970 O.2    84  GLU84      -0.2718
     52  CB         9.9160   52.6400   27.3510 C.3    84  GLU84       0.0402
     53  CG         8.5110   52.1610   26.9680 C.3    84  GLU84       0.1161
     54  CD         8.0910   52.7290   25.6340 C.2    84  GLU84       0.3649
     55  OE1        7.8300   53.9490   25.5700 O.co2  84  GLU84      -0.2457
     56  OE2        8.0430   51.9790   24.6430 O.co2  84  GLU84      -0.2457
     57  N          8.6600   51.9740   30.4950 N.am   85  GLU85      -0.1979
     58  CA         7.6690   52.4330   31.4590 C.3    85  GLU85       0.1602
     59  C          8.1700   52.3060   32.8900 C.2    85  GLU85       0.2287
     60  O          7.4410   52.6280   33.8330 O.2    85  GLU85      -0.2864
     61  CB         6.3580   51.6490   31.3050 C.3    85  GLU85       0.0415
     62  CG         5.7150   51.7520   29.9300 C.3    85  GLU85       0.1163
     63  CD         4.4160   50.9680   29.8230 C.2    85  GLU85       0.3649
     64  OE1        3.5890   51.0480   30.7550 O.co2  85  GLU85      -0.2457
     65  OE2        4.2220   50.2710   28.8040 O.co2  85  GLU85      -0.2457
     66  N         11.7540   53.0610   34.8930 N.3    87  MET87      -0.1245
     67  CA        13.1400   53.5130   34.8410 C.3    87  MET87       0.1570
     68  C         13.6820   53.9440   36.1890 C.2    87  MET87       0.2261
     69  O         12.9270   54.2460   37.1160 O.2    87  MET87      -0.2867
     70  CB        13.2720   54.6720   33.8760 C.3    87  MET87       0.0387
     71  CG        12.9050   54.3350   32.4630 C.3    87  MET87       0.0595
     72  SD        13.2780   55.7910   31.4980 S.3    87  MET87      -0.1393
     73  CE        12.7410   55.2540   29.8930 C.3    87  MET87       0.0692
     74  N         15.6840   58.4260   29.3090 N.3   121  LYS121     -0.1245
     75  CA        14.7760   59.5790   29.4100 C.3   121  LYS121      0.1561
     76  C         15.5220   60.7880   29.9490 C.2   121  LYS121      0.2260
     77  O         16.1030   60.7320   31.0320 O.2   121  LYS121     -0.2867
     78  CB        13.6030   59.2380   30.3350 C.3   121  LYS121      0.0271
     79  CG        12.5540   60.3410   30.5300 C.3   121  LYS121      0.0035
     80  CD        11.5010   59.8240   31.5170 C.3   121  LYS121      0.0206
     81  CE        10.3410   60.7770   31.6930 C.3   121  LYS121      0.1093
     82  NZ         9.3370   60.1880   32.6360 N.3   121  LYS121     -0.1314
     83  N         15.1490   64.5630   31.2790 N.3   123  VAL123     -0.1245
     84  CA        14.1320   65.4490   31.8440 C.3   123  VAL123      0.1561
     85  C         14.7490   66.8070   32.1390 C.2   123  VAL123      0.2260
     86  O         15.4440   66.9700   33.1380 O.2   123  VAL123     -0.2867
     87  CB        13.5570   64.8630   33.1440 C.3   123  VAL123      0.0252
     88  CG1       12.5050   65.8010   33.7520 C.3   123  VAL123      0.0019
     89  CG2       12.9730   63.4760   32.9020 C.3   123  VAL123      0.0019
@<TRIPOS>BOND
     1     1     2    1
     2     2     3    1
     3     2     5    1
     4    32    31    2
     5     3     4    2
     6     6     5    1
     7     6     7    1
     8     9     8    1
     9     8     7    1
    10    31    30    1
    11    56    54   ar
    12    29    30    1
    13    30    33    1
    14    55    54   ar
    15    54    53    1
    16    33    35    1
    17    33    34    1
    18    20    19    2
    19    53    52    1
    20    19    18    1
    21    34    36    1
    22    52    49    1
    23    25    23   ar
    24    25    27   ar
    25    23    22   ar
    26    28    27    1
    27    27    26   ar
    28    18    17    1
    29    18    21    1
    30    49    48    1
    31    49    50    1
    32    65    63   ar
    33    22    21    1
    34    22    24   ar
    35    74    75    1
    36    26    24   ar
    37    75    76    1
    38    75    78    1
    39    50    51    2
    40    50    57   am
    41    63    62    1
    42    63    64   ar
    43    73    72    1
    44    62    61    1
    45    76    77    2
    46    78    79    1
    47    57    58    1
    48    79    80    1
    49    13    12    2
    50    83    84    1
    51    61    58    1
    52    58    59    1
    53    12    11    1
    54    72    71    1
    55    80    81    1
    56    40    39    2
    57    81    82    1
    58    84    85    1
    59    84    87    1
    60    85    86    2
    61    71    70    1
    62    39    38    1
    63    59    60    2
    64    89    87    1
    65    15    14    1
    66    15    16    1
    67    11    14    1
    68    11    10    1
    69    87    88    1
    70    10    16    1
    71    37    38    1
    72    38    41    1
    73    70    67    1
    74    41    42    1
    75    67    66    1
    76    67    68    1
    77    43    42   ar
    78    43    45   ar
    79    42    44   ar
    80    45    47   ar
    81    68    69    2
    82    44    46   ar
    83    47    46   ar
