@<TRIPOS>MOLECULE
tmp/4pquA00.pdb
 142 134 0 0 0
SMALL
GASTEIGER

@<TRIPOS>ATOM
      1  N        -23.0070   31.4720   26.2430 N.3    63  ILE63      -0.1245
      2  CA       -23.2000   31.9870   27.5810 C.3    63  ILE63       0.1561
      3  C        -21.9960   32.8450   27.9180 C.2    63  ILE63       0.2260
      4  O        -21.0490   32.9220   27.1380 O.2    63  ILE63      -0.2867
      5  CB       -23.3550   30.8570   28.6280 C.3    63  ILE63       0.0252
      6  CG1      -22.0400   30.0880   28.7960 C.3    63  ILE63       0.0019
      7  CG2      -24.4860   29.9200   28.2460 C.3    63  ILE63       0.0019
      8  CD1      -22.0660   29.0800   29.9290 C.3    63  ILE63       0.0001
      9  N        -18.8170   33.5300   30.6040 N.3    65  LYS65      -0.1245
     10  CA       -18.0290   32.9720   31.6830 C.3    65  LYS65       0.1561
     11  C        -18.2740   33.8430   32.9110 C.2    65  LYS65       0.2260
     12  O        -18.7290   34.9810   32.7730 O.2    65  LYS65      -0.2867
     13  CB       -16.5610   32.9190   31.2870 C.3    65  LYS65       0.0271
     14  CG       -16.3680   32.3060   29.9030 C.3    65  LYS65       0.0035
     15  CD       -14.8990   32.1810   29.5330 C.3    65  LYS65       0.0206
     16  CE       -14.7200   31.3970   28.2430 C.3    65  LYS65       0.1093
     17  NZ       -13.2840   31.0790   28.0190 N.3    65  LYS65      -0.1314
     18  N        -15.7580   37.4620   28.1690 N.3    70  LYS70      -0.1245
     19  CA       -15.6390   36.4630   27.1020 C.3    70  LYS70       0.1561
     20  C        -16.8910   35.5760   26.9880 C.2    70  LYS70       0.2260
     21  O        -17.5820   35.3300   27.9800 O.2    70  LYS70      -0.2867
     22  CB       -14.3950   35.5930   27.3300 C.3    70  LYS70       0.0271
     23  CG       -13.0720   36.3560   27.2480 C.3    70  LYS70       0.0035
     24  CD       -11.8460   35.4340   27.3600 C.3    70  LYS70       0.0206
     25  CE       -10.5390   36.2360   27.2830 C.3    70  LYS70       0.1093
     26  NZ        -9.3200   35.4370   27.5920 N.3    70  LYS70      -0.1314
     27  N        -18.6950   31.8620   25.9740 N.3    72  ARG72      -0.1245
     28  CA       -18.5350   30.4330   25.8210 C.3    72  ARG72       0.1563
     29  C        -19.5740   29.9830   24.8030 C.2    72  ARG72       0.2260
     30  O        -20.7740   30.0820   25.0480 O.2    72  ARG72      -0.2867
     31  CB       -18.6880   29.7290   27.1850 C.3    72  ARG72       0.0307
     32  CG       -19.1930   28.2850   27.1650 C.3    72  ARG72       0.0489
     33  CD       -18.9350   27.5440   28.5110 C.3    72  ARG72       0.2205
     34  NE       -17.5230   27.2040   28.6190 N.pl3  72  ARG72      -0.0865
     35  CZ       -16.6830   27.7790   29.4650 C.cat  72  ARG72       0.5346
     36  NH1      -17.1300   28.6930   30.3130 N.pl3  72  ARG72       0.1354
     37  NH2      -15.4050   27.4250   29.4710 N.pl3  72  ARG72       0.1354
     38  N        -21.7060   27.3800   23.1300 N.3    74  LEU74      -0.1245
     39  CA       -22.2220   26.0410   23.4190 C.3    74  LEU74       0.1561
     40  C        -23.1000   25.4990   22.2890 C.2    74  LEU74       0.2260
     41  O        -23.6840   26.2630   21.5260 O.2    74  LEU74      -0.2867
     42  CB       -23.0130   26.0480   24.7320 C.3    74  LEU74       0.0270
     43  CG       -22.2350   26.3950   26.0020 C.3    74  LEU74       0.0019
     44  CD1      -23.1830   26.7290   27.1320 C.3    74  LEU74       0.0001
     45  CD2      -21.3220   25.2530   26.3990 C.3    74  LEU74       0.0001
     46  N         -4.4780   26.9970   34.8580 N.3   110  ASP110     -0.1225
     47  CA        -5.7220   26.7270   34.1670 C.3   110  ASP110      0.1805
     48  C         -5.4260   26.6380   32.6710 C.2   110  ASP110      0.2598
     49  O         -4.5270   27.3140   32.1670 O.2   110  ASP110     -0.2718
     50  CB        -6.7540   27.7910   34.4510 C.3   110  ASP110      0.1424
     51  CG        -8.1000   27.4460   33.8670 C.2   110  ASP110      0.3668
     52  OD1       -8.2660   27.6180   32.6410 O.co2 110  ASP110     -0.2456
     53  OD2       -8.9900   26.9850   34.6260 O.co2 110  ASP110     -0.2456
     54  N         -6.1420   25.7720   31.9660 N.am  111  VAL111     -0.1966
     55  CA        -5.8030   25.5230   30.5830 C.3   111  VAL111      0.1727
     56  C         -6.6630   26.4130   29.7250 C.2   111  VAL111      0.2617
     57  O         -7.8700   26.5360   29.9550 O.2   111  VAL111     -0.2715
     58  CB        -5.9850   24.0440   30.1940 C.3   111  VAL111      0.0290
     59  CG1       -6.1420   23.9060   28.6880 C.3   111  VAL111      0.0023
     60  CG2       -4.8030   23.2100   30.6840 C.3   111  VAL111      0.0023
     61  N         -6.0140   27.0560   28.7570 N.am  112  GLY112     -0.1940
     62  CA        -6.6800   28.0000   27.8880 C.3   112  GLY112      0.2014
     63  C         -7.4400   27.2790   26.8020 C.2   112  GLY112      0.2639
     64  O         -6.8640   26.4630   26.0850 O.2   112  GLY112     -0.2714
     65  N         -8.7330   27.5790   26.6980 N.am  113  ASP113     -0.1957
     66  CA        -9.6280   26.9560   25.7180 C.3   113  ASP113      0.1840
     67  C         -9.4770   25.4450   25.6670 C.2   113  ASP113      0.2622
     68  O         -9.2910   24.8720   24.5940 O.2   113  ASP113     -0.2715
     69  CB        -9.3900   27.5440   24.3310 C.3   113  ASP113      0.1450
     70  CG       -10.2040   28.7950   24.0920 C.2   113  ASP113      0.3671
     71  OD1      -11.3610   28.8520   24.5720 O.co2 113  ASP113     -0.2456
     72  OD2       -9.6790   29.7180   23.4320 O.co2 113  ASP113     -0.2456
     73  N         -9.5570   24.8280   26.8450 N.am  114  ALA114     -0.1963
     74  CA        -9.2980   23.4050   27.0530 C.3   114  ALA114      0.1728
     75  C         -9.7760   22.4600   25.9630 C.2   114  ALA114      0.2616
     76  O         -8.9680   21.8000   25.3140 O.2   114  ALA114     -0.2715
     77  CB        -9.9360   22.9570   28.3620 C.3   114  ALA114      0.0334
     78  N        -11.0870   22.4080   25.7630 N.am  115  TYR115     -0.1974
     79  CA       -11.6750   21.4250   24.8630 C.3   115  TYR115      0.1639
     80  C        -11.1620   21.6450   23.4340 C.2   115  TYR115      0.2290
     81  O        -10.7480   20.6960   22.7550 O.2   115  TYR115     -0.2864
     82  CB       -13.2040   21.5120   24.8850 C.3   115  TYR115      0.0560
     83  CG       -13.8920   20.7840   26.0330 C.ar  115  TYR115     -0.0198
     84  CD1      -13.1760   20.3310   27.1470 C.ar  115  TYR115     -0.0009
     85  CD2      -15.2630   20.5320   25.9880 C.ar  115  TYR115     -0.0009
     86  CE1      -13.8170   19.6730   28.1890 C.ar  115  TYR115      0.0417
     87  CE2      -15.9080   19.8850   27.0200 C.ar  115  TYR115      0.0417
     88  CZ       -15.1820   19.4510   28.1170 C.ar  115  TYR115      0.1957
     89  OH       -15.8360   18.7960   29.1360 O.3   115  TYR115     -0.2866
     90  N        -18.5970   21.8410   22.9550 N.3   151  GLN151     -0.1231
     91  CA       -18.9910   22.0670   24.3210 C.3   151  GLN151      0.1698
     92  C        -20.4840   21.9000   24.3830 C.2   151  GLN151      0.2592
     93  O        -21.2220   22.7840   23.9570 O.2   151  GLN151     -0.2718
     94  CB       -18.5770   23.4540   24.8050 C.3   151  GLN151      0.0381
     95  CG       -17.0770   23.6520   24.8940 C.3   151  GLN151      0.0905
     96  CD       -16.6910   24.9260   25.6320 C.2   151  GLN151      0.2608
     97  OE1      -17.4440   25.4250   26.4720 O.2   151  GLN151     -0.2717
     98  NE2      -15.5070   25.4520   25.3260 N.am  151  GLN151     -0.0878
     99  N        -20.9190   20.7540   24.8970 N.am  152  GLY152     -0.1957
    100  CA       -22.3250   20.3990   24.9370 C.3   152  GLY152      0.1869
    101  C        -22.5000   18.9640   24.4930 C.2   152  GLY152      0.2309
    102  O        -23.5890   18.4060   24.6100 O.2   152  GLY152     -0.2863
    103  N        -10.7210   18.3790   35.5680 N.3   184  MET184     -0.1230
    104  CA       -10.9520   18.9170   34.2230 C.3   184  MET184      0.1702
    105  C         -9.6730   19.6000   33.7210 C.2   184  MET184      0.2592
    106  O         -8.6590   18.9380   33.5160 O.2   184  MET184     -0.2718
    107  CB       -12.1370   19.8840   34.2040 C.3   184  MET184      0.0401
    108  CG       -12.6470   20.1420   32.7940 C.3   184  MET184      0.0596
    109  SD       -13.3290   18.6780   31.9940 S.3   184  MET184     -0.1393
    110  CE       -15.0310   18.7480   32.5900 C.3   184  MET184      0.0692
    111  N         -9.6860   20.9230   33.5760 N.am  185  ASP185     -0.1960
    112  CA        -8.4680   21.6320   33.1740 C.3   185  ASP185      0.1840
    113  C         -7.7970   22.4610   34.2840 C.2   185  ASP185      0.2622
    114  O         -6.8500   23.2000   34.0010 O.2   185  ASP185     -0.2715
    115  CB        -8.7670   22.5520   31.9950 C.3   185  ASP185      0.1450
    116  CG        -9.7120   23.6660   32.3630 C.2   185  ASP185      0.3671
    117  OD1      -10.5010   23.5180   33.3150 O.co2 185  ASP185     -0.2456
    118  OD2       -9.6650   24.7060   31.7000 O.co2 185  ASP185     -0.2456
    119  N         -8.2740   22.3670   35.5270 N.am  186  ASP186     -0.1971
    120  CA        -7.5620   23.0220   36.6340 C.3   186  ASP186      0.1709
    121  C         -6.4200   22.1770   37.1420 C.2   186  ASP186      0.2293
    122  O         -6.6080   20.9920   37.4920 O.2   186  ASP186     -0.2864
    123  CB        -8.4810   23.3250   37.7990 C.3   186  ASP186      0.1436
    124  CG        -9.4570   24.4070   37.4810 C.2   186  ASP186      0.3671
    125  OD1       -9.6150   24.7210   36.2750 O.co2 186  ASP186     -0.2456
    126  OD2      -10.0650   24.9460   38.4330 O.co2 186  ASP186     -0.2456
    127  N         -2.5140   30.1180   30.1410 N.3   217  PRO217     -0.2116
    128  CA        -2.5480   31.5780   30.1590 C.3   217  PRO217      0.1372
    129  C         -1.9710   32.1440   31.4400 C.2   217  PRO217      0.2244
    130  O         -1.7740   31.4140   32.4010 O.2   217  PRO217     -0.2868
    131  CB        -4.0450   31.8930   30.0580 C.3   217  PRO217      0.0268
    132  CG        -4.6000   30.7670   29.2840 C.3   217  PRO217      0.0207
    133  CD        -3.8060   29.5510   29.7310 C.3   217  PRO217      0.0892
    134  N         -3.4480   33.4270   33.7100 N.3   219  LYS219     -0.1245
    135  CA        -4.2840   33.2510   34.8980 C.3   219  LYS219      0.1561
    136  C         -3.7290   32.0420   35.7160 C.2   219  LYS219      0.2260
    137  O         -4.4480   31.1040   36.1030 O.2   219  LYS219     -0.2867
    138  CB        -5.7550   33.0570   34.5310 C.3   219  LYS219      0.0271
    139  CG        -6.0830   31.7900   33.7660 C.3   219  LYS219      0.0035
    140  CD        -7.4940   31.3020   34.0870 C.3   219  LYS219      0.0206
    141  CE        -8.5870   32.0840   33.3580 C.3   219  LYS219      0.1093
    142  NZ        -9.8330   31.2810   33.2250 N.3   219  LYS219     -0.1314
@<TRIPOS>BOND
     1    41    40    2
     2    40    39    1
     3    81    80    2
     4    90    91    1
     5    38    39    1
     6    39    42    1
     7    72    70   ar
     8    80    79    1
     9    93    92    2
    10    70    69    1
    11    70    71   ar
    12    91    92    1
    13    91    94    1
    14    69    66    1
    15    92    99   am
    16   101   102    2
    17   101   100    1
    18    68    67    2
    19    42    43    1
    20    29    30    2
    21    29    28    1
    22    94    95    1
    23    79    82    1
    24    79    78    1
    25    82    83    1
    26    95    96    1
    27    99   100    1
    28    76    75    2
    29    98    96   am
    30    96    97    2
    31    67    66    1
    32    67    73   am
    33    66    65    1
    34    78    75   am
    35    28    27    1
    36    28    31    1
    37    75    74    1
    38    85    83   ar
    39    85    87   ar
    40    43    45    1
    41    43    44    1
    42    83    84   ar
    43    64    63    2
    44     1     2    1
    45    65    63   am
    46    63    62    1
    47    73    74    1
    48    20    19    1
    49    20    21    2
    50    87    88   ar
    51    74    77    1
    52    19    22    1
    53    19    18    1
    54     4     3    2
    55    84    86   ar
    56    32    31    1
    57    32    33    1
    58    23    22    1
    59    23    24    1
    60    25    24    1
    61    25    26    1
    62     2     3    1
    63     2     5    1
    64    62    61    1
    65    17    16    1
    66    88    86   ar
    67    88    89    1
    68    16    15    1
    69     7     5    1
    70    33    34    1
    71    34    35    2
    72     5     6    1
    73    59    58    1
    74    61    56   am
    75     6     8    1
    76   132   133    1
    77   132   131    1
    78    35    37    1
    79    35    36    1
    80    15    14    1
    81    56    57    2
    82    56    55    1
    83   133   127    1
    84    14    13    1
    85   131   128    1
    86   127   128    1
    87   128   129    1
    88    58    55    1
    89    58    60    1
    90    55    54    1
    91     9    10    1
    92    13    10    1
    93   129   130    2
    94    10    11    1
    95   118   116   ar
    96    54    48   am
    97   109   110    1
    98   109   108    1
    99   115   116    1
   100   115   112    1
   101    49    48    2
   102   116   117   ar
   103    52    51   ar
   104    48    47    1
   105    12    11    2
   106   108   107    1
   107   112   111    1
   108   112   113    1
   109   142   141    1
   110   141   140    1
   111   106   105    2
   112   111   105   am
   113   134   135    1
   114   105   104    1
   115   139   140    1
   116   139   138    1
   117    51    50    1
   118    51    53   ar
   119   114   113    2
   120    47    50    1
   121    47    46    1
   122   107   104    1
   123   104   103    1
   124   113   119   am
   125   138   135    1
   126   135   136    1
   127   119   120    1
   128   136   137    2
   129   125   124   ar
   130   120   121    1
   131   120   123    1
   132   121   122    2
   133   124   123    1
   134   124   126   ar
