@<TRIPOS>MOLECULE
tmp/4pr3A00.pdb
 103 96 0 0 0
SMALL
GASTEIGER

@<TRIPOS>ATOM
      1  N         38.5280   59.8240   74.2740 N.3    20  GLU20      -0.1245
      2  CA        39.9670   59.6460   74.4340 C.3    20  GLU20       0.1567
      3  C         40.7330   59.9650   73.1510 C.2    20  GLU20       0.2260
      4  O         41.9540   60.1280   73.1720 O.2    20  GLU20      -0.2867
      5  CB        40.2710   58.2100   74.8670 C.3    20  GLU20       0.0388
      6  CG        39.6370   57.7860   76.1810 C.3    20  GLU20       0.1160
      7  CD        39.6950   56.2860   76.3780 C.2    20  GLU20       0.3649
      8  OE1       40.0880   55.8380   77.4770 O.co2  20  GLU20      -0.2457
      9  OE2       39.3440   55.5530   75.4280 O.co2  20  GLU20      -0.2457
     10  N         42.6790   55.5870   78.1170 N.3    65  SER65      -0.1202
     11  CA        43.0980   56.0720   79.4240 C.3    65  SER65       0.2020
     12  C         43.0000   54.9780   80.4790 C.2    65  SER65       0.2619
     13  O         42.4970   53.8840   80.2150 O.2    65  SER65      -0.2717
     14  CB        42.2520   57.2780   79.8400 C.3    65  SER65       0.2103
     15  OG        40.8850   56.9230   79.9430 O.3    65  SER65      -0.2182
     16  N         43.4730   55.2900   81.6810 N.am   66  ALA66      -0.1965
     17  CA        43.4110   54.3710   82.8080 C.3    66  ALA66       0.1728
     18  C         43.5050   55.1580   84.1080 C.2    66  ALA66       0.2616
     19  O         44.0350   56.2650   84.1250 O.2    66  ALA66      -0.2715
     20  CB        44.5430   53.3580   82.7190 C.3    66  ALA66       0.0334
     21  N         42.9830   54.5950   85.1930 N.am   67  GLY67      -0.1955
     22  CA        43.1760   55.1810   86.5060 C.3    67  GLY67       0.1869
     23  C         44.3220   54.5370   87.2640 C.2    67  GLY67       0.2309
     24  O         44.6520   53.3750   87.0250 O.2    67  GLY67      -0.2863
     25  N         39.7580   41.4630   86.7660 N.3    85  ARG85      -0.1245
     26  CA        39.4290   41.5510   88.1900 C.3    85  ARG85       0.1563
     27  C         37.9930   41.1490   88.5070 C.2    85  ARG85       0.2260
     28  O         37.6450   40.9420   89.6700 O.2    85  ARG85      -0.2867
     29  CB        39.7290   42.9470   88.7410 C.3    85  ARG85       0.0307
     30  CG        38.9730   44.0540   88.0490 C.3    85  ARG85       0.0489
     31  CD        39.2140   45.3960   88.7100 C.3    85  ARG85       0.2205
     32  NE        38.4580   46.4490   88.0420 N.pl3  85  ARG85      -0.0865
     33  CZ        38.9160   47.1700   87.0260 C.cat  85  ARG85       0.5346
     34  NH1       40.1410   46.9640   86.5610 N.pl3  85  ARG85       0.1354
     35  NH2       38.1520   48.1040   86.4820 N.pl3  85  ARG85       0.1354
     36  N         38.2430   45.5230   84.2650 N.3   124  GLY124     -0.1225
     37  CA        36.9660   45.2060   84.8810 C.3   124  GLY124      0.1811
     38  C         35.8600   46.1250   84.3910 C.2   124  GLY124      0.2280
     39  O         36.1280   47.1480   83.7670 O.2   124  GLY124     -0.2866
     40  N         33.9300   47.8710   86.2300 N.3   126  ASN126     -0.1225
     41  CA        33.7410   48.9950   87.1390 C.3   126  ASN126      0.1785
     42  C         34.8160   50.0600   86.9880 C.2   126  ASN126      0.2597
     43  O         35.9860   49.7560   86.7560 O.2   126  ASN126     -0.2718
     44  CB        33.6820   48.5190   88.5930 C.3   126  ASN126      0.1169
     45  CG        34.9880   47.9050   89.0590 C.2   126  ASN126      0.2627
     46  OD1       35.7400   47.3460   88.2630 O.2   126  ASN126     -0.2716
     47  ND2       35.2620   48.0030   90.3540 N.am  126  ASN126     -0.0877
     48  N         34.4020   51.3160   87.0980 N.am  127  ILE127     -0.1966
     49  CA        35.3450   52.4130   87.2320 C.3   127  ILE127      0.1727
     50  C         35.8460   52.4270   88.6690 C.2   127  ILE127      0.2616
     51  O         35.0610   52.5210   89.6130 O.2   127  ILE127     -0.2715
     52  CB        34.6940   53.7610   86.9030 C.3   127  ILE127      0.0290
     53  CG1       34.4390   53.8660   85.4000 C.3   127  ILE127      0.0022
     54  CG2       35.5700   54.9060   87.3830 C.3   127  ILE127      0.0023
     55  CD1       33.8000   55.1600   84.9810 C.3   127  ILE127      0.0001
     56  N         37.1560   52.3200   88.8310 N.am  128  VAL128     -0.1977
     57  CA        37.7430   52.2380   90.1580 C.3   128  VAL128      0.1596
     58  C         38.0400   53.6290   90.7070 C.2   128  VAL128      0.2287
     59  O         38.6920   54.4440   90.0470 O.2   128  VAL128     -0.2864
     60  CB        39.0320   51.4000   90.1420 C.3   128  VAL128      0.0276
     61  CG1       39.5660   51.2310   91.5450 C.3   128  VAL128      0.0022
     62  CG2       38.7640   50.0450   89.5010 C.3   128  VAL128      0.0022
     63  N         40.9040   50.2770   94.2700 N.3   133  TYR133     -0.1241
     64  CA        42.2790   50.6300   94.6750 C.3   133  TYR133      0.1605
     65  C         43.1220   49.6410   95.4980 C.2   133  TYR133      0.2264
     66  O         43.6360   48.6780   94.9430 O.2   133  TYR133     -0.2867
     67  CB        42.4640   52.1270   94.9540 C.3   133  TYR133      0.0534
     68  CG        42.4150   52.8830   93.6340 C.ar  133  TYR133     -0.0201
     69  CD1       42.9370   52.3070   92.4790 C.ar  133  TYR133     -0.0009
     70  CD2       41.8070   54.1270   93.5220 C.ar  133  TYR133     -0.0009
     71  CE1       42.8850   52.9570   91.2620 C.ar  133  TYR133      0.0417
     72  CE2       41.7460   54.7890   92.3020 C.ar  133  TYR133      0.0417
     73  CZ        42.2870   54.1970   91.1760 C.ar  133  TYR133      0.1957
     74  OH        42.2370   54.8380   89.9560 O.3   133  TYR133     -0.2866
     75  N         44.2630   50.5680   86.2280 N.3   140  VAL140     -0.1231
     76  CA        42.9970   49.9050   85.9280 C.3   140  VAL140      0.1692
     77  C         42.3390   50.4340   84.6500 C.2   140  VAL140      0.2592
     78  O         42.3790   51.6320   84.3670 O.2   140  VAL140     -0.2718
     79  CB        41.9930   50.0370   87.1070 C.3   140  VAL140      0.0266
     80  CG1       42.5400   49.3680   88.3560 C.3   140  VAL140      0.0020
     81  CG2       41.6750   51.4970   87.3850 C.3   140  VAL140      0.0020
     82  N         41.7410   49.5320   83.8770 N.am  141  ASP141     -0.1974
     83  CA        40.9370   49.9310   82.7260 C.3   141  ASP141      0.1709
     84  C         39.7140   49.0300   82.5790 C.2   141  ASP141      0.2293
     85  O         39.5160   48.0980   83.3580 O.2   141  ASP141     -0.2864
     86  CB        41.7640   49.9160   81.4380 C.3   141  ASP141      0.1436
     87  CG        41.7980   48.5480   80.7780 C.2   141  ASP141      0.3671
     88  OD1       41.9540   47.5370   81.5020 O.co2 141  ASP141     -0.2456
     89  OD2       41.6650   48.4870   79.5330 O.co2 141  ASP141     -0.2456
     90  N         44.5990   59.0780   83.5760 N.3   164  SER164     -0.1202
     91  CA        43.6650   60.1970   83.5630 C.3   164  SER164      0.2020
     92  C         43.1180   60.5810   84.9380 C.2   164  SER164      0.2618
     93  O         42.4870   61.6300   85.0790 O.2   164  SER164     -0.2717
     94  CB        42.5030   59.8940   82.6120 C.3   164  SER164      0.2103
     95  OG        41.8650   58.6770   82.9610 O.3   164  SER164     -0.2182
     96  N         43.3830   59.7550   85.9480 N.am  165  ASP165     -0.1973
     97  CA        42.7290   59.9070   87.2450 C.3   165  ASP165      0.1709
     98  C         43.2200   58.8940   88.2700 C.2   165  ASP165      0.2293
     99  O         44.0290   58.0220   87.9620 O.2   165  ASP165     -0.2864
    100  CB        41.2080   59.7780   87.0980 C.3   165  ASP165      0.1436
    101  CG        40.7960   58.4790   86.4320 C.2   165  ASP165      0.3671
    102  OD1       40.8200   58.4190   85.1840 O.co2 165  ASP165     -0.2456
    103  OD2       40.4480   57.5190   87.1560 O.co2 165  ASP165     -0.2456
@<TRIPOS>BOND
     1     3     4    2
     2     3     2    1
     3     1     2    1
     4     2     5    1
     5     5     6    1
     6     9     7   ar
     7     6     7    1
     8     7     8   ar
     9    10    11    1
    10    11    14    1
    11    11    12    1
    12    89    87   ar
    13    14    15    1
    14    13    12    2
    15    12    16   am
    16    87    86    1
    17    87    88   ar
    18    86    83    1
    19    16    17    1
    20    84    83    1
    21    84    85    2
    22    94    95    1
    23    94    91    1
    24    20    17    1
    25    83    82    1
    26    17    18    1
    27    91    90    1
    28    91    92    1
    29    39    38    2
    30    82    77   am
    31    18    19    2
    32    18    21   am
    33    36    37    1
    34    78    77    2
    35    38    37    1
    36    77    76    1
    37    92    93    2
    38    92    96   am
    39    55    53    1
    40   102   101   ar
    41    21    22    1
    42    53    52    1
    43    76    75    1
    44    76    79    1
    45    96    97    1
    46    40    41    1
    47   101   100    1
    48   101   103   ar
    49    35    33    1
    50    22    23    1
    51    34    33    1
    52    43    42    2
    53    25    26    1
    54    52    49    1
    55    52    54    1
    56    42    48   am
    57    42    41    1
    58    24    23    2
    59    33    32    2
    60   100    97    1
    61    48    49    1
    62    79    81    1
    63    79    80    1
    64    41    44    1
    65    49    50    1
    66    97    98    1
    67    99    98    2
    68    32    31    1
    69    30    31    1
    70    30    29    1
    71    26    27    1
    72    26    29    1
    73    46    45    2
    74    27    28    2
    75    44    45    1
    76    50    56   am
    77    50    51    2
    78    56    57    1
    79    45    47   am
    80    62    60    1
    81    74    73    1
    82    59    58    2
    83    60    57    1
    84    60    61    1
    85    57    58    1
    86    73    71   ar
    87    73    72   ar
    88    71    69   ar
    89    72    70   ar
    90    69    68   ar
    91    70    68   ar
    92    68    67    1
    93    63    64    1
    94    64    67    1
    95    64    65    1
    96    66    65    2
