@<TRIPOS>MOLECULE
tmp/4pr4A01.pdb
 195 198 0 0 0
SMALL
GASTEIGER

@<TRIPOS>ATOM
      1  N         63.7370   -8.6910   49.1980 N.3    20  TRP20      -0.1241
      2  CA        64.2290   -9.3710   48.0000 C.3    20  TRP20       0.1605
      3  C         65.3050  -10.3870   48.3860 C.2    20  TRP20       0.2264
      4  O         66.2630  -10.0350   49.0820 O.2    20  TRP20      -0.2867
      5  CB        64.7630   -8.3660   46.9740 C.3    20  TRP20       0.0550
      6  CG        65.3710   -9.0010   45.7520 C.ar   20  TRP20       0.0003
      7  CD1       64.9050  -10.0900   45.0550 C.ar   20  TRP20       0.0946
      8  CD2       66.5700   -8.5890   45.0910 C.ar   20  TRP20       0.0152
      9  NE1       65.7530  -10.3800   44.0050 N.ar   20  TRP20      -0.2442
     10  CE2       66.7790   -9.4700   44.0080 C.ar   20  TRP20       0.0810
     11  CE3       67.4870   -7.5510   45.3030 C.ar   20  TRP20       0.0012
     12  CZ2       67.8760   -9.3520   43.1550 C.ar   20  TRP20       0.0191
     13  CZ3       68.5730   -7.4380   44.4610 C.ar   20  TRP20       0.0001
     14  CH2       68.7570   -8.3320   43.3970 C.ar   20  TRP20       0.0015
     15  N         57.1460  -10.0670   42.6240 N.3    47  VAL47      -0.1231
     16  CA        58.2020  -10.7930   41.9230 C.3    47  VAL47       0.1692
     17  C         59.1940  -11.4700   42.8860 C.2    47  VAL47       0.2592
     18  O         59.9630  -12.3380   42.4850 O.2    47  VAL47      -0.2718
     19  CB        58.9240   -9.8600   40.9030 C.3    47  VAL47       0.0266
     20  CG1       59.8990   -8.9500   41.6170 C.3    47  VAL47       0.0020
     21  CG2       59.6130  -10.6480   39.8010 C.3    47  VAL47       0.0020
     22  N         59.1820  -11.0750   44.1580 N.am   48  TYR48      -0.1976
     23  CA        60.0730  -11.7000   45.1400 C.3    48  TYR48       0.1639
     24  C         59.6010  -13.0920   45.5600 C.2    48  TYR48       0.2290
     25  O         60.3690  -13.8430   46.1560 O.2    48  TYR48      -0.2864
     26  CB        60.2750  -10.8200   46.3790 C.3    48  TYR48       0.0560
     27  CG        60.8330   -9.4360   46.1120 C.ar   48  TYR48      -0.0198
     28  CD1       61.4440   -9.1130   44.9000 C.ar   48  TYR48      -0.0009
     29  CD2       60.7370   -8.4400   47.0810 C.ar   48  TYR48      -0.0009
     30  CE1       61.9300   -7.8360   44.6530 C.ar   48  TYR48       0.0417
     31  CE2       61.2270   -7.1620   46.8480 C.ar   48  TYR48       0.0417
     32  CZ        61.8200   -6.8610   45.6290 C.ar   48  TYR48       0.1957
     33  OH        62.2800   -5.5770   45.3900 O.3    48  TYR48      -0.2866
     34  N         54.4820   -5.7720   39.0950 N.3    79  TRP79      -0.1227
     35  CA        55.5100   -6.3560   38.2460 C.3    79  TRP79       0.1737
     36  C         55.2960   -5.9910   36.7580 C.2    79  TRP79       0.2595
     37  O         54.1940   -5.6190   36.3350 O.2    79  TRP79      -0.2718
     38  CB        55.6480   -7.8790   38.4900 C.3    79  TRP79       0.0564
     39  CG        56.7570   -8.4360   37.6680 C.ar   79  TRP79       0.0003
     40  CD1       56.6480   -9.2990   36.6140 C.ar   79  TRP79       0.0946
     41  CD2       58.1330   -8.0410   37.7240 C.ar   79  TRP79       0.0152
     42  NE1       57.8780   -9.4910   36.0340 N.ar   79  TRP79      -0.2442
     43  CE2       58.8050   -8.7300   36.6990 C.ar   79  TRP79       0.0810
     44  CE3       58.8680   -7.1920   38.5640 C.ar   79  TRP79       0.0012
     45  CZ2       60.1750   -8.5970   36.4870 C.ar   79  TRP79       0.0191
     46  CZ3       60.2230   -7.0570   38.3490 C.ar   79  TRP79       0.0001
     47  CH2       60.8630   -7.7560   37.3230 C.ar   79  TRP79       0.0015
     48  N         56.3640   -6.1290   35.9770 N.am   80  CYS80      -0.1970
     49  CA        56.4200   -5.6660   34.5920 C.3    80  CYS80       0.1712
     50  C         55.4120   -6.3280   33.6610 C.2    80  CYS80       0.2296
     51  O         55.0290   -5.7320   32.6630 O.2    80  CYS80      -0.2864
     52  CB        57.8330   -5.8850   34.0510 C.3    80  CYS80       0.0983
     53  SG        59.1160   -5.0510   35.0070 S.3    80  CYS80      -0.0798
     54  N         57.1050   -1.1910   39.4880 N.3   110  HIS110     -0.1226
     55  CA        58.3920   -1.7560   39.8950 C.3   110  HIS110      0.1752
     56  C         59.5360   -1.3040   38.9740 C.2   110  HIS110      0.2596
     57  O         60.6220   -0.9570   39.4500 O.2   110  HIS110     -0.2718
     58  CB        58.2830   -3.2870   39.9570 C.3   110  HIS110      0.0759
     59  CG        59.2970   -3.9460   40.8310 C.ar  110  HIS110      0.0818
     60  ND1       59.0520   -5.1450   41.4620 N.ar  110  HIS110     -0.2268
     61  CD2       60.5660   -3.5930   41.1450 C.ar  110  HIS110      0.1154
     62  CE1       60.1280   -5.4880   42.1490 C.ar  110  HIS110      0.1986
     63  NE2       61.0570   -4.5650   41.9760 N.ar  110  HIS110     -0.2212
     64  N         59.2840   -1.3320   37.6650 N.am  111  TRP111     -0.1976
     65  CA        60.2230   -0.8740   36.6400 C.3   111  TRP111      0.1640
     66  C         59.4190   -0.1720   35.5590 C.2   111  TRP111      0.2290
     67  O         58.2530   -0.5030   35.3430 O.2   111  TRP111     -0.2864
     68  CB        60.9760   -2.0630   36.0080 C.3   111  TRP111      0.0576
     69  CG        61.9560   -2.7050   36.9460 C.ar  111  TRP111      0.0006
     70  CD1       61.6870   -3.6340   37.9140 C.ar  111  TRP111      0.0946
     71  CD2       63.3540   -2.4260   37.0390 C.ar  111  TRP111      0.0152
     72  NE1       62.8360   -3.9580   38.5960 N.ar  111  TRP111     -0.2442
     73  CE2       63.8740   -3.2240   38.0820 C.ar  111  TRP111      0.0810
     74  CE3       64.2210   -1.5840   36.3370 C.ar  111  TRP111      0.0012
     75  CZ2       65.2190   -3.1870   38.4460 C.ar  111  TRP111      0.0191
     76  CZ3       65.5490   -1.5510   36.6940 C.ar  111  TRP111      0.0001
     77  CH2       66.0380   -2.3480   37.7380 C.ar  111  TRP111      0.0015
     78  N         59.7450   -0.5530   32.4640 N.3   113  THR113     -0.1218
     79  CA        59.6460   -1.4600   31.3290 C.3   113  THR113      0.1862
     80  C         58.4700   -2.4300   31.4770 C.2   113  THR113      0.2287
     81  O         58.4790   -3.2730   32.3650 O.2   113  THR113     -0.2866
     82  CB        60.9350   -2.2960   31.2170 C.3   113  THR113      0.1770
     83  OG1       61.2110   -2.9030   32.4850 O.3   113  THR113     -0.2211
     84  CG2       62.1120   -1.4240   30.8530 C.3   113  THR113      0.0375
     85  N         56.3840   -5.6970   30.1600 N.3   115  PHE115     -0.1241
     86  CA        56.6450   -6.9360   29.4400 C.3   115  PHE115      0.1605
     87  C         55.3240   -7.6050   29.0510 C.2   115  PHE115      0.2264
     88  O         54.2920   -7.3640   29.6730 O.2   115  PHE115     -0.2867
     89  CB        57.3850   -7.9590   30.3130 C.3   115  PHE115      0.0534
     90  CG        58.7110   -7.5060   30.8900 C.ar  115  PHE115     -0.0203
     91  CD1       59.4400   -6.4420   30.3840 C.ar  115  PHE115     -0.0042
     92  CD2       59.2450   -8.2210   31.9610 C.ar  115  PHE115     -0.0042
     93  CE1       60.6640   -6.0920   30.9660 C.ar  115  PHE115     -0.0003
     94  CE2       60.4520   -7.8750   32.5290 C.ar  115  PHE115     -0.0003
     95  CZ        61.1630   -6.8130   32.0400 C.ar  115  PHE115     -0.0000
     96  N         59.7640  -12.9180   33.1340 N.3   122  PHE122     -0.1241
     97  CA        60.6270  -12.3810   32.0870 C.3   122  PHE122      0.1605
     98  C         60.3750  -13.1520   30.7980 C.2   122  PHE122      0.2264
     99  O         61.1220  -14.0660   30.4600 O.2   122  PHE122     -0.2867
    100  CB        62.1080  -12.4870   32.4570 C.3   122  PHE122      0.0534
    101  CG        62.5750  -11.4310   33.4140 C.ar  122  PHE122     -0.0203
    102  CD1       62.4350  -11.6100   34.7810 C.ar  122  PHE122     -0.0042
    103  CD2       63.1560  -10.2570   32.9540 C.ar  122  PHE122     -0.0042
    104  CE1       62.8690  -10.6410   35.6740 C.ar  122  PHE122     -0.0003
    105  CE2       63.5830   -9.2880   33.8350 C.ar  122  PHE122     -0.0003
    106  CZ        63.4390   -9.4800   35.1960 C.ar  122  PHE122     -0.0000
    107  N         62.8970    2.7880   39.8110 N.3   160  ASN160     -0.1240
    108  CA        63.8350    2.6780   38.6970 C.3   160  ASN160      0.1653
    109  C         63.4620    3.5650   37.5140 C.2   160  ASN160      0.2266
    110  O         63.7780    3.2360   36.3730 O.2   160  ASN160     -0.2867
    111  CB        63.9900    1.2320   38.2270 C.3   160  ASN160      0.1155
    112  CG        64.4270    0.3190   39.3350 C.2   160  ASN160      0.2627
    113  OD1       65.5550    0.4290   39.8280 O.2   160  ASN160     -0.2716
    114  ND2       63.5420   -0.5880   39.7490 N.am  160  ASN160     -0.0877
    115  N         67.4370    1.7850   47.6140 N.3   209  TYR209     -0.1241
    116  CA        67.5450    0.3370   47.6940 C.3   209  TYR209      0.1605
    117  C         68.9880   -0.1420   47.5230 C.2   209  TYR209      0.2264
    118  O         69.8610    0.6160   47.0930 O.2   209  TYR209     -0.2867
    119  CB        66.5550   -0.3500   46.7560 C.3   209  TYR209      0.0534
    120  CG        66.8160   -0.4510   45.2600 C.ar  209  TYR209     -0.0201
    121  CD1       67.8900   -1.1750   44.7470 C.ar  209  TYR209     -0.0009
    122  CD2       65.8960    0.0660   44.3570 C.ar  209  TYR209     -0.0009
    123  CE1       68.0400   -1.3610   43.3770 C.ar  209  TYR209      0.0417
    124  CE2       66.0360   -0.1110   42.9920 C.ar  209  TYR209      0.0417
    125  CZ        67.1100   -0.8360   42.5100 C.ar  209  TYR209      0.1957
    126  OH        67.2740   -1.0780   41.1670 O.3   209  TYR209     -0.2866
    127  N         74.4860  -12.4020   40.9530 N.3   219  TRP219     -0.1241
    128  CA        75.5140  -12.2320   39.9290 C.3   219  TRP219      0.1605
    129  C         76.7850  -11.5820   40.4640 C.2   219  TRP219      0.2264
    130  O         77.6050  -11.0780   39.6910 O.2   219  TRP219     -0.2867
    131  CB        74.9600  -11.4030   38.7700 C.3   219  TRP219      0.0550
    132  CG        74.2260  -10.1880   39.2280 C.ar  219  TRP219      0.0003
    133  CD1       74.7530   -8.9560   39.4840 C.ar  219  TRP219      0.0946
    134  CD2       72.8250  -10.0910   39.5010 C.ar  219  TRP219      0.0152
    135  NE1       73.7640   -8.0930   39.8910 N.ar  219  TRP219     -0.2442
    136  CE2       72.5710   -8.7670   39.9100 C.ar  219  TRP219      0.0810
    137  CE3       71.7580  -10.9940   39.4330 C.ar  219  TRP219      0.0012
    138  CZ2       71.2960   -8.3270   40.2520 C.ar  219  TRP219      0.0191
    139  CZ3       70.4970  -10.5540   39.7700 C.ar  219  TRP219      0.0001
    140  CH2       70.2750   -9.2350   40.1760 C.ar  219  TRP219      0.0015
    141  N         71.7410   -3.4640   40.1250 N.3   298  CYS298     -0.1221
    142  CA        70.5170   -3.8720   39.4450 C.3   298  CYS298      0.1808
    143  C         70.3450   -3.2470   38.0750 C.2   298  CYS298      0.2601
    144  O         69.9520   -2.0840   37.9640 O.2   298  CYS298     -0.2717
    145  CB        69.2880   -3.5580   40.3010 C.3   298  CYS298      0.0970
    146  SG        69.1130   -4.6110   41.7440 S.3   298  CYS298     -0.0800
    147  N         70.6180   -4.0560   37.0500 N.am  299  ALA299     -0.1965
    148  CA        70.4150   -3.7190   35.6390 C.3   299  ALA299      0.1728
    149  C         70.5680   -4.9990   34.8140 C.2   299  ALA299      0.2616
    150  O         71.5330   -5.7370   34.9920 O.2   299  ALA299     -0.2715
    151  CB        71.4240   -2.6850   35.1970 C.3   299  ALA299      0.0334
    152  N         69.6270   -5.2710   33.9150 N.am  300  LEU300     -0.1977
    153  CA        69.6420   -6.5400   33.1870 C.3   300  LEU300      0.1596
    154  C         69.9220   -6.4040   31.6970 C.2   300  LEU300      0.2287
    155  O         69.3020   -5.5950   31.0060 O.2   300  LEU300     -0.2864
    156  CB        68.3310   -7.2980   33.3990 C.3   300  LEU300      0.0297
    157  CG        68.1550   -7.9200   34.7830 C.3   300  LEU300      0.0022
    158  CD1       66.7650   -8.5000   34.9290 C.3   300  LEU300      0.0001
    159  CD2       69.2090   -8.9880   35.0280 C.3   300  LEU300      0.0001
    160  N         67.1190   -6.5900   29.0570 N.3   303  CYS303     -0.1235
    161  CA        66.2070   -5.4540   28.9190 C.3   303  CYS303      0.1677
    162  C         66.8210   -4.2210   28.2670 C.2   303  CYS303      0.2270
    163  O         66.1450   -3.2060   28.1100 O.2   303  CYS303     -0.2867
    164  CB        65.6380   -5.0580   30.2830 C.3   303  CYS303      0.0956
    165  SG        64.6880   -6.3520   31.0870 S.3   303  CYS303     -0.0801
    166  N         63.9890    1.0810   28.7980 N.3   309  TYR309     -0.1228
    167  CA        65.1330    0.7520   29.6490 C.3   309  TYR309      0.1721
    168  C         65.6400    2.0370   30.2860 C.2   309  TYR309      0.2437
    169  O         65.8910    3.0120   29.5810 O.2   309  TYR309     -0.2733
    170  CB        66.2530    0.0920   28.8450 C.3   309  TYR309      0.0547
    171  CG        67.4710   -0.2740   29.6730 C.ar  309  TYR309     -0.0200
    172  CD1       67.4520   -1.3750   30.5230 C.ar  309  TYR309     -0.0009
    173  CD2       68.6370    0.4740   29.6030 C.ar  309  TYR309     -0.0009
    174  CE1       68.5610   -1.7190   31.2780 C.ar  309  TYR309      0.0417
    175  CE2       69.7540    0.1370   30.3500 C.ar  309  TYR309      0.0417
    176  CZ        69.7090   -0.9580   31.1880 C.ar  309  TYR309      0.1957
    177  OH        70.8180   -1.2920   31.9340 O.3   309  TYR309     -0.2866
    178  N         65.7630    2.0600   31.6240 N.am  310  PRO310     -0.2718
    179  CA        66.0010    3.3470   32.2910 C.3   310  PRO310      0.1535
    180  C         67.4510    3.8220   32.3640 C.2   310  PRO310      0.2598
    181  O         67.6560    4.9960   32.6660 O.2   310  PRO310     -0.2715
    182  CB        65.4720    3.0970   33.7130 C.3   310  PRO310      0.0310
    183  CG        65.6730    1.6300   33.9200 C.3   310  PRO310      0.0237
    184  CD        65.3820    1.0020   32.5790 C.3   310  PRO310      0.0939
    185  N         68.4320    2.9630   32.0990 N.am  311  PHE311     -0.1974
    186  CA        69.8090    3.2940   32.4630 C.3   311  PHE311      0.1639
    187  C         70.7490    3.6470   31.3030 C.2   311  PHE311      0.2290
    188  O         71.9700    3.6100   31.4700 O.2   311  PHE311     -0.2864
    189  CB        70.4120    2.1820   33.3260 C.3   311  PHE311      0.0560
    190  CG        69.5730    1.8220   34.5230 C.ar  311  PHE311     -0.0200
    191  CD1       68.9360    2.8040   35.2760 C.ar  311  PHE311     -0.0042
    192  CD2       69.4180    0.4990   34.8920 C.ar  311  PHE311     -0.0042
    193  CE1       68.1550    2.4680   36.3720 C.ar  311  PHE311     -0.0003
    194  CE2       68.6450    0.1540   35.9880 C.ar  311  PHE311     -0.0003
    195  CZ        68.0150    1.1430   36.7300 C.ar  311  PHE311     -0.0000
@<TRIPOS>BOND
     1   163   162    2
     2   162   161    1
     3   166   167    1
     4   170   167    1
     5   170   171    1
     6   161   160    1
     7   161   164    1
     8    87    86    1
     9    87    88    2
    10    86    85    1
    11    86    89    1
    12   169   168    2
    13   173   171   ar
    14   173   175   ar
    15   167   168    1
    16   171   172   ar
    17   164   165    1
    18   168   178   am
    19    89    90    1
    20   175   176   ar
    21    91    90   ar
    22    91    93   ar
    23    99    98    2
    24   172   174   ar
    25    98    97    1
    26    84    82    1
    27    90    92   ar
    28    93    95   ar
    29   155   154    2
    30   176   174   ar
    31   176   177    1
    32    82    79    1
    33    82    83    1
    34   187   188    2
    35   187   186    1
    36    79    80    1
    37    79    78    1
    38    80    81    2
    39   178   179    1
    40   178   184    1
    41   154   153    1
    42    92    94   ar
    43    95    94   ar
    44    97   100    1
    45    97    96    1
    46   185   180   am
    47   185   186    1
    48   179   180    1
    49   179   182    1
    50   180   181    2
    51   100   101    1
    52   186   189    1
    53   184   183    1
    54    51    50    2
    55   103   101   ar
    56   103   105   ar
    57   153   156    1
    58   153   152    1
    59   189   190    1
    60   156   157    1
    61   101   102   ar
    62    50    49    1
    63   182   183    1
    64   105   106   ar
    65   152   149   am
    66    52    49    1
    67    52    53    1
    68   190   192   ar
    69   190   191   ar
    70    49    48    1
    71   102   104   ar
    72   157   158    1
    73   157   159    1
    74   149   150    2
    75   149   148    1
    76   192   194   ar
    77   106   104   ar
    78   151   148    1
    79   191   193   ar
    80    67    66    2
    81    66    65    1
    82   148   147    1
    83    48    36   am
    84   194   195   ar
    85    68    65    1
    86    68    69    1
    87    42    40   ar
    88    42    43   ar
    89    37    36    2
    90    74    76   ar
    91    74    71   ar
    92   193   195   ar
    93   110   109    2
    94    45    43   ar
    95    45    47   ar
    96    40    39   ar
    97    65    64    1
    98    76    77   ar
    99    43    41   ar
   100    36    35    1
   101    69    71   ar
   102    69    70   ar
   103    71    73   ar
   104   147   143   am
   105    47    46   ar
   106   109   108    1
   107    64    56   am
   108    39    41   ar
   109    39    38    1
   110    41    44   ar
   111    77    75   ar
   112    70    72   ar
   113   144   143    2
   114   143   142    1
   115    73    75   ar
   116    73    72   ar
   117   111   108    1
   118   111   112    1
   119    35    38    1
   120    35    34    1
   121    46    44   ar
   122   108   107    1
   123   131   132    1
   124   131   128    1
   125    56    57    2
   126    56    55    1
   127   132   133   ar
   128   132   134   ar
   129   112   114   am
   130   112   113    2
   131   137   134   ar
   132   137   139   ar
   133   142   141    1
   134   142   145    1
   135   133   135   ar
   136    54    55    1
   137   134   136   ar
   138   130   129    2
   139   139   140   ar
   140    21    19    1
   141   135   136   ar
   142    55    58    1
   143   136   138   ar
   144   128   129    1
   145   128   127    1
   146    58    59    1
   147   140   138   ar
   148   145   146    1
   149    59    61   ar
   150    59    60   ar
   151    19    20    1
   152    19    16    1
   153    61    63   ar
   154   126   125    1
   155    60    62   ar
   156    16    15    1
   157    16    17    1
   158    63    62   ar
   159    18    17    2
   160   125   124   ar
   161   125   123   ar
   162    17    22   am
   163   124   122   ar
   164    12    14   ar
   165    12    10   ar
   166   123   121   ar
   167    14    13   ar
   168     9    10   ar
   169     9     7   ar
   170    10     8   ar
   171    22    23    1
   172   122   120   ar
   173    13    11   ar
   174    30    28   ar
   175    30    32   ar
   176   121   120   ar
   177    28    27   ar
   178     7     6   ar
   179     8    11   ar
   180     8     6   ar
   181    23    24    1
   182    23    26    1
   183   120   119    1
   184    33    32    1
   185    24    25    2
   186    32    31   ar
   187     6     5    1
   188    27    26    1
   189    27    29   ar
   190   119   116    1
   191    31    29   ar
   192     5     2    1
   193   118   117    2
   194   117   116    1
   195   115   116    1
   196     2     3    1
   197     2     1    1
   198     3     4    2
