@<TRIPOS>MOLECULE
tmp/4pr7A04.pdb
 104 98 0 0 0
SMALL
GASTEIGER

@<TRIPOS>ATOM
      1  N         18.7370   14.1860  -11.0080 N.3    53  PHE53      -0.1241
      2  CA        19.8030   15.0300  -11.5600 C.3    53  PHE53       0.1605
      3  C         20.2750   14.4490  -12.8700 C.2    53  PHE53       0.2264
      4  O         20.7140   15.1770  -13.7570 O.2    53  PHE53      -0.2867
      5  CB        20.9740   15.1070  -10.6020 C.3    53  PHE53       0.0534
      6  CG        20.6420   15.7600   -9.3110 C.ar   53  PHE53      -0.0203
      7  CD1       20.7190   17.1430   -9.1820 C.ar   53  PHE53      -0.0042
      8  CD2       20.2800   14.9990   -8.2120 C.ar   53  PHE53      -0.0042
      9  CE1       20.4020   17.7570   -7.9860 C.ar   53  PHE53      -0.0003
     10  CE2       19.9820   15.6040   -7.0130 C.ar   53  PHE53      -0.0003
     11  CZ        20.0440   16.9830   -6.8990 C.ar   53  PHE53      -0.0000
     12  N         17.0280   12.9300   -5.7130 N.3    59  ILE59      -0.1245
     13  CA        16.6210   13.1960   -4.3300 C.3    59  ILE59       0.1561
     14  C         15.1120   13.3350   -4.1850 C.2    59  ILE59       0.2260
     15  O         14.4250   13.8670   -5.0710 O.2    59  ILE59      -0.2867
     16  CB        17.2910   14.4420   -3.7200 C.3    59  ILE59       0.0252
     17  CG1       17.0300   15.6780   -4.5680 C.3    59  ILE59       0.0019
     18  CG2       18.7640   14.1820   -3.5460 C.3    59  ILE59       0.0019
     19  CD1       17.0730   16.9480   -3.7510 C.3    59  ILE59       0.0001
     20  N         13.7720   12.6900    3.5950 N.3    78  LEU78      -0.1245
     21  CA        14.6080   13.0070    2.4570 C.3    78  LEU78       0.1561
     22  C         15.3440   11.7550    2.0830 C.2    78  LEU78       0.2260
     23  O         16.1510   11.2710    2.8590 O.2    78  LEU78      -0.2867
     24  CB        15.6020   14.1120    2.8040 C.3    78  LEU78       0.0270
     25  CG        16.4170   14.6450    1.6150 C.3    78  LEU78       0.0019
     26  CD1       15.5590   15.3610    0.5860 C.3    78  LEU78       0.0001
     27  CD2       17.5070   15.5760    2.1140 C.3    78  LEU78       0.0001
     28  N         17.8620   10.0110   -0.6580 N.3    80  GLY80      -0.1225
     29  CA        18.7790   10.0650   -1.7870 C.3    80  GLY80       0.1811
     30  C         18.8440    8.6820   -2.3930 C.2    80  GLY80       0.2280
     31  O         18.7120    7.6890   -1.6790 O.2    80  GLY80      -0.2866
     32  N         19.4720    6.0780    0.6670 N.3    92  LEU92      -0.1245
     33  CA        19.5610    6.4680    2.0700 C.3    92  LEU92       0.1561
     34  C         18.4650    7.4900    2.3790 C.2    92  LEU92       0.2260
     35  O         18.3460    8.4910    1.6740 O.2    92  LEU92      -0.2867
     36  CB        20.9120    7.0930    2.3670 C.3    92  LEU92       0.0270
     37  CG        21.1040    7.4430    3.8550 C.3    92  LEU92       0.0019
     38  CD1       21.0650    6.1730    4.6960 C.3    92  LEU92       0.0001
     39  CD2       22.3950    8.2050    4.0960 C.3    92  LEU92       0.0001
     40  N         16.6810    9.8450    5.5340 N.3    94  TYR94      -0.1241
     41  CA        16.5280   10.3930    6.8830 C.3    94  TYR94       0.1605
     42  C         15.0530   10.7230    7.1010 C.2    94  TYR94       0.2264
     43  O         14.4830   11.4700    6.3220 O.2    94  TYR94      -0.2867
     44  CB        17.3840   11.6600    7.0420 C.3    94  TYR94       0.0534
     45  CG        17.1630   12.4510    8.3290 C.ar   94  TYR94      -0.0201
     46  CD1       17.4320   11.8910    9.5840 C.ar   94  TYR94      -0.0009
     47  CD2       16.7230   13.7880    8.2890 C.ar   94  TYR94      -0.0009
     48  CE1       17.2370   12.6220   10.7480 C.ar   94  TYR94       0.0417
     49  CE2       16.5310   14.5170    9.4510 C.ar   94  TYR94       0.0417
     50  CZ        16.7930   13.9330   10.6700 C.ar   94  TYR94       0.1957
     51  OH        16.5940   14.6700   11.8050 O.3    94  TYR94      -0.2866
     52  N         14.0720    9.8470   15.1580 N.3   103  TYR103     -0.1241
     53  CA        14.2720    9.7300   13.7220 C.3   103  TYR103      0.1605
     54  C         14.6890    8.3260   13.3590 C.2   103  TYR103      0.2264
     55  O         15.2570    7.5940   14.1850 O.2   103  TYR103     -0.2867
     56  CB        15.3240   10.7530   13.2330 C.3   103  TYR103      0.0534
     57  CG        16.7310   10.4840   13.7330 C.ar  103  TYR103     -0.0201
     58  CD1       17.5850    9.6370   13.0290 C.ar  103  TYR103     -0.0009
     59  CD2       17.2010   11.0570   14.9000 C.ar  103  TYR103     -0.0009
     60  CE1       18.8690    9.3720   13.4780 C.ar  103  TYR103      0.0417
     61  CE2       18.4920   10.7990   15.3590 C.ar  103  TYR103      0.0417
     62  CZ        19.3100    9.9540   14.6380 C.ar  103  TYR103      0.1957
     63  OH        20.5850    9.6740   15.0620 O.3   103  TYR103     -0.2866
     64  N         16.9470    6.3260   10.2590 N.3   105  LEU105     -0.1245
     65  CA        17.8840    6.3600    9.1530 C.3   105  LEU105      0.1561
     66  C         17.8660    4.9830    8.4840 C.2   105  LEU105      0.2260
     67  O         18.1180    3.9620    9.1350 O.2   105  LEU105     -0.2867
     68  CB        19.2920    6.6760    9.6790 C.3   105  LEU105      0.0270
     69  CG        20.2800    7.1180    8.5980 C.3   105  LEU105      0.0019
     70  CD1       20.0060    8.5600    8.1840 C.3   105  LEU105      0.0001
     71  CD2       21.7160    6.9680    9.0800 C.3   105  LEU105      0.0001
     72  N         17.9360    2.2050   11.3260 N.3   125  TYR125     -0.1241
     73  CA        18.2340    2.5940   12.7090 C.3   125  TYR125      0.1605
     74  C         17.1530    3.5230   13.1680 C.2   125  TYR125      0.2264
     75  O         16.8590    4.5080   12.4750 O.2   125  TYR125     -0.2867
     76  CB        19.5560    3.3500   12.8160 C.3   125  TYR125      0.0534
     77  CG        20.7680    2.5560   12.4260 C.ar  125  TYR125     -0.0201
     78  CD1       21.3590    1.6640   13.3200 C.ar  125  TYR125     -0.0009
     79  CD2       21.3380    2.7010   11.1630 C.ar  125  TYR125     -0.0009
     80  CE1       22.4820    0.9360   12.9640 C.ar  125  TYR125      0.0417
     81  CE2       22.4600    1.9740   10.7970 C.ar  125  TYR125      0.0417
     82  CZ        23.0270    1.0950   11.6990 C.ar  125  TYR125      0.1957
     83  OH        24.1380    0.3770   11.3330 O.3   125  TYR125     -0.2866
     84  N         16.1730    5.9590   16.4250 N.3   127  LYS127     -0.1245
     85  CA        16.5810    6.6000   17.6570 C.3   127  LYS127      0.1561
     86  C         15.5070    7.5800   18.0910 C.2   127  LYS127      0.2260
     87  O         15.1170    8.4480   17.3160 O.2   127  LYS127     -0.2867
     88  CB        17.9030    7.3510   17.4660 C.3   127  LYS127      0.0271
     89  CG        18.3460    8.0930   18.7270 C.3   127  LYS127      0.0035
     90  CD        19.7130    7.6570   19.2180 C.3   127  LYS127      0.0206
     91  CE        19.8500    7.8960   20.7140 C.3   127  LYS127      0.1093
     92  NZ        21.2170    7.5810   21.2180 N.3   127  LYS127     -0.1314
     93  N         18.7730    3.0970   20.6810 N.3   131  TYR131     -0.1241
     94  CA        18.7110    2.6640   19.2880 C.3   131  TYR131      0.1605
     95  C         17.9400    1.3420   19.1170 C.2   131  TYR131      0.2264
     96  O         18.0260    0.4400   19.9470 O.2   131  TYR131     -0.2867
     97  CB        20.1290    2.4960   18.7300 C.3   131  TYR131      0.0534
     98  CG        20.9230    1.4310   19.4630 C.ar  131  TYR131     -0.0201
     99  CD1       20.9050    0.1000   19.0400 C.ar  131  TYR131     -0.0009
    100  CD2       21.6690    1.7450   20.5980 C.ar  131  TYR131     -0.0009
    101  CE1       21.6140   -0.8820   19.7180 C.ar  131  TYR131      0.0417
    102  CE2       22.3840    0.7700   21.2810 C.ar  131  TYR131      0.0417
    103  CZ        22.3530   -0.5380   20.8370 C.ar  131  TYR131      0.1957
    104  OH        23.0630   -1.5030   21.5120 O.3   131  TYR131     -0.2866
@<TRIPOS>BOND
     1     4     3    2
     2     3     2    1
     3     2     1    1
     4     2     5    1
     5     5     6    1
     6     6     7   ar
     7     6     8   ar
     8     7     9   ar
     9     8    10   ar
    10     9    11   ar
    11    10    11   ar
    12    12    13    1
    13    15    14    2
    14    17    19    1
    15    17    16    1
    16    13    14    1
    17    13    16    1
    18    16    18    1
    19    30    29    1
    20    30    31    2
    21    29    28    1
    22    26    25    1
    23    32    33    1
    24    25    27    1
    25    25    24    1
    26    35    34    2
    27    33    36    1
    28    33    34    1
    29    22    21    1
    30    22    23    2
    31    36    37    1
    32    21    24    1
    33    21    20    1
    34    37    39    1
    35    37    38    1
    36    40    41    1
    37    43    42    2
    38    41    44    1
    39    41    42    1
    40    44    45    1
    41    70    69    1
    42    47    45   ar
    43    47    49   ar
    44    45    46   ar
    45    66    67    2
    46    66    65    1
    47    69    71    1
    48    69    68    1
    49    65    68    1
    50    65    64    1
    51    49    50   ar
    52    46    48   ar
    53    50    48   ar
    54    50    51    1
    55    81    79   ar
    56    81    82   ar
    57    79    77   ar
    58    72    73    1
    59    83    82    1
    60    82    80   ar
    61    77    76    1
    62    77    78   ar
    63    75    74    2
    64    73    76    1
    65    73    74    1
    66    80    78   ar
    67    58    60   ar
    68    58    57   ar
    69    56    53    1
    70    56    57    1
    71    54    53    1
    72    54    55    2
    73    60    62   ar
    74    53    52    1
    75    57    59   ar
    76    62    63    1
    77    62    61   ar
    78    59    61   ar
    79    84    85    1
    80    87    86    2
    81    88    85    1
    82    88    89    1
    83    85    86    1
    84    89    90    1
    85    97    94    1
    86    97    98    1
    87    99    98   ar
    88    99   101   ar
    89    95    94    1
    90    95    96    2
    91    90    91    1
    92    94    93    1
    93    98   100   ar
    94   101   103   ar
    95   100   102   ar
    96    91    92    1
    97   103   102   ar
    98   103   104    1
