@<TRIPOS>MOLECULE
tmp/4prjA00.pdb
 171 160 0 0 0
SMALL
GASTEIGER

@<TRIPOS>ATOM
      1  N         61.0140   18.6530   23.3150 N.3    13  ARG13      -0.1245
      2  CA        60.2220   18.0450   24.3790 C.3    13  ARG13       0.1563
      3  C         59.8370   16.5810   24.1080 C.2    13  ARG13       0.2260
      4  O         59.3170   16.2820   23.0270 O.2    13  ARG13      -0.2867
      5  CB        58.9580   18.8920   24.6340 C.3    13  ARG13       0.0307
      6  CG        58.1540   18.4670   25.8620 C.3    13  ARG13       0.0489
      7  CD        56.9040   19.2900   26.0700 C.3    13  ARG13       0.2205
      8  NE        55.8880   19.0370   25.0480 N.pl3  13  ARG13      -0.0865
      9  CZ        54.9410   18.1080   25.1400 C.cat  13  ARG13       0.5346
     10  NH1       54.8760   17.3190   26.2050 N.pl3  13  ARG13       0.1354
     11  NH2       54.0560   17.9590   24.1660 N.pl3  13  ARG13       0.1354
     12  N         57.4700   13.6710   23.9170 N.3    15  LEU15      -0.1231
     13  CA        56.0220   13.5650   23.7660 C.3    15  LEU15       0.1693
     14  C         55.4360   12.3480   24.4750 C.2    15  LEU15       0.2592
     15  O         54.2990   12.4160   24.9490 O.2    15  LEU15      -0.2718
     16  CB        55.6460   13.5620   22.2750 C.3    15  LEU15       0.0284
     17  CG        56.1550   14.7390   21.4350 C.3    15  LEU15       0.0019
     18  CD1       56.2340   14.3690   19.9800 C.3    15  LEU15       0.0001
     19  CD2       55.2840   15.9620   21.6120 C.3    15  LEU15       0.0001
     20  N         56.2070   11.2570   24.5310 N.am   16  GLY16      -0.1957
     21  CA        55.7990   10.0050   25.1650 C.3    16  GLY16       0.1869
     22  C         56.9250    9.0190   25.4210 C.2    16  GLY16       0.2309
     23  O         58.0760    9.2590   25.0380 O.2    16  GLY16      -0.2863
     24  N         59.5940    8.9400   22.0070 N.3    20  VAL20      -0.1245
     25  CA        59.1540    9.8560   20.9520 C.3    20  VAL20       0.1561
     26  C         59.3510   11.3250   21.4070 C.2    20  VAL20       0.2260
     27  O         58.8250   11.7280   22.4480 O.2    20  VAL20      -0.2867
     28  CB        57.7200    9.5370   20.4190 C.3    20  VAL20       0.0252
     29  CG1       56.7490    9.1820   21.5470 C.3    20  VAL20       0.0019
     30  CG2       57.1690   10.6650   19.5410 C.3    20  VAL20       0.0019
     31  N         57.3290   14.2160   14.8110 N.3    33  ALA33      -0.1245
     32  CA        57.6180   13.4450   16.0100 C.3    33  ALA33       0.1562
     33  C         58.6860   12.4120   15.6560 C.2    33  ALA33       0.2260
     34  O         58.5660   11.7270   14.6390 O.2    33  ALA33      -0.2867
     35  CB        56.3530   12.7580   16.5010 C.3    33  ALA33       0.0290
     36  N         60.5190    9.0730   16.8320 N.3    35  LYS35      -0.1245
     37  CA        60.5320    7.8940   17.6860 C.3    35  LYS35       0.1561
     38  C         61.9740    7.3590   17.5880 C.2    35  LYS35       0.2260
     39  O         62.4400    7.0160   16.4900 O.2    35  LYS35      -0.2867
     40  CB        59.5050    6.8680   17.1820 C.3    35  LYS35       0.0271
     41  CG        59.2310    5.7010   18.1270 C.3    35  LYS35       0.0035
     42  CD        58.2920    4.7060   17.4660 C.3    35  LYS35       0.0206
     43  CE        57.6500    3.7730   18.4450 C.3    35  LYS35       0.1093
     44  NZ        56.5010    3.0650   17.8290 N.3    35  LYS35      -0.1314
     45  N         56.0180   -2.9240   11.0400 N.3    54  GLU54      -0.1196
     46  CA        55.4050   -1.6450   11.4260 C.3    54  GLU54       0.1783
     47  C         55.7450   -0.5410   10.3980 C.2    54  GLU54       0.2306
     48  O         54.8450    0.1600    9.9270 O.2    54  GLU54      -0.2863
     49  CB        55.8640   -1.2660   12.8630 C.2    54  GLU54       0.0071
     50  CG        55.5440    0.1490   13.3390 C.2    54  GLU54       0.0834
     51  CD        56.1750    0.5930   14.6510 C.2    54  GLU54       0.3877
     52  OE1       55.8230    1.6970   15.1230 O.co2  54  GLU54      -0.2406
     53  OE2       57.0210   -0.1460   15.2050 O.co2  54  GLU54      -0.2406
     54  N         52.7190    0.9740    8.0570 N.3    58  GLN58      -0.1245
     55  CA        52.3310    2.3770    8.3020 C.3    58  GLN58       0.1566
     56  C         52.7680    3.3830    7.2350 C.2    58  GLN58       0.2260
     57  O         52.1190    4.4220    7.1060 O.2    58  GLN58      -0.2867
     58  CB        52.8050    2.8500    9.6820 C.3    58  GLN58       0.0367
     59  CG        51.8500    3.8440   10.3420 C.3    58  GLN58       0.0905
     60  CD        52.3660    4.3720   11.6580 C.2    58  GLN58       0.2608
     61  OE1       52.9760    3.6520   12.4730 O.2    58  GLN58      -0.2717
     62  NE2       52.0790    5.6380   11.9170 N.am   58  GLN58      -0.0878
     63  N         47.7100    8.0170   11.6030 N.3    67  LEU67      -0.1245
     64  CA        48.9070    8.8530   11.6820 C.3    67  LEU67       0.1561
     65  C         49.9350    8.4020   10.6480 C.2    67  LEU67       0.2260
     66  O         50.2410    7.2130   10.5410 O.2    67  LEU67      -0.2867
     67  CB        49.4920    8.8230   13.0950 C.3    67  LEU67       0.0270
     68  CG        50.4020    9.9670   13.4810 C.3    67  LEU67       0.0019
     69  CD1       49.5900   11.2030   13.9300 C.3    67  LEU67       0.0001
     70  CD2       51.3550    9.5210   14.5430 C.3    67  LEU67       0.0001
     71  N         57.4700   10.5410   12.1240 N.3    83  LEU83      -0.1231
     72  CA        56.0290   10.3920   12.2770 C.3    83  LEU83       0.1693
     73  C         55.2850   11.7210   12.2900 C.2    83  LEU83       0.2595
     74  O         55.8720   12.7570   12.6020 O.2    83  LEU83      -0.2718
     75  CB        55.7380    9.6030   13.5640 C.3    83  LEU83       0.0284
     76  CG        56.1080    8.1220   13.5260 C.3    83  LEU83       0.0019
     77  CD1       56.5840    7.6410   14.8790 C.3    83  LEU83       0.0001
     78  CD2       54.9540    7.2730   13.0070 C.3    83  LEU83       0.0001
     79  N         53.9900   11.6880   11.9420 N.am   84  GLU84      -0.1920
     80  CA        53.1360   12.8710   11.9300 C.3    84  GLU84       0.1949
     81  C         52.8990   13.3280   13.3660 C.2    84  GLU84       0.2659
     82  O         52.7230   12.5040   14.2660 O.2    84  GLU84      -0.2711
     83  CB        51.8030   12.5750   11.2170 C.2    84  GLU84       0.0111
     84  CG        50.9130   13.7790   10.9590 C.2    84  GLU84       0.0838
     85  CD        49.4480   13.4930   10.6740 C.2    84  GLU84       0.3877
     86  OE1       48.6030   14.3270   11.0780 O.co2  84  GLU84      -0.2406
     87  OE2       49.1400   12.4520   10.0450 O.co2  84  GLU84      -0.2406
     88  N         52.9490   14.6430   13.5790 N.am   85  TYR85      -0.1957
     89  CA        52.7200   15.2080   14.8890 C.3    85  TYR85       0.1771
     90  C         51.2270   15.4640   15.0630 C.2    85  TYR85       0.2619
     91  O         50.6090   16.1280   14.2220 O.2    85  TYR85      -0.2715
     92  CB        53.5420   16.4960   15.0720 C.3    85  TYR85       0.0574
     93  CG        53.1780   17.2870   16.3120 C.ar   85  TYR85      -0.0198
     94  CD1       53.4090   16.7700   17.5860 C.ar   85  TYR85      -0.0009
     95  CD2       52.5880   18.5430   16.2130 C.ar   85  TYR85      -0.0009
     96  CE1       53.0650   17.4860   18.7290 C.ar   85  TYR85       0.0417
     97  CE2       52.2500   19.2730   17.3500 C.ar   85  TYR85       0.0417
     98  CZ        52.4850   18.7380   18.6080 C.ar   85  TYR85       0.1957
     99  OH        52.1550   19.4430   19.7410 O.3    85  TYR85      -0.2866
    100  N         50.6470   14.9010   16.1340 N.am   86  ALA86      -0.1964
    101  CA        49.2390   15.1030   16.4680 C.3    86  ALA86       0.1713
    102  C         49.2160   16.2570   17.4710 C.2    86  ALA86       0.2458
    103  O         49.7260   16.1140   18.5870 O.2    86  ALA86      -0.2730
    104  CB        48.6540   13.8480   17.0720 C.3    86  ALA86       0.0333
    105  N         48.7260   17.4420   17.0460 N.am   87  PRO87      -0.2716
    106  CA        48.7980   18.6310   17.9170 C.3    87  PRO87       0.1536
    107  C         48.0250   18.5900   19.2260 C.2    87  PRO87       0.2598
    108  O         48.4140   19.2940   20.1610 O.2    87  PRO87      -0.2715
    109  CB        48.2750   19.7620   17.0230 C.3    87  PRO87       0.0310
    110  CG        48.3970   19.2540   15.6260 C.3    87  PRO87       0.0237
    111  CD        48.1500   17.7840   15.7310 C.3    87  PRO87       0.0939
    112  N         46.9380   17.8060   19.2960 N.am   88  LEU88      -0.1964
    113  CA        46.0970   17.7900   20.4900 C.3    88  LEU88       0.1728
    114  C         46.3720   16.6020   21.4460 C.2    88  LEU88       0.2617
    115  O         45.6050   16.3660   22.3820 O.2    88  LEU88      -0.2715
    116  CB        44.6080   17.9080   20.0980 C.3    88  LEU88       0.0311
    117  CG        44.0650   19.3650   19.9240 C.3    88  LEU88       0.0022
    118  CD1       44.6900   20.0810   18.7540 C.3    88  LEU88       0.0001
    119  CD2       42.5900   19.3650   19.6830 C.3    88  LEU88       0.0001
    120  N         47.5140   15.9460   21.2620 N.am   89  GLY89      -0.1940
    121  CA        47.9680   14.8640   22.1280 C.3    89  GLY89       0.2014
    122  C         47.2360   13.5440   22.0310 C.2    89  GLY89       0.2639
    123  O         46.5070   13.2890   21.0680 O.2    89  GLY89      -0.2714
    124  N         47.4640   12.6780   23.0330 N.am   90  THR90      -0.1950
    125  CA        46.8660   11.3450   23.1040 C.3    90  THR90       0.1897
    126  C         45.4340   11.3840   23.5980 C.2    90  THR90       0.2313
    127  O         45.0310   12.3350   24.2770 O.2    90  THR90      -0.2863
    128  CB        47.7020   10.3940   23.9880 C.3    90  THR90       0.1794
    129  OG1       47.8280   10.9440   25.2950 O.3    90  THR90      -0.2208
    130  CG2       49.0650   10.0960   23.4120 C.3    90  THR90       0.0378
    131  N         45.5370   10.9000   27.5400 N.3    93  ARG93      -0.1245
    132  CA        45.6990   12.1250   28.3150 C.3    93  ARG93       0.1563
    133  C         44.3490   12.7980   28.4940 C.2    93  ARG93       0.2260
    134  O         44.0210   13.1940   29.6170 O.2    93  ARG93      -0.2867
    135  CB        46.6980   13.0790   27.6430 C.3    93  ARG93       0.0307
    136  CG        47.2350   14.1600   28.5820 C.3    93  ARG93       0.0489
    137  CD        47.9230   15.3040   27.8510 C.3    93  ARG93       0.2205
    138  NE        48.5510   16.2300   28.7970 N.pl3  93  ARG93      -0.0865
    139  CZ        49.8590   16.3000   29.0370 C.cat  93  ARG93       0.5346
    140  NH1       50.3310   17.1570   29.9330 N.pl3  93  ARG93       0.1354
    141  NH2       50.7060   15.5210   28.3730 N.pl3  93  ARG93       0.1354
    142  N         41.9000   13.7620   32.0680 N.3    97  LYS97      -0.1245
    143  CA        41.4200   15.0890   32.4790 C.3    97  LYS97       0.1561
    144  C         39.9200   15.0520   32.7380 C.2    97  LYS97       0.2260
    145  O         39.4550   15.4740   33.7980 O.2    97  LYS97      -0.2867
    146  CB        41.6930   16.1550   31.3930 C.3    97  LYS97       0.0271
    147  CG        43.1140   16.2060   30.8500 C.3    97  LYS97       0.0035
    148  CD        43.1940   17.1120   29.6190 C.3    97  LYS97       0.0206
    149  CE        44.4250   16.8570   28.7730 C.3    97  LYS97       0.1093
    150  NZ        45.6610   17.4210   29.3860 N.3    97  LYS97      -0.1314
    151  N         45.7580    9.1040   19.0090 N.3   136  LEU136     -0.1245
    152  CA        46.0640   10.5240   19.0760 C.3   136  LEU136      0.1561
    153  C         44.9380   11.4150   18.5540 C.2   136  LEU136      0.2260
    154  O         43.9780   10.9260   17.9620 O.2   136  LEU136     -0.2867
    155  CB        47.3590   10.8150   18.3150 C.3   136  LEU136      0.0270
    156  CG        48.6840   10.3900   18.9460 C.3   136  LEU136      0.0019
    157  CD1       49.7420   10.3430   17.8930 C.3   136  LEU136      0.0001
    158  CD2       49.1540   11.3770   19.9970 C.3   136  LEU136      0.0001
    159  N         48.0080    6.0450   16.0640 N.3   146  ALA146     -0.1231
    160  CA        49.4430    6.3250   16.1410 C.3   146  ALA146      0.1694
    161  C         50.3370    5.0970   16.0070 C.2   146  ALA146      0.2592
    162  O         50.9230    4.9040   14.9460 O.2   146  ALA146     -0.2718
    163  CB        49.7610    7.0570   17.4330 C.3   146  ALA146      0.0304
    164  N         50.4820    4.3080   17.0980 N.am  147  ASP147     -0.1974
    165  CA        51.3400    3.1250   17.1970 C.3   147  ASP147      0.1709
    166  C         50.8580    2.0070   16.3240 C.2   147  ASP147      0.2293
    167  O         49.6860    1.6710   16.3840 O.2   147  ASP147     -0.2864
    168  CB        51.3950    2.6180   18.6450 C.3   147  ASP147      0.1436
    169  CG        52.7310    2.8100   19.3190 C.2   147  ASP147      0.3671
    170  OD1       52.8600    3.7670   20.1130 O.co2 147  ASP147     -0.2456
    171  OD2       53.6440    2.0020   19.0610 O.co2 147  ASP147     -0.2456
@<TRIPOS>BOND
     1    57    56    2
     2    56    55    1
     3    54    55    1
     4    55    58    1
     5    58    59    1
     6    48    47    2
     7    87    85   ar
     8    59    60    1
     9    47    46    1
    10    66    65    2
    11    65    64    1
    12    85    84    1
    13    85    86   ar
    14    84    83    2
    15    45    46    1
    16    83    80    1
    17    46    49    1
    18    63    64    1
    19    60    62   am
    20    60    61    2
    21    64    67    1
    22    80    79    1
    23    80    81    1
    24    79    73   am
    25    71    72    1
    26    72    73    1
    27    72    75    1
    28    73    74    2
    29    49    50    2
    30    78    76    1
    31    67    68    1
    32    50    51    1
    33    81    88   am
    34    81    82    2
    35    68    69    1
    36    68    70    1
    37    76    75    1
    38    76    77    1
    39    88    89    1
    40    91    90    2
    41    34    33    2
    42    51    52   ar
    43    51    53   ar
    44    31    32    1
    45    89    90    1
    46    89    92    1
    47   162   161    2
    48    90   100   am
    49    92    93    1
    50   110   111    1
    51   110   109    1
    52    33    32    1
    53   111   105    1
    54   161   160    1
    55   161   164   am
    56    32    35    1
    57   159   160    1
    58   100   101    1
    59   160   163    1
    60    95    93   ar
    61    95    97   ar
    62    93    94   ar
    63   166   167    2
    64   166   165    1
    65   101   104    1
    66   101   102    1
    67    39    38    2
    68    36    37    1
    69   109   106    1
    70   105   102   am
    71   105   106    1
    72   164   165    1
    73    40    37    1
    74    40    41    1
    75   165   168    1
    76    97    98   ar
    77    42    41    1
    78    42    43    1
    79   102   103    2
    80    94    96   ar
    81    38    37    1
    82    44    43    1
    83   157   156    1
    84   106   107    1
    85   154   153    2
    86   155   156    1
    87   155   152    1
    88   153   152    1
    89    98    96   ar
    90    98    99    1
    91   168   169    1
    92   118   117    1
    93   156   158    1
    94   151   152    1
    95   171   169   ar
    96   107   112   am
    97   107   108    2
    98   112   113    1
    99   169   170   ar
   100    30    28    1
   101   119   117    1
   102   117   116    1
   103    18    17    1
   104   116   113    1
   105    28    25    1
   106    28    29    1
   107   113   114    1
   108    25    26    1
   109    25    24    1
   110   123   122    2
   111   120   114   am
   112   120   121    1
   113    26    27    2
   114    17    19    1
   115    17    16    1
   116   114   115    2
   117   122   121    1
   118   122   124   am
   119    16    13    1
   120     4     3    2
   121   124   125    1
   122   125   126    1
   123   125   128    1
   124     1     2    1
   125   130   128    1
   126   126   127    2
   127    13    12    1
   128    13    14    1
   129   128   129    1
   130     3     2    1
   131    11     9    1
   132     2     5    1
   133    14    20   am
   134    14    15    2
   135    20    21    1
   136     5     6    1
   137    23    22    2
   138     8     9    2
   139     8     7    1
   140     9    10    1
   141    21    22    1
   142     6     7    1
   143   131   132    1
   144   135   132    1
   145   135   136    1
   146   137   136    1
   147   137   138    1
   148   132   133    1
   149   141   139    1
   150   133   134    2
   151   149   150    1
   152   149   148    1
   153   138   139    2
   154   139   140    1
   155   148   147    1
   156   147   146    1
   157   146   143    1
   158   142   143    1
   159   143   144    1
   160   144   145    2
