@<TRIPOS>MOLECULE
tmp/4prqB02.pdb
 95 93 0 0 0
SMALL
GASTEIGER

@<TRIPOS>ATOM
      1  N         21.4510  -22.1390   46.6820 N.3    59  ASN59      -0.1240
      2  CA        20.3660  -22.5410   45.8040 C.3    59  ASN59       0.1653
      3  C         18.9780  -22.2110   46.3750 C.2    59  ASN59       0.2266
      4  O         18.7380  -22.3400   47.5760 O.2    59  ASN59      -0.2867
      5  CB        20.4880  -24.0400   45.5080 C.3    59  ASN59       0.1155
      6  CG        19.3710  -24.5450   44.6460 C.2    59  ASN59       0.2627
      7  OD1       18.3440  -24.9760   45.1660 O.2    59  ASN59      -0.2716
      8  ND2       19.5350  -24.4500   43.3230 N.am   59  ASN59      -0.0877
      9  N         16.0210  -23.6440   46.0230 N.3    61  ARG61      -0.1231
     10  CA        15.0480  -24.7060   46.3490 C.3    61  ARG61       0.1694
     11  C         14.7500  -24.7240   47.8410 C.2    61  ARG61       0.2592
     12  O         13.5930  -24.8930   48.2490 O.2    61  ARG61      -0.2718
     13  CB        15.5380  -26.0780   45.8930 C.3    61  ARG61       0.0321
     14  CG        15.4580  -26.2800   44.3780 C.3    61  ARG61       0.0489
     15  CD        15.9030  -27.6850   43.9820 C.3    61  ARG61       0.2205
     16  NE        17.2320  -27.9740   44.5150 N.pl3  61  ARG61      -0.0865
     17  CZ        18.3740  -27.7980   43.8550 C.cat  61  ARG61       0.5346
     18  NH1       18.4030  -27.3600   42.5930 N.pl3  61  ARG61       0.1354
     19  NH2       19.5030  -28.0660   44.4670 N.pl3  61  ARG61       0.1354
     20  N         15.7860  -24.5280   48.6560 N.am   62  TRP62      -0.1962
     21  CA        15.6110  -24.6320   50.1050 C.3    62  TRP62       0.1771
     22  C         15.9690  -23.4090   50.9180 C.2    62  TRP62       0.2619
     23  O         15.4330  -23.2290   52.0150 O.2    62  TRP62      -0.2715
     24  CB        16.3800  -25.8450   50.6590 C.3    62  TRP62       0.0590
     25  CG        15.6650  -27.1190   50.4080 C.ar   62  TRP62       0.0006
     26  CD1       15.8680  -27.9840   49.3680 C.ar   62  TRP62       0.0946
     27  CD2       14.5980  -27.6750   51.1920 C.ar   62  TRP62       0.0152
     28  NE1       15.0000  -29.0480   49.4620 N.ar   62  TRP62      -0.2442
     29  CE2       14.2150  -28.8870   50.5740 C.ar   62  TRP62       0.0810
     30  CE3       13.9390  -27.2720   52.3660 C.ar   62  TRP62       0.0012
     31  CZ2       13.1960  -29.7060   51.0880 C.ar   62  TRP62       0.0191
     32  CZ3       12.9240  -28.0840   52.8750 C.ar   62  TRP62       0.0001
     33  CH2       12.5680  -29.2900   52.2330 C.ar   62  TRP62       0.0015
     34  N         16.8470  -22.5590   50.3830 N.am   63  TRP63      -0.1974
     35  CA        17.5940  -21.6380   51.2330 C.3    63  TRP63       0.1640
     36  C         17.2250  -20.1610   51.1880 C.2    63  TRP63       0.2290
     37  O         17.4090  -19.4460   52.1750 O.2    63  TRP63      -0.2864
     38  CB        19.0970  -21.8330   50.9950 C.3    63  TRP63       0.0576
     39  CG        19.4880  -23.2550   51.2720 C.ar   63  TRP63       0.0006
     40  CD1       19.8150  -24.2080   50.3530 C.ar   63  TRP63       0.0946
     41  CD2       19.5310  -23.8970   52.5490 C.ar   63  TRP63       0.0152
     42  NE1       20.0690  -25.4030   50.9790 N.ar   63  TRP63      -0.2442
     43  CE2       19.9030  -25.2390   52.3290 C.ar   63  TRP63       0.0810
     44  CE3       19.3000  -23.4630   53.8610 C.ar   63  TRP63       0.0012
     45  CZ2       20.0800  -26.1530   53.3790 C.ar   63  TRP63       0.0191
     46  CZ3       19.4580  -24.3770   54.9040 C.ar   63  TRP63       0.0001
     47  CH2       19.8410  -25.7020   54.6560 C.ar   63  TRP63       0.0015
     48  N         23.6520  -24.1140   56.1400 N.3    98  ILE98      -0.1245
     49  CA        23.6040  -25.2160   55.2070 C.3    98  ILE98       0.1561
     50  C         24.4960  -26.3710   55.6830 C.2    98  ILE98       0.2260
     51  O         24.0250  -27.5050   55.8430 O.2    98  ILE98      -0.2867
     52  CB        24.0160  -24.7680   53.8010 C.3    98  ILE98       0.0252
     53  CG1       23.0080  -23.7450   53.2570 C.3    98  ILE98       0.0019
     54  CG2       24.1150  -25.9630   52.8690 C.3    98  ILE98       0.0019
     55  CD1       23.4560  -23.0260   52.0020 C.3    98  ILE98       0.0001
     56  N         23.3320  -29.7520   57.5920 N.3   102  GLY102     -0.1210
     57  CA        23.7110  -30.9220   56.8160 C.3   102  GLY102      0.1956
     58  C         24.7130  -31.8160   57.5160 C.2   102  GLY102      0.2612
     59  O         24.7710  -31.8700   58.7440 O.2   102  GLY102     -0.2717
     60  N         25.4980  -32.5240   56.7150 N.am  103  ASN103     -0.1960
     61  CA        26.6060  -33.3230   57.2150 C.3   103  ASN103      0.1823
     62  C         27.9460  -32.7120   56.7940 C.2   103  ASN103      0.2660
     63  O         28.9800  -33.0030   57.3980 O.2   103  ASN103     -0.2711
     64  CB        26.4820  -34.7620   56.7070 C.3   103  ASN103      0.1195
     65  CG        27.2900  -35.7500   57.5280 C.2   103  ASN103      0.2630
     66  OD1       27.4980  -35.5650   58.7290 O.2   103  ASN103     -0.2716
     67  ND2       27.7410  -36.8150   56.8820 N.am  103  ASN103     -0.0877
     68  N         27.9130  -31.8550   55.7700 N.am  104  GLY104     -0.1730
     69  CA        29.1260  -31.3160   55.1470 C.2   104  GLY104      0.1340
     70  C         28.9030  -30.2960   54.0340 C.2   104  GLY104      0.2521
     71  O         27.9410  -29.5290   54.0740 O.2   104  GLY104     -0.2816
     72  N         28.5720  -31.0150   50.7140 N.3   106  ASN106     -0.1225
     73  CA        28.0670  -31.6690   49.5040 C.3   106  ASN106      0.1785
     74  C         27.0170  -30.8380   48.7570 C.2   106  ASN106      0.2597
     75  O         26.8160  -31.0470   47.5700 O.2   106  ASN106     -0.2718
     76  CB        27.5280  -33.0810   49.8050 C.3   106  ASN106      0.1169
     77  CG        28.6260  -34.0720   50.1600 C.2   106  ASN106      0.2627
     78  OD1       29.7200  -34.0500   49.5970 O.2   106  ASN106     -0.2716
     79  ND2       28.3260  -34.9640   51.0950 N.am  106  ASN106     -0.0877
     80  N         26.3620  -29.9010   49.4480 N.am  107  ALA107     -0.1979
     81  CA        25.4000  -28.9790   48.8090 C.3   107  ALA107      0.1597
     82  C         26.0550  -28.2100   47.6520 C.2   107  ALA107      0.2287
     83  O         25.3990  -27.8620   46.6700 O.2   107  ALA107     -0.2864
     84  CB        24.8170  -28.0080   49.8340 C.3   107  ALA107      0.0319
     85  N         32.1720  -30.3370   45.2290 N.3   112  ARG112     -0.1245
     86  CA        32.2290  -31.7960   45.1010 C.3   112  ARG112      0.1563
     87  C         33.0940  -32.2100   43.9170 C.2   112  ARG112      0.2260
     88  O         33.8980  -33.1220   44.0350 O.2   112  ARG112     -0.2867
     89  CB        30.8300  -32.4040   44.9610 C.3   112  ARG112      0.0307
     90  CG        29.9620  -32.3190   46.2080 C.3   112  ARG112      0.0489
     91  CD        28.7680  -33.2760   46.1190 C.3   112  ARG112      0.2205
     92  NE        28.1760  -33.2940   44.7810 N.pl3 112  ARG112     -0.0865
     93  CZ        26.9970  -32.7670   44.4570 C.cat 112  ARG112      0.5346
     94  NH1       26.2410  -32.1650   45.3710 N.pl3 112  ARG112      0.1354
     95  NH2       26.5700  -32.8470   43.2010 N.pl3 112  ARG112      0.1354
@<TRIPOS>BOND
     1    18    17    1
     2    95    93    1
     3     8     6   am
     4    17    19    1
     5    17    16    2
     6    87    88    2
     7    87    86    1
     8    15    14    1
     9    15    16    1
    10    14    13    1
    11    93    92    2
    12    93    94    1
    13     6     7    2
    14     6     5    1
    15    92    91    1
    16    89    86    1
    17    89    90    1
    18    86    85    1
    19     5     2    1
    20     2     3    1
    21     2     1    1
    22    13    10    1
    23     9    10    1
    24    91    90    1
    25    10    11    1
    26     3     4    2
    27    83    82    2
    28    75    74    2
    29    82    81    1
    30    11    12    2
    31    11    20   am
    32    20    21    1
    33    74    80   am
    34    74    73    1
    35    81    80    1
    36    81    84    1
    37    26    28   ar
    38    26    25   ar
    39    28    29   ar
    40    73    76    1
    41    73    72    1
    42    78    77    2
    43    76    77    1
    44    21    24    1
    45    21    22    1
    46    77    79   am
    47    40    42   ar
    48    40    39   ar
    49    34    22   am
    50    34    35    1
    51    25    24    1
    52    25    27   ar
    53    29    31   ar
    54    29    27   ar
    55    22    23    2
    56    42    43   ar
    57    38    35    1
    58    38    39    1
    59    31    33   ar
    60    36    35    1
    61    36    37    2
    62    27    30   ar
    63    39    41   ar
    64    55    53    1
    65    33    32   ar
    66    43    41   ar
    67    43    45   ar
    68    30    32   ar
    69    41    44   ar
    70    54    52    1
    71    53    52    1
    72    45    47   ar
    73    52    49    1
    74    44    46   ar
    75    70    71    2
    76    70    69    1
    77    47    46   ar
    78    69    68    2
    79    49    50    1
    80    49    48    1
    81    50    51    2
    82    68    62    1
    83    64    61    1
    84    64    65    1
    85    60    61    1
    86    60    58   am
    87    62    61    1
    88    62    63    2
    89    57    58    1
    90    57    56    1
    91    67    65   am
    92    58    59    2
    93    65    66    2
