@<TRIPOS>MOLECULE
tmp/4prrA01.pdb
 178 180 0 0 0
SMALL
GASTEIGER

@<TRIPOS>ATOM
      1  N         63.3880   -8.8520   49.0130 N.3    20  TRP20      -0.1241
      2  CA        63.8400   -9.5340   47.8030 C.3    20  TRP20       0.1605
      3  C         64.9180  -10.5450   48.1910 C.2    20  TRP20       0.2264
      4  O         65.8780  -10.1940   48.8840 O.2    20  TRP20      -0.2867
      5  CB        64.4000   -8.5290   46.7960 C.3    20  TRP20       0.0550
      6  CG        64.9780   -9.1480   45.5490 C.ar   20  TRP20       0.0003
      7  CD1       64.4920  -10.2220   44.8470 C.ar   20  TRP20       0.0946
      8  CD2       66.1660   -8.7340   44.8740 C.ar   20  TRP20       0.0152
      9  NE1       65.3120  -10.5000   43.7780 N.ar   20  TRP20      -0.2442
     10  CE2       66.3440   -9.5960   43.7730 C.ar   20  TRP20       0.0810
     11  CE3       67.0930   -7.7050   45.0860 C.ar   20  TRP20       0.0012
     12  CZ2       67.4230   -9.4750   42.9060 C.ar   20  TRP20       0.0191
     13  CZ3       68.1540   -7.5820   44.2280 C.ar   20  TRP20       0.0001
     14  CH2       68.3120   -8.4590   43.1430 C.ar   20  TRP20       0.0015
     15  N         56.8010  -10.1850   42.4980 N.3    47  VAL47      -0.1231
     16  CA        57.8530  -10.9090   41.7870 C.3    47  VAL47       0.1692
     17  C         58.8370  -11.5860   42.7590 C.2    47  VAL47       0.2592
     18  O         59.6000  -12.4590   42.3600 O.2    47  VAL47      -0.2718
     19  CB        58.5790   -9.9760   40.7750 C.3    47  VAL47       0.0266
     20  CG1       59.5530   -9.0710   41.4820 C.3    47  VAL47       0.0020
     21  CG2       59.2800  -10.7760   39.6780 C.3    47  VAL47       0.0020
     22  N         58.8250  -11.1960   44.0340 N.am   48  TYR48      -0.1976
     23  CA        59.7100  -11.8200   45.0240 C.3    48  TYR48       0.1639
     24  C         59.2340  -13.2160   45.4400 C.2    48  TYR48       0.2290
     25  O         59.9910  -13.9570   46.0620 O.2    48  TYR48      -0.2864
     26  CB        59.8900  -10.9320   46.2640 C.3    48  TYR48       0.0560
     27  CG        60.4490   -9.5520   45.9790 C.ar   48  TYR48      -0.0198
     28  CD1       61.0530   -9.2390   44.7600 C.ar   48  TYR48      -0.0009
     29  CD2       60.3760   -8.5460   46.9380 C.ar   48  TYR48      -0.0009
     30  CE1       61.5380   -7.9520   44.5010 C.ar   48  TYR48       0.0417
     31  CE2       60.8630   -7.2730   46.6920 C.ar   48  TYR48       0.0417
     32  CZ        61.4500   -6.9760   45.4770 C.ar   48  TYR48       0.1957
     33  OH        61.9190   -5.7000   45.2270 O.3    48  TYR48      -0.2866
     34  N         54.1840   -5.8560   38.9550 N.3    79  TRP79      -0.1241
     35  CA        55.2100   -6.4370   38.1010 C.3    79  TRP79       0.1605
     36  C         55.0140   -6.0590   36.6190 C.2    79  TRP79       0.2264
     37  O         53.9240   -5.6820   36.1820 O.2    79  TRP79      -0.2867
     38  CB        55.3530   -7.9560   38.3320 C.3    79  TRP79       0.0550
     39  CG        56.4840   -8.4960   37.5360 C.ar   79  TRP79       0.0003
     40  CD1       56.4030   -9.3470   36.4730 C.ar   79  TRP79       0.0946
     41  CD2       57.8640   -8.1030   37.6340 C.ar   79  TRP79       0.0152
     42  NE1       57.6450   -9.5380   35.9290 N.ar   79  TRP79      -0.2442
     43  CE2       58.5590   -8.7820   36.6170 C.ar   79  TRP79       0.0810
     44  CE3       58.5790   -7.2500   38.4920 C.ar   79  TRP79       0.0012
     45  CZ2       59.9380   -8.6520   36.4420 C.ar   79  TRP79       0.0191
     46  CZ3       59.9450   -7.1240   38.3200 C.ar   79  TRP79       0.0001
     47  CH2       60.6110   -7.8180   37.2950 C.ar   79  TRP79       0.0015
     48  N         56.7640   -1.2660   39.3640 N.3   110  HIS110     -0.1226
     49  CA        58.0490   -1.8350   39.7650 C.3   110  HIS110      0.1752
     50  C         59.1950   -1.3830   38.8420 C.2   110  HIS110      0.2596
     51  O         60.2860   -1.0610   39.3230 O.2   110  HIS110     -0.2718
     52  CB        57.9340   -3.3600   39.8270 C.3   110  HIS110      0.0759
     53  CG        58.9320   -4.0200   40.7150 C.ar  110  HIS110      0.0818
     54  ND1       58.6680   -5.2180   41.3430 N.ar  110  HIS110     -0.2268
     55  CD2       60.2050   -3.6860   41.0330 C.ar  110  HIS110      0.1154
     56  CE1       59.7330   -5.5730   42.0370 C.ar  110  HIS110      0.1986
     57  NE2       60.6750   -4.6580   41.8740 N.ar  110  HIS110     -0.2212
     58  N         58.9410   -1.3880   37.5300 N.am  111  TRP111     -0.1976
     59  CA        59.8850   -0.9300   36.5180 C.3   111  TRP111      0.1640
     60  C         59.0910   -0.2240   35.4330 C.2   111  TRP111      0.2290
     61  O         57.9180   -0.5380   35.2130 O.2   111  TRP111     -0.2864
     62  CB        60.6200   -2.1250   35.8740 C.3   111  TRP111      0.0576
     63  CG        61.6010   -2.7750   36.8130 C.ar  111  TRP111      0.0006
     64  CD1       61.3310   -3.6910   37.7960 C.ar  111  TRP111      0.0946
     65  CD2       63.0030   -2.5220   36.8840 C.ar  111  TRP111      0.0152
     66  NE1       62.4790   -4.0200   38.4700 N.ar  111  TRP111     -0.2442
     67  CE2       63.5220   -3.3120   37.9320 C.ar  111  TRP111      0.0810
     68  CE3       63.8770   -1.7180   36.1480 C.ar  111  TRP111      0.0012
     69  CZ2       64.8730   -3.2970   38.2740 C.ar  111  TRP111      0.0191
     70  CZ3       65.2170   -1.7080   36.4850 C.ar  111  TRP111      0.0001
     71  CH2       65.7030   -2.4950   37.5370 C.ar  111  TRP111      0.0015
     72  N         59.4670   -0.6470   32.3650 N.3   113  THR113     -0.1218
     73  CA        59.4020   -1.5650   31.2440 C.3   113  THR113      0.1862
     74  C         58.2150   -2.5330   31.3760 C.2   113  THR113      0.2287
     75  O         58.1950   -3.3740   32.2690 O.2   113  THR113     -0.2866
     76  CB        60.7030   -2.4050   31.1940 C.3   113  THR113      0.1770
     77  OG1       60.9360   -3.0030   32.4760 O.3   113  THR113     -0.2211
     78  CG2       61.9090   -1.5420   30.8410 C.3   113  THR113      0.0375
     79  N         56.1850   -5.7940   30.0390 N.3   115  PHE115     -0.1241
     80  CA        56.4540   -7.0420   29.3310 C.3   115  PHE115      0.1605
     81  C         55.1270   -7.7050   28.9420 C.2   115  PHE115      0.2264
     82  O         54.0930   -7.4680   29.5600 O.2   115  PHE115     -0.2867
     83  CB        57.1940   -8.0580   30.2100 C.3   115  PHE115      0.0534
     84  CG        58.5120   -7.5980   30.7970 C.ar  115  PHE115     -0.0203
     85  CD1       59.2430   -6.5310   30.2960 C.ar  115  PHE115     -0.0042
     86  CD2       59.0290   -8.3010   31.8830 C.ar  115  PHE115     -0.0042
     87  CE1       60.4610   -6.1780   30.8850 C.ar  115  PHE115     -0.0003
     88  CE2       60.2320   -7.9530   32.4670 C.ar  115  PHE115     -0.0003
     89  CZ        60.9480   -6.8880   31.9770 C.ar  115  PHE115     -0.0000
     90  N         59.5610  -12.9960   33.0770 N.3   122  PHE122     -0.1241
     91  CA        60.4300  -12.4480   32.0370 C.3   122  PHE122      0.1605
     92  C         60.2060  -13.2210   30.7450 C.2   122  PHE122      0.2264
     93  O         60.9740  -14.1250   30.4140 O.2   122  PHE122     -0.2867
     94  CB        61.9110  -12.5400   32.4320 C.3   122  PHE122      0.0534
     95  CG        62.3440  -11.4920   33.4120 C.ar  122  PHE122     -0.0203
     96  CD1       62.8770  -10.2850   32.9790 C.ar  122  PHE122     -0.0042
     97  CD2       62.2170  -11.7140   34.7720 C.ar  122  PHE122     -0.0042
     98  CE1       63.2730   -9.3210   33.8890 C.ar  122  PHE122     -0.0003
     99  CE2       62.6120  -10.7530   35.6880 C.ar  122  PHE122     -0.0003
    100  CZ        63.1440   -9.5560   35.2440 C.ar  122  PHE122     -0.0000
    101  N         62.5790    2.6650   39.6580 N.3   160  ASN160     -0.1240
    102  CA        63.5030    2.5550   38.5360 C.3   160  ASN160      0.1653
    103  C         63.1340    3.4610   37.3690 C.2   160  ASN160      0.2266
    104  O         63.4410    3.1500   36.2180 O.2   160  ASN160     -0.2867
    105  CB        63.6330    1.1110   38.0650 C.3   160  ASN160      0.1155
    106  CG        64.0800    0.1960   39.1670 C.2   160  ASN160      0.2627
    107  OD1       65.2190    0.3000   39.6380 O.2   160  ASN160     -0.2716
    108  ND2       63.1960   -0.6910   39.6130 N.am  160  ASN160     -0.0877
    109  N         67.0850    1.6380   47.4490 N.3   209  TYR209     -0.1241
    110  CA        67.1920    0.1960   47.5190 C.3   209  TYR209      0.1605
    111  C         68.6370   -0.2830   47.3560 C.2   209  TYR209      0.2264
    112  O         69.5050    0.4730   46.9170 O.2   209  TYR209     -0.2867
    113  CB        66.2050   -0.4850   46.5770 C.3   209  TYR209      0.0534
    114  CG        66.4610   -0.5810   45.0830 C.ar  209  TYR209     -0.0201
    115  CD1       67.5350   -1.3050   44.5740 C.ar  209  TYR209     -0.0009
    116  CD2       65.5370   -0.0670   44.1820 C.ar  209  TYR209     -0.0009
    117  CE1       67.6940   -1.4910   43.2090 C.ar  209  TYR209      0.0417
    118  CE2       65.6780   -0.2460   42.8170 C.ar  209  TYR209      0.0417
    119  CZ        66.7620   -0.9700   42.3360 C.ar  209  TYR209      0.1957
    120  OH        66.9300   -1.2140   40.9910 O.3   209  TYR209     -0.2866
    121  N         74.0560  -12.5780   40.6650 N.3   219  TRP219     -0.1241
    122  CA        75.0820  -12.3810   39.6440 C.3   219  TRP219      0.1605
    123  C         76.3400  -11.7300   40.1960 C.2   219  TRP219      0.2264
    124  O         77.1750  -11.2460   39.4330 O.2   219  TRP219     -0.2867
    125  CB        74.5360  -11.5330   38.4940 C.3   219  TRP219      0.0550
    126  CG        73.8210  -10.3050   38.9550 C.ar  219  TRP219      0.0003
    127  CD1       74.3700   -9.0810   39.2130 C.ar  219  TRP219      0.0946
    128  CD2       72.4200  -10.1810   39.2140 C.ar  219  TRP219      0.0152
    129  NE1       73.3950   -8.2030   39.6180 N.ar  219  TRP219     -0.2442
    130  CE2       72.1880   -8.8530   39.6250 C.ar  219  TRP219      0.0810
    131  CE3       71.3390  -11.0640   39.1360 C.ar  219  TRP219      0.0012
    132  CZ2       70.9200   -8.3890   39.9590 C.ar  219  TRP219      0.0191
    133  CZ3       70.0830  -10.6010   39.4640 C.ar  219  TRP219      0.0001
    134  CH2       69.8830   -9.2760   39.8720 C.ar  219  TRP219      0.0015
    135  N         71.4580   -3.5520   39.9330 N.3   298  CYS298     -0.1221
    136  CA        70.2090   -3.9990   39.3390 C.3   298  CYS298      0.1808
    137  C         69.9580   -3.4240   37.9630 C.2   298  CYS298      0.2601
    138  O         69.5210   -2.2790   37.8270 O.2   298  CYS298     -0.2717
    139  CB        69.0320   -3.6760   40.2510 C.3   298  CYS298      0.0970
    140  SG        68.9200   -4.7390   41.6910 S.3   298  CYS298     -0.0800
    141  N         70.2320   -4.2530   36.9590 N.am  299  ALA299     -0.1965
    142  CA        69.9620   -3.9760   35.5580 C.3   299  ALA299      0.1728
    143  C         70.1460   -5.3010   34.8280 C.2   299  ALA299      0.2616
    144  O         71.0460   -6.0730   35.1590 O.2   299  ALA299     -0.2715
    145  CB        70.9220   -2.9410   35.0320 C.3   299  ALA299      0.0334
    146  N         69.2990   -5.5800   33.8460 N.am  300  LEU300     -0.1977
    147  CA        69.3710   -6.8600   33.1550 C.3   300  LEU300      0.1596
    148  C         69.6600   -6.7030   31.6750 C.2   300  LEU300      0.2287
    149  O         69.0160   -5.9140   30.9810 O.2   300  LEU300     -0.2864
    150  CB        68.0830   -7.6590   33.3490 C.3   300  LEU300      0.0297
    151  CG        67.8340   -8.1270   34.7790 C.3   300  LEU300      0.0022
    152  CD1       66.4580   -8.7280   34.8950 C.3   300  LEU300      0.0001
    153  CD2       68.8970   -9.1290   35.2110 C.3   300  LEU300      0.0001
    154  N         66.9520   -6.8020   29.0200 N.3   303  CYS303     -0.1235
    155  CA        66.0460   -5.6590   28.9140 C.3   303  CYS303      0.1677
    156  C         66.6510   -4.4300   28.2480 C.2   303  CYS303      0.2270
    157  O         65.9670   -3.4200   28.0840 O.2   303  CYS303     -0.2867
    158  CB        65.5490   -5.2590   30.3010 C.3   303  CYS303      0.0956
    159  SG        64.5840   -6.5190   31.1290 S.3   303  CYS303     -0.0801
    160  N         63.7550    0.9230   28.7210 N.3   309  TYR309     -0.1228
    161  CA        64.8890    0.6090   29.5860 C.3   309  TYR309      0.1721
    162  C         65.3870    1.9040   30.2120 C.2   309  TYR309      0.2437
    163  O         65.6350    2.8720   29.5010 O.2   309  TYR309     -0.2733
    164  CB        66.0080   -0.0490   28.7890 C.3   309  TYR309      0.0547
    165  CG        67.2280   -0.3860   29.6120 C.ar  309  TYR309     -0.0200
    166  CD1       67.2130   -1.4560   30.4990 C.ar  309  TYR309     -0.0009
    167  CD2       68.3930    0.3610   29.5110 C.ar  309  TYR309     -0.0009
    168  CE1       68.3240   -1.7810   31.2460 C.ar  309  TYR309      0.0417
    169  CE2       69.5090    0.0460   30.2550 C.ar  309  TYR309      0.0417
    170  CZ        69.4680   -1.0260   31.1230 C.ar  309  TYR309      0.1957
    171  OH        70.5760   -1.3500   31.8670 O.3   309  TYR309     -0.2866
    172  N         65.5160    1.9420   31.5470 N.am  310  PRO310     -0.2729
    173  CA        65.7210    3.2460   32.1890 C.3   310  PRO310      0.1401
    174  C         67.1630    3.7300   32.2740 C.2   310  PRO310      0.2269
    175  O         67.3580    4.8990   32.5980 O.2   310  PRO310     -0.2865
    176  CB        65.1800    3.0180   33.6080 C.3   310  PRO310      0.0296
    177  CG        65.3660    1.5600   33.8420 C.3   310  PRO310      0.0237
    178  CD        65.1130    0.9040   32.5140 C.3   310  PRO310      0.0939
@<TRIPOS>BOND
     1   157   156    2
     2   156   155    1
     3   160   161    1
     4   164   161    1
     5   164   165    1
     6   155   154    1
     7   155   158    1
     8    81    80    1
     9    81    82    2
    10    80    79    1
    11    80    83    1
    12   163   162    2
    13   167   165   ar
    14   167   169   ar
    15   161   162    1
    16   165   166   ar
    17    83    84    1
    18   162   172   am
    19   169   170   ar
    20    85    84   ar
    21    85    87   ar
    22   158   159    1
    23    93    92    2
    24   166   168   ar
    25    92    91    1
    26    84    86   ar
    27    78    76    1
    28    87    89   ar
    29   149   148    2
    30   170   168   ar
    31   170   171    1
    32    76    73    1
    33    76    77    1
    34    73    74    1
    35    73    72    1
    36    74    75    2
    37   172   173    1
    38   172   178    1
    39   148   147    1
    40    86    88   ar
    41    89    88   ar
    42    91    94    1
    43    91    90    1
    44   173   174    1
    45   173   176    1
    46   174   175    2
    47    94    95    1
    48   178   177    1
    49    96    95   ar
    50    96    98   ar
    51   147   150    1
    52   147   146    1
    53   150   151    1
    54    95    97   ar
    55   176   177    1
    56   146   143   am
    57    98   100   ar
    58    97    99   ar
    59   151   152    1
    60   151   153    1
    61   143   144    2
    62   143   142    1
    63   145   142    1
    64    61    60    2
    65   100    99   ar
    66    60    59    1
    67   142   141    1
    68    62    59    1
    69    62    63    1
    70    42    40   ar
    71    42    43   ar
    72    68    70   ar
    73    68    65   ar
    74    37    36    2
    75   104   103    2
    76    45    43   ar
    77    45    47   ar
    78    40    39   ar
    79    70    71   ar
    80    59    58    1
    81    43    41   ar
    82    36    35    1
    83    63    65   ar
    84    63    64   ar
    85    65    67   ar
    86   141   137   am
    87    47    46   ar
    88   103   102    1
    89    58    50   am
    90    39    41   ar
    91    39    38    1
    92    71    69   ar
    93    41    44   ar
    94    64    66   ar
    95   138   137    2
    96    67    69   ar
    97    67    66   ar
    98   137   136    1
    99   105   102    1
   100   105   106    1
   101    35    38    1
   102    35    34    1
   103    46    44   ar
   104   125   126    1
   105   125   122    1
   106   102   101    1
   107    50    51    2
   108    50    49    1
   109   126   127   ar
   110   126   128   ar
   111   131   128   ar
   112   131   133   ar
   113   106   108   am
   114   106   107    2
   115   127   129   ar
   116   128   130   ar
   117   136   135    1
   118   136   139    1
   119    48    49    1
   120   124   123    2
   121   133   134   ar
   122   129   130   ar
   123   130   132   ar
   124   122   123    1
   125   122   121    1
   126    21    19    1
   127    49    52    1
   128    52    53    1
   129   134   132   ar
   130   139   140    1
   131    53    55   ar
   132    53    54   ar
   133    19    20    1
   134    19    16    1
   135   120   119    1
   136    55    57   ar
   137    54    56   ar
   138    16    15    1
   139    16    17    1
   140    57    56   ar
   141   119   118   ar
   142   119   117   ar
   143    18    17    2
   144    17    22   am
   145   118   116   ar
   146    12    14   ar
   147    12    10   ar
   148    14    13   ar
   149   117   115   ar
   150    10     9   ar
   151    10     8   ar
   152     9     7   ar
   153    22    23    1
   154   116   114   ar
   155    13    11   ar
   156    30    28   ar
   157    30    32   ar
   158   115   114   ar
   159    28    27   ar
   160     7     6   ar
   161     8    11   ar
   162     8     6   ar
   163    23    24    1
   164    23    26    1
   165   114   113    1
   166    33    32    1
   167    24    25    2
   168    32    31   ar
   169     6     5    1
   170    27    26    1
   171    27    29   ar
   172   113   110    1
   173    31    29   ar
   174     5     2    1
   175   112   111    2
   176   111   110    1
   177   109   110    1
   178     2     3    1
   179     2     1    1
   180     3     4    2
