@<TRIPOS>MOLECULE
tmp/4prtA01.pdb
 206 210 0 0 0
SMALL
GASTEIGER

@<TRIPOS>ATOM
      1  N         63.3700   -8.8430   49.0990 N.3    21  TRP21      -0.1241
      2  CA        63.8390   -9.5620   47.9120 C.3    21  TRP21       0.1605
      3  C         64.9460  -10.5310   48.3260 C.2    21  TRP21       0.2264
      4  O         65.9110  -10.1260   48.9850 O.2    21  TRP21      -0.2867
      5  CB        64.3530   -8.5900   46.8480 C.3    21  TRP21       0.0550
      6  CG        64.9680   -9.2520   45.6440 C.ar   21  TRP21       0.0003
      7  CD1       64.5790  -10.4150   45.0480 C.ar   21  TRP21       0.0946
      8  CD2       66.1150   -8.7930   44.9230 C.ar   21  TRP21       0.0152
      9  NE1       65.4250  -10.7130   43.9980 N.ar   21  TRP21      -0.2442
     10  CE2       66.3680   -9.7260   43.8960 C.ar   21  TRP21       0.0810
     11  CE3       66.9560   -7.6810   45.0500 C.ar   21  TRP21       0.0012
     12  CZ2       67.4260   -9.5780   42.9990 C.ar   21  TRP21       0.0191
     13  CZ3       68.0060   -7.5390   44.1590 C.ar   21  TRP21       0.0001
     14  CH2       68.2290   -8.4820   43.1460 C.ar   21  TRP21       0.0015
     15  N         56.7800  -10.0500   42.5220 N.3    48  VAL48      -0.1231
     16  CA        57.8430  -10.7670   41.8300 C.3    48  VAL48       0.1692
     17  C         58.8430  -11.4230   42.8010 C.2    48  VAL48       0.2592
     18  O         59.6340  -12.2680   42.3910 O.2    48  VAL48      -0.2718
     19  CB        58.5600   -9.8340   40.8220 C.3    48  VAL48       0.0266
     20  CG1       59.5390   -8.9280   41.5230 C.3    48  VAL48       0.0020
     21  CG2       59.2380  -10.6170   39.6900 C.3    48  VAL48       0.0020
     22  N         58.8150  -11.0340   44.0770 N.am   49  TYR49      -0.1976
     23  CA        59.7070  -11.6470   45.0640 C.3    49  TYR49       0.1639
     24  C         59.2380  -13.0490   45.4860 C.2    49  TYR49       0.2290
     25  O         59.9870  -13.7710   46.1450 O.2    49  TYR49      -0.2864
     26  CB        59.9150  -10.7530   46.3000 C.3    49  TYR49       0.0560
     27  CG        60.4880   -9.3810   46.0010 C.ar   49  TYR49      -0.0198
     28  CD1       61.0890   -9.0910   44.7790 C.ar   49  TYR49      -0.0009
     29  CD2       60.4280   -8.3720   46.9490 C.ar   49  TYR49      -0.0009
     30  CE1       61.5780   -7.8140   44.4940 C.ar   49  TYR49       0.0417
     31  CE2       60.9170   -7.0990   46.6780 C.ar   49  TYR49       0.0417
     32  CZ        61.4860   -6.8230   45.4490 C.ar   49  TYR49       0.1957
     33  OH        61.9490   -5.5480   45.1810 O.3    49  TYR49      -0.2866
     34  N         54.1990   -5.7480   38.9430 N.3    80  TRP80      -0.1227
     35  CA        55.2190   -6.3210   38.0800 C.3    80  TRP80       0.1737
     36  C         55.0070   -5.9420   36.6020 C.2    80  TRP80       0.2595
     37  O         53.9150   -5.5580   36.1720 O.2    80  TRP80      -0.2718
     38  CB        55.3690   -7.8420   38.2910 C.3    80  TRP80       0.0564
     39  CG        56.5200   -8.3800   37.5100 C.ar   80  TRP80       0.0003
     40  CD1       56.4630   -9.2300   36.4410 C.ar   80  TRP80       0.0946
     41  CD2       57.8950   -8.0000   37.6500 C.ar   80  TRP80       0.0152
     42  NE1       57.7160   -9.4200   35.9230 N.ar   80  TRP80      -0.2442
     43  CE2       58.6120   -8.6730   36.6440 C.ar   80  TRP80       0.0810
     44  CE3       58.5900   -7.1580   38.5320 C.ar   80  TRP80       0.0012
     45  CZ2       59.9960   -8.5520   36.5070 C.ar   80  TRP80       0.0191
     46  CZ3       59.9580   -7.0370   38.3960 C.ar   80  TRP80       0.0001
     47  CH2       60.6490   -7.7390   37.3980 C.ar   80  TRP80       0.0015
     48  N         56.0860   -6.0650   35.8340 N.am   81  CYS81      -0.1970
     49  CA        56.1620   -5.6140   34.4480 C.3    81  CYS81       0.1712
     50  C         55.1450   -6.2620   33.5210 C.2    81  CYS81       0.2296
     51  O         54.7500   -5.6620   32.5250 O.2    81  CYS81      -0.2864
     52  CB        57.5730   -5.8740   33.9130 C.3    81  CYS81       0.0983
     53  SG        58.8670   -5.0560   34.8740 S.3    81  CYS81      -0.0798
     54  N         56.8250   -1.1420   39.3400 N.3   111  HIS111     -0.1226
     55  CA        58.1070   -1.7150   39.7500 C.3   111  HIS111      0.1752
     56  C         59.2600   -1.2750   38.8340 C.2   111  HIS111      0.2596
     57  O         60.3460   -0.9460   39.3160 O.2   111  HIS111     -0.2718
     58  CB        57.9790   -3.2400   39.8160 C.3   111  HIS111      0.0759
     59  CG        58.9700   -3.9080   40.7040 C.ar  111  HIS111      0.0818
     60  ND1       58.6840   -5.0890   41.3530 N.ar  111  HIS111     -0.2268
     61  CD2       60.2480   -3.5830   41.0160 C.ar  111  HIS111      0.1154
     62  CE1       59.7540   -5.4530   42.0360 C.ar  111  HIS111      0.1986
     63  NE2       60.7120   -4.5550   41.8570 N.ar  111  HIS111     -0.2212
     64  N         58.9990   -1.2820   37.5240 N.am  112  TRP112     -0.1976
     65  CA        59.9450   -0.8450   36.4960 C.3   112  TRP112      0.1640
     66  C         59.1490   -0.1280   35.4130 C.2   112  TRP112      0.2290
     67  O         57.9770   -0.4450   35.2010 O.2   112  TRP112     -0.2864
     68  CB        60.6830   -2.0490   35.8570 C.3   112  TRP112      0.0576
     69  CG        61.6590   -2.7050   36.7930 C.ar  112  TRP112      0.0006
     70  CD1       61.3860   -3.6440   37.7480 C.ar  112  TRP112      0.0946
     71  CD2       63.0570   -2.4270   36.8920 C.ar  112  TRP112      0.0152
     72  NE1       62.5320   -3.9720   38.4360 N.ar  112  TRP112     -0.2442
     73  CE2       63.5690   -3.2300   37.9300 C.ar  112  TRP112      0.0810
     74  CE3       63.9340   -1.5920   36.1900 C.ar  112  TRP112      0.0012
     75  CZ2       64.9090   -3.1970   38.3010 C.ar  112  TRP112      0.0191
     76  CZ3       65.2640   -1.5680   36.5530 C.ar  112  TRP112      0.0001
     77  CH2       65.7420   -2.3660   37.6000 C.ar  112  TRP112      0.0015
     78  N         59.4530   -0.5630   32.3140 N.3   114  THR114     -0.1218
     79  CA        59.3800   -1.4680   31.1770 C.3   114  THR114      0.1862
     80  C         58.2070   -2.4470   31.3020 C.2   114  THR114      0.2287
     81  O         58.2200   -3.3330   32.1520 O.2   114  THR114     -0.2866
     82  CB        60.6770   -2.2910   31.0870 C.3   114  THR114      0.1770
     83  OG1       60.9290   -2.9140   32.3490 O.3   114  THR114     -0.2211
     84  CG2       61.8630   -1.4110   30.7580 C.3   114  THR114      0.0375
     85  N         56.0870   -5.6480   30.0180 N.3   116  PHE116     -0.1241
     86  CA        56.3440   -6.9070   29.3210 C.3   116  PHE116      0.1605
     87  C         55.0240   -7.5770   28.9370 C.2   116  PHE116      0.2264
     88  O         53.9810   -7.3230   29.5400 O.2   116  PHE116     -0.2867
     89  CB        57.0540   -7.9340   30.2190 C.3   116  PHE116      0.0534
     90  CG        58.3960   -7.5200   30.7940 C.ar  116  PHE116     -0.0203
     91  CD1       59.1470   -6.4580   30.3150 C.ar  116  PHE116     -0.0042
     92  CD2       58.9080   -8.2670   31.8490 C.ar  116  PHE116     -0.0042
     93  CE1       60.3770   -6.1590   30.8980 C.ar  116  PHE116     -0.0003
     94  CE2       60.1150   -7.9750   32.4260 C.ar  116  PHE116     -0.0003
     95  CZ        60.8570   -6.9260   31.9630 C.ar  116  PHE116     -0.0000
     96  N         57.5610  -14.2120   34.4070 N.3   122  PHE122     -0.1227
     97  CA        57.9260  -12.8630   34.8080 C.3   122  PHE122      0.1736
     98  C         58.7950  -12.1570   33.7630 C.2   122  PHE122      0.2595
     99  O         58.7630  -10.9300   33.6740 O.2   122  PHE122     -0.2718
    100  CB        58.6520  -12.8920   36.1480 C.3   122  PHE122      0.0547
    101  CG        57.7700  -13.2520   37.3260 C.ar  122  PHE122     -0.0202
    102  CD1       56.4100  -12.9530   37.3360 C.ar  122  PHE122     -0.0042
    103  CD2       58.3110  -13.8540   38.4450 C.ar  122  PHE122     -0.0042
    104  CE1       55.6090  -13.2600   38.4360 C.ar  122  PHE122     -0.0003
    105  CE2       57.5080  -14.1620   39.5540 C.ar  122  PHE122     -0.0003
    106  CZ        56.1580  -13.8680   39.5340 C.ar  122  PHE122     -0.0000
    107  N         59.5830  -12.9320   33.0120 N.am  123  PHE123     -0.1976
    108  CA        60.4260  -12.4210   31.9300 C.3   123  PHE123      0.1639
    109  C         60.1280  -13.1910   30.6470 C.2   123  PHE123      0.2290
    110  O         60.8400  -14.1340   30.3050 O.2   123  PHE123     -0.2864
    111  CB        61.9190  -12.5160   32.2740 C.3   123  PHE123      0.0560
    112  CG        62.3630  -11.5030   33.2930 C.ar  123  PHE123     -0.0200
    113  CD1       62.8790  -10.2770   32.8990 C.ar  123  PHE123     -0.0042
    114  CD2       62.2240  -11.7590   34.6500 C.ar  123  PHE123     -0.0042
    115  CE1       63.2560   -9.3350   33.8340 C.ar  123  PHE123     -0.0003
    116  CE2       62.6060  -10.8240   35.5890 C.ar  123  PHE123     -0.0003
    117  CZ        63.1250   -9.6150   35.1810 C.ar  123  PHE123     -0.0000
    118  N         62.6530    2.8080   39.6530 N.3   161  ASN161     -0.1240
    119  CA        63.5770    2.6890   38.5290 C.3   161  ASN161      0.1653
    120  C         63.2050    3.5890   37.3570 C.2   161  ASN161      0.2266
    121  O         63.5160    3.2700   36.2090 O.2   161  ASN161     -0.2867
    122  CB        63.7150    1.2380   38.0590 C.3   161  ASN161      0.1155
    123  CG        64.1550    0.3290   39.1620 C.2   161  ASN161      0.2627
    124  OD1       65.2890    0.4320   39.6440 O.2   161  ASN161     -0.2716
    125  ND2       63.2580   -0.5490   39.6020 N.am  161  ASN161     -0.0877
    126  N         67.0590    1.7090   47.4790 N.3   210  TYR210     -0.1241
    127  CA        67.1540    0.2670   47.5460 C.3   210  TYR210      0.1605
    128  C         68.5950   -0.2090   47.3690 C.2   210  TYR210      0.2264
    129  O         69.4710    0.5450   46.9500 O.2   210  TYR210     -0.2867
    130  CB        66.1680   -0.3880   46.5810 C.3   210  TYR210      0.0534
    131  CG        66.4590   -0.4780   45.0880 C.ar  210  TYR210     -0.0201
    132  CD1       67.5230   -1.2270   44.5900 C.ar  210  TYR210     -0.0009
    133  CD2       65.5620    0.0580   44.1700 C.ar  210  TYR210     -0.0009
    134  CE1       67.6980   -1.4100   43.2250 C.ar  210  TYR210      0.0417
    135  CE2       65.7220   -0.1230   42.8030 C.ar  210  TYR210      0.0417
    136  CZ        66.7900   -0.8720   42.3330 C.ar  210  TYR210      0.1957
    137  OH        66.9660   -1.1210   40.9980 O.3   210  TYR210     -0.2866
    138  N         73.6970  -12.5240   40.6490 N.3   220  TRP220     -0.1241
    139  CA        74.7470  -12.3510   39.6480 C.3   220  TRP220      0.1605
    140  C         76.0170  -11.7190   40.2060 C.2   220  TRP220      0.2264
    141  O         76.8890  -11.2960   39.4440 O.2   220  TRP220     -0.2867
    142  CB        74.2330  -11.5260   38.4640 C.3   220  TRP220      0.0550
    143  CG        73.6040  -10.2300   38.8700 C.ar  220  TRP220      0.0003
    144  CD1       74.2290   -9.0290   39.0440 C.ar  220  TRP220      0.0946
    145  CD2       72.2170  -10.0060   39.1500 C.ar  220  TRP220      0.0152
    146  NE1       73.3170   -8.0720   39.4180 N.ar  220  TRP220     -0.2442
    147  CE2       72.0740   -8.6460   39.4880 C.ar  220  TRP220      0.0810
    148  CE3       71.0840  -10.8240   39.1410 C.ar  220  TRP220      0.0012
    149  CZ2       70.8440   -8.0860   39.8180 C.ar  220  TRP220      0.0191
    150  CZ3       69.8660  -10.2680   39.4670 C.ar  220  TRP220      0.0001
    151  CH2       69.7540   -8.9120   39.8040 C.ar  220  TRP220      0.0015
    152  N         71.7960   -3.3000   39.9010 N.3   299  CYS299     -0.1221
    153  CA        70.4510   -3.7690   39.5690 C.3   299  CYS299      0.1808
    154  C         70.0290   -3.3350   38.1710 C.2   299  CYS299      0.2601
    155  O         69.5650   -2.2120   37.9730 O.2   299  CYS299     -0.2717
    156  CB        69.4350   -3.2800   40.6030 C.3   299  CYS299      0.0970
    157  SG        68.5880   -4.6000   41.4900 S.3   299  CYS299     -0.0800
    158  N         70.2050   -4.2410   37.2110 N.am  300  ALA300     -0.1965
    159  CA        69.8060   -4.0190   35.8300 C.3   300  ALA300      0.1728
    160  C         69.9520   -5.3740   35.1360 C.2   300  ALA300      0.2616
    161  O         70.7150   -6.2240   35.6070 O.2   300  ALA300     -0.2715
    162  CB        70.7010   -2.9940   35.1750 C.3   300  ALA300      0.0334
    163  N         69.2310   -5.5820   34.0380 N.am  301  LEU301     -0.1977
    164  CA        69.2740   -6.8600   33.3360 C.3   301  LEU301      0.1596
    165  C         69.5010   -6.6890   31.8380 C.2   301  LEU301      0.2287
    166  O         68.8060   -5.9240   31.1650 O.2   301  LEU301     -0.2864
    167  CB        67.9950   -7.6590   33.5760 C.3   301  LEU301      0.0297
    168  CG        67.7760   -8.1420   35.0080 C.3   301  LEU301      0.0022
    169  CD1       66.4040   -8.7380   35.1490 C.3   301  LEU301      0.0001
    170  CD2       68.8400   -9.1580   35.4200 C.3   301  LEU301      0.0001
    171  N         66.7890   -6.7060   29.0500 N.3   304  CYS304     -0.1235
    172  CA        65.8830   -5.5690   28.9440 C.3   304  CYS304      0.1677
    173  C         66.4940   -4.3460   28.2650 C.2   304  CYS304      0.2270
    174  O         65.8230   -3.3280   28.1050 O.2   304  CYS304     -0.2867
    175  CB        65.4010   -5.1710   30.3380 C.3   304  CYS304      0.0956
    176  SG        64.4630   -6.4650   31.1700 S.3   304  CYS304     -0.0801
    177  N         63.7570    1.0540   28.6370 N.3   310  TYR310     -0.1228
    178  CA        64.9040    0.7420   29.4880 C.3   310  TYR310      0.1721
    179  C         65.3840    2.0330   30.1430 C.2   310  TYR310      0.2437
    180  O         65.6270    3.0180   29.4510 O.2   310  TYR310     -0.2733
    181  CB        66.0390    0.1400   28.6670 C.3   310  TYR310      0.0547
    182  CG        67.2650   -0.2220   29.4770 C.ar  310  TYR310     -0.0200
    183  CD1       67.2570   -1.3230   30.3180 C.ar  310  TYR310     -0.0009
    184  CD2       68.4310    0.5310   29.3970 C.ar  310  TYR310     -0.0009
    185  CE1       68.3680   -1.6650   31.0590 C.ar  310  TYR310      0.0417
    186  CE2       69.5580    0.1900   30.1340 C.ar  310  TYR310      0.0417
    187  CZ        69.5160   -0.9110   30.9640 C.ar  310  TYR310      0.1957
    188  OH        70.6120   -1.2750   31.7110 O.3   310  TYR310     -0.2866
    189  N         65.5030    2.0510   31.4790 N.am  311  PRO311     -0.2718
    190  CA        65.7100    3.3440   32.1360 C.3   311  PRO311      0.1535
    191  C         67.1450    3.8430   32.1880 C.2   311  PRO311      0.2598
    192  O         67.3300    5.0180   32.5010 O.2   311  PRO311     -0.2715
    193  CB        65.2010    3.0950   33.5640 C.3   311  PRO311      0.0310
    194  CG        65.4040    1.6270   33.7780 C.3   311  PRO311      0.0237
    195  CD        65.1110    0.9980   32.4340 C.3   311  PRO311      0.0939
    196  N         68.1320    3.0010   31.9010 N.am  312  PHE312     -0.1974
    197  CA        69.5060    3.3360   32.2650 C.3   312  PHE312      0.1639
    198  C         70.4270    3.7280   31.1000 C.2   312  PHE312      0.2290
    199  O         71.6370    3.8220   31.2860 O.2   312  PHE312     -0.2864
    200  CB        70.1300    2.2180   33.1160 C.3   312  PHE312      0.0560
    201  CG        69.2910    1.8080   34.3090 C.ar  312  PHE312     -0.0200
    202  CD1       68.6610    2.7570   35.1150 C.ar  312  PHE312     -0.0042
    203  CD2       69.1290    0.4690   34.6180 C.ar  312  PHE312     -0.0042
    204  CE1       67.8910    2.3700   36.2060 C.ar  312  PHE312     -0.0003
    205  CE2       68.3660    0.0740   35.7080 C.ar  312  PHE312     -0.0003
    206  CZ        67.7450    1.0290   36.5010 C.ar  312  PHE312     -0.0000
@<TRIPOS>BOND
     1   174   173    2
     2   173   172    1
     3   177   178    1
     4   181   182    1
     5   181   178    1
     6    87    86    1
     7    87    88    2
     8   172   171    1
     9   172   175    1
    10    86    85    1
    11    86    89    1
    12   184   182   ar
    13   184   186   ar
    14   180   179    2
    15   182   183   ar
    16   178   179    1
    17   186   187   ar
    18   179   189   am
    19    89    90    1
    20   110   109    2
    21    91    90   ar
    22    91    93   ar
    23   183   185   ar
    24   175   176    1
    25   109   108    1
    26    84    82    1
    27    90    92   ar
    28    93    95   ar
    29   187   185   ar
    30   187   188    1
    31    82    79    1
    32    82    83    1
    33   198   199    2
    34   198   197    1
    35   166   165    2
    36    79    80    1
    37    79    78    1
    38    80    81    2
    39   189   190    1
    40   189   195    1
    41   165   164    1
    42    92    94   ar
    43   196   191   am
    44   196   197    1
    45   108   111    1
    46   108   107    1
    47    95    94   ar
    48   190   191    1
    49   190   193    1
    50   191   192    2
    51   197   200    1
    52   111   112    1
    53   195   194    1
    54    51    50    2
    55   113   112   ar
    56   113   115   ar
    57   107    98   am
    58   200   201    1
    59   112   114   ar
    60   164   167    1
    61   164   163    1
    62    50    49    1
    63   193   194    1
    64   167   168    1
    65    99    98    2
    66    98    97    1
    67   115   117   ar
    68    52    49    1
    69    52    53    1
    70   163   160   am
    71   201   203   ar
    72   201   202   ar
    73    96    97    1
    74    49    48    1
    75   203   205   ar
    76   114   116   ar
    77    97   100    1
    78   168   169    1
    79   168   170    1
    80   202   204   ar
    81   160   161    2
    82   160   159    1
    83   162   159    1
    84   117   116   ar
    85    67    66    2
    86    66    65    1
    87   205   206   ar
    88   159   158    1
    89    48    36   am
    90    68    65    1
    91    68    69    1
    92    42    40   ar
    93    42    43   ar
    94   100   101    1
    95    37    36    2
    96    74    76   ar
    97    74    71   ar
    98   204   206   ar
    99   121   120    2
   100    40    39   ar
   101    65    64    1
   102    45    43   ar
   103    45    47   ar
   104    76    77   ar
   105    36    35    1
   106    43    41   ar
   107    69    71   ar
   108    69    70   ar
   109    71    73   ar
   110   158   154   am
   111   101   102   ar
   112   101   103   ar
   113   102   104   ar
   114   120   119    1
   115    47    46   ar
   116    39    41   ar
   117    39    38    1
   118    64    56   am
   119    77    75   ar
   120    41    44   ar
   121    70    72   ar
   122    73    75   ar
   123    73    72   ar
   124   155   154    2
   125   122   119    1
   126   122   123    1
   127    35    38    1
   128    35    34    1
   129   154   153    1
   130    46    44   ar
   131   104   106   ar
   132   103   105   ar
   133   142   143    1
   134   142   139    1
   135   119   118    1
   136    56    57    2
   137    56    55    1
   138   143   144   ar
   139   143   145   ar
   140   144   146   ar
   141   148   145   ar
   142   148   150   ar
   143   145   147   ar
   144   123   125   am
   145   123   124    2
   146    54    55    1
   147   146   147   ar
   148   141   140    2
   149   150   151   ar
   150   147   149   ar
   151   106   105   ar
   152   153   152    1
   153   153   156    1
   154   139   140    1
   155   139   138    1
   156    21    19    1
   157    55    58    1
   158   151   149   ar
   159    58    59    1
   160   156   157    1
   161    59    61   ar
   162    59    60   ar
   163    19    20    1
   164    19    16    1
   165   137   136    1
   166    61    63   ar
   167    60    62   ar
   168    16    15    1
   169    16    17    1
   170    63    62   ar
   171   136   135   ar
   172   136   134   ar
   173    18    17    2
   174    17    22   am
   175   135   133   ar
   176    12    14   ar
   177    12    10   ar
   178    14    13   ar
   179   134   132   ar
   180    10     9   ar
   181    10     8   ar
   182     9     7   ar
   183    22    23    1
   184    13    11   ar
   185   133   131   ar
   186    30    28   ar
   187    30    32   ar
   188   132   131   ar
   189    28    27   ar
   190     8    11   ar
   191     8     6   ar
   192     7     6   ar
   193    23    24    1
   194    23    26    1
   195   131   130    1
   196    33    32    1
   197    32    31   ar
   198    24    25    2
   199     6     5    1
   200    27    26    1
   201    27    29   ar
   202   130   127    1
   203    31    29   ar
   204     5     2    1
   205   129   128    2
   206   128   127    1
   207   126   127    1
   208     2     3    1
   209     2     1    1
   210     3     4    2
