@<TRIPOS>MOLECULE
tmp/4prwA00.pdb
 234 228 0 0 0
SMALL
GASTEIGER

@<TRIPOS>ATOM
      1  N        -25.8960    3.0150   19.2750 N.3    27  GLU27      -0.1245
      2  CA       -25.8130    3.7570   20.5060 C.3    27  GLU27       0.1567
      3  C        -27.1990    3.7820   21.1290 C.2    27  GLU27       0.2260
      4  O        -28.2210    3.7470   20.4920 O.2    27  GLU27      -0.2867
      5  CB       -25.3780    5.2010   20.2220 C.3    27  GLU27       0.0388
      6  CG       -23.9730    5.3300   19.6910 C.3    27  GLU27       0.1160
      7  CD       -22.9170    5.2310   20.8170 C.2    27  GLU27       0.3649
      8  OE1      -23.1200    4.6420   21.9490 O.co2  27  GLU27      -0.2457
      9  OE2      -21.8300    5.7320   20.5520 O.co2  27  GLU27      -0.2457
     10  N        -21.8970    0.0090   19.7070 N.3    50  GLU50      -0.1231
     11  CA       -20.7110    0.6520   19.2240 C.3    50  GLU50       0.1699
     12  C        -19.6890    1.0040   20.3310 C.2    50  GLU50       0.2592
     13  O        -18.4900    0.9920   20.0760 O.2    50  GLU50      -0.2718
     14  CB       -21.1560    1.9440   18.5610 C.3    50  GLU50       0.0402
     15  CG       -20.2930    2.4520   17.5080 C.3    50  GLU50       0.1161
     16  CD       -20.6770    3.8630   17.0660 C.2    50  GLU50       0.3649
     17  OE1      -19.8590    4.4860   16.3860 O.co2  50  GLU50      -0.2457
     18  OE2      -21.7620    4.3310   17.3940 O.co2  50  GLU50      -0.2457
     19  N        -20.1870    1.4670   21.4670 N.am   51  ASN51      -0.1974
     20  CA       -19.3310    1.9320   22.5500 C.3    51  ASN51       0.1688
     21  C        -19.6820    1.4860   23.9460 C.2    51  ASN51       0.2292
     22  O        -18.7570    1.3660   24.7440 O.2    51  ASN51      -0.2864
     23  CB       -19.3740    3.4920   22.5980 C.3    51  ASN51       0.1181
     24  CG       -18.5920    4.0440   21.4900 C.2    51  ASN51       0.2629
     25  OD1      -17.4200    3.7000   21.3710 O.2    51  ASN51      -0.2716
     26  ND2      -19.2140    4.8150   20.6110 N.am   51  ASN51      -0.0877
     27  N        -17.7800   -1.3630   25.9290 N.3    54  LYS54      -0.1245
     28  CA       -16.3610   -1.3510   26.1120 C.3    54  LYS54       0.1561
     29  C        -15.9420   -1.3060   27.5840 C.2    54  LYS54       0.2260
     30  O        -16.7110   -0.8300   28.4040 O.2    54  LYS54      -0.2867
     31  CB       -15.7040   -0.1960   25.3490 C.3    54  LYS54       0.0271
     32  CG       -15.8200   -0.4760   23.7930 C.3    54  LYS54       0.0035
     33  CD       -15.6080    0.7870   23.0050 C.3    54  LYS54       0.0206
     34  CE       -15.6010    0.3950   21.4950 C.3    54  LYS54       0.1093
     35  NZ       -15.5630    1.6110   20.6200 N.3    54  LYS54      -0.1314
     36  N        -19.2150   -6.3450   22.3630 N.3    87  HIS87      -0.1241
     37  CA       -18.0170   -5.6220   21.9830 C.3    87  HIS87       0.1621
     38  C        -17.6300   -4.6840   23.1010 C.2    87  HIS87       0.2264
     39  O        -18.4000   -3.7200   23.3810 O.2    87  HIS87      -0.2867
     40  CB       -18.3390   -4.7860   20.7330 C.3    87  HIS87       0.0745
     41  CG       -17.2270   -3.9900   20.2050 C.ar   87  HIS87       0.0817
     42  ND1      -16.1700   -4.5680   19.5450 N.ar   87  HIS87      -0.2268
     43  CD2      -16.9920   -2.6550   20.1930 C.ar   87  HIS87       0.1154
     44  CE1      -15.3270   -3.6280   19.1760 C.ar   87  HIS87       0.1986
     45  NE2      -15.7860   -2.4670   19.5790 N.ar   87  HIS87      -0.2212
     46  N         -9.5050   -4.6010   25.3970 N.3    91  TRP91      -0.1241
     47  CA        -8.9710   -3.7310   24.3570 C.3    91  TRP91       0.1605
     48  C         -7.9090   -2.7780   24.9230 C.2    91  TRP91       0.2264
     49  O         -7.8650   -2.5720   26.1510 O.2    91  TRP91      -0.2867
     50  CB       -10.1240   -2.9370   23.7170 C.3    91  TRP91       0.0550
     51  CG        -9.7910   -2.2970   22.3870 C.ar   91  TRP91       0.0003
     52  CD1       -8.7770   -2.6480   21.4850 C.ar   91  TRP91       0.0946
     53  CD2      -10.4940   -1.1990   21.7820 C.ar   91  TRP91       0.0152
     54  NE1       -8.8010   -1.7830   20.4090 N.ar   91  TRP91      -0.2442
     55  CE2       -9.8400   -0.9050   20.5460 C.ar   91  TRP91       0.0810
     56  CE3      -11.5710   -0.3990   22.1860 C.ar   91  TRP91       0.0012
     57  CZ2      -10.2420    0.1670   19.7220 C.ar   91  TRP91       0.0191
     58  CZ3      -11.9950    0.6180   21.3450 C.ar   91  TRP91       0.0001
     59  CH2      -11.3110    0.9130   20.1310 C.ar   91  TRP91       0.0015
     60  N        -10.2030    2.7540   24.9680 N.3    94  GLN94      -0.1245
     61  CA       -11.4540    2.8060   25.7220 C.3    94  GLN94       0.1566
     62  C        -11.4480    1.7710   26.8870 C.2    94  GLN94       0.2260
     63  O        -12.3640    0.9970   27.0810 O.2    94  GLN94      -0.2867
     64  CB       -12.6970    2.7000   24.8260 C.3    94  GLN94       0.0367
     65  CG       -13.0340    4.0030   24.1050 C.3    94  GLN94       0.0905
     66  CD       -14.1240    3.8730   23.0410 C.2    94  GLN94       0.2608
     67  OE1      -13.8670    3.4650   21.9310 O.2    94  GLN94      -0.2717
     68  NE2      -15.3470    4.2120   23.4090 N.am   94  GLN94      -0.0878
     69  N         -9.7330   -7.7360   21.3160 N.3   150  ASN150     -0.1225
     70  CA        -9.8470   -6.8320   20.1870 C.3   150  ASN150      0.1785
     71  C         -8.4370   -6.2680   19.9250 C.2   150  ASN150      0.2597
     72  O         -7.7710   -5.7740   20.8420 O.2   150  ASN150     -0.2718
     73  CB       -10.8030   -5.6970   20.5820 C.3   150  ASN150      0.1169
     74  CG       -11.3310   -4.9000   19.3780 C.2   150  ASN150      0.2627
     75  OD1      -11.8250   -5.4690   18.4530 O.2   150  ASN150     -0.2716
     76  ND2      -11.3600   -3.5910   19.4770 N.am  150  ASN150     -0.0877
     77  N         -7.9890   -6.4070   18.6930 N.am  151  GLN151     -0.1979
     78  CA        -6.7910   -5.8000   18.1910 C.3   151  GLN151      0.1601
     79  C         -5.5190   -6.1810   18.9440 C.2   151  GLN151      0.2287
     80  O         -4.7520   -5.3410   19.2450 O.2   151  GLN151     -0.2864
     81  CB        -6.9780   -4.2970   18.1600 C.3   151  GLN151      0.0394
     82  CG        -8.0310   -3.9050   17.1590 C.3   151  GLN151      0.0908
     83  CD        -8.3750   -2.4380   17.1210 C.2   151  GLN151      0.2608
     84  OE1       -7.7310   -1.6320   17.7060 O.2   151  GLN151     -0.2717
     85  NE2       -9.4200   -2.1190   16.3840 N.am  151  GLN151     -0.0878
     86  N          0.1340   -4.2850   13.5310 N.3   155  ASP155     -0.1239
     87  CA         0.2720   -4.1400   12.0740 C.3   155  ASP155      0.1674
     88  C          1.6670   -4.6170   11.5640 C.2   155  ASP155      0.2266
     89  O          1.7730   -5.1440   10.4380 O.2   155  ASP155     -0.2867
     90  CB        -0.1000   -2.7360   11.6640 C.3   155  ASP155      0.1410
     91  CG        -1.6270   -2.4800   11.7910 C.2   155  ASP155      0.3668
     92  OD1       -2.4140   -3.3830   11.4400 O.co2 155  ASP155     -0.2456
     93  OD2       -2.0100   -1.3770   12.2220 O.co2 155  ASP155     -0.2456
     94  N         -8.7200   -5.6970   12.8180 N.3   195  TYR195     -0.1227
     95  CA        -8.8150   -5.0130   11.5100 C.3   195  TYR195      0.1736
     96  C         -7.6000   -5.4010   10.6680 C.2   195  TYR195      0.2595
     97  O         -6.5850   -5.8460   11.2090 O.2   195  TYR195     -0.2718
     98  CB        -8.9520   -3.4890   11.6960 C.3   195  TYR195      0.0548
     99  CG        -7.6890   -2.8230   12.2340 C.ar  195  TYR195     -0.0200
    100  CD1       -6.6980   -2.3570   11.3710 C.ar  195  TYR195     -0.0009
    101  CD2       -7.4170   -2.7770   13.6280 C.ar  195  TYR195     -0.0009
    102  CE1       -5.5070   -1.8160   11.8530 C.ar  195  TYR195      0.0417
    103  CE2       -6.2480   -2.2230   14.1200 C.ar  195  TYR195      0.0417
    104  CZ        -5.2720   -1.7810   13.2380 C.ar  195  TYR195      0.1957
    105  OH        -4.0990   -1.2450   13.7430 O.3   195  TYR195     -0.2866
    106  N         -7.7340   -5.2110    9.3590 N.am  196  ASN196     -0.1974
    107  CA        -6.6390   -5.4550    8.3560 C.3   196  ASN196      0.1688
    108  C         -6.2210   -6.8860    8.5610 C.2   196  ASN196      0.2292
    109  O         -5.0230   -7.2620    8.5010 O.2   196  ASN196     -0.2864
    110  CB        -5.4350   -4.4810    8.5370 C.3   196  ASN196      0.1181
    111  CG        -5.6940   -3.0830    8.0050 C.2   196  ASN196      0.2629
    112  OD1       -4.7480   -2.2540    7.9180 O.2   196  ASN196     -0.2716
    113  ND2       -6.8970   -2.7770    7.6760 N.am  196  ASN196     -0.0877
    114  N         -4.3290   -8.5020    5.6270 N.3   199  VAL199     -0.1245
    115  CA        -3.0770   -7.8560    5.2560 C.3   199  VAL199      0.1561
    116  C         -1.8700   -8.5190    5.9140 C.2   199  VAL199      0.2260
    117  O         -1.8890   -8.7410    7.1370 O.2   199  VAL199     -0.2867
    118  CB        -3.1340   -6.3870    5.6970 C.3   199  VAL199      0.0252
    119  CG1       -1.8560   -5.6220    5.2660 C.3   199  VAL199      0.0019
    120  CG2       -4.3810   -5.7410    5.1170 C.3   199  VAL199      0.0019
    121  N        -12.9710   -6.9590   11.3340 N.3   226  GLN226     -0.1245
    122  CA       -13.6440   -5.6750   11.4950 C.3   226  GLN226      0.1566
    123  C        -14.1000   -5.0980   10.1430 C.2   226  GLN226      0.2260
    124  O        -15.1680   -4.5120   10.0370 O.2   226  GLN226     -0.2867
    125  CB       -12.8220   -4.6620   12.2700 C.3   226  GLN226      0.0367
    126  CG       -12.6650   -5.1230   13.7130 C.3   226  GLN226      0.0905
    127  CD       -11.7260   -4.3090   14.5590 C.2   226  GLN226      0.2608
    128  OE1      -11.1610   -3.3320   14.1420 O.2   226  GLN226     -0.2717
    129  NE2      -11.7240   -4.6090   15.8050 N.am  226  GLN226     -0.0878
    130  N        -13.1260   -2.5540    8.1660 N.3   228  HIS228     -0.1241
    131  CA       -13.1460   -1.1300    7.8610 C.3   228  HIS228      0.1621
    132  C        -12.3530   -0.9330    6.5820 C.2   228  HIS228      0.2264
    133  O        -11.1350   -0.7440    6.5930 O.2   228  HIS228     -0.2867
    134  CB       -12.5230   -0.3510    8.9910 C.3   228  HIS228      0.0745
    135  CG       -13.3430   -0.4340   10.2400 C.ar  228  HIS228      0.0817
    136  ND1      -14.6120    0.1030   10.3150 N.ar  228  HIS228     -0.2268
    137  CD2      -13.1040   -1.0290   11.4240 C.ar  228  HIS228      0.1154
    138  CE1      -15.1280   -0.1810   11.5020 C.ar  228  HIS228      0.1986
    139  NE2      -14.2110   -0.8430   12.1970 N.ar  228  HIS228     -0.2212
    140  N        -12.1370    0.0120    2.0920 N.3   230  GLN230     -0.1245
    141  CA       -12.3250    1.0610    1.1010 C.3   230  GLN230      0.1566
    142  C        -12.9540    0.4940   -0.1200 C.2   230  GLN230      0.2260
    143  O        -13.2080   -0.6940   -0.2370 O.2   230  GLN230     -0.2867
    144  CB       -10.9470    1.7130    0.7740 C.3   230  GLN230      0.0367
    145  CG       -10.2830    2.3670    1.9890 C.3   230  GLN230      0.0905
    146  CD        -8.8020    2.4730    1.8900 C.2   230  GLN230      0.2608
    147  OE1       -8.2480    2.6140    0.7940 O.2   230  GLN230     -0.2717
    148  NE2       -8.1500    2.4250    3.0370 N.am  230  GLN230     -0.0878
    149  N         -9.7400   -1.4260   -1.8590 N.3   233  TRP233     -0.1241
    150  CA        -8.7760   -2.1090   -1.0430 C.3   233  TRP233      0.1605
    151  C         -9.4830   -2.5190    0.2480 C.2   233  TRP233      0.2264
    152  O        -10.2430   -1.6970    0.7870 O.2   233  TRP233     -0.2867
    153  CB        -7.6600   -1.1550   -0.6530 C.3   233  TRP233      0.0550
    154  CG        -6.7210   -1.7630    0.3390 C.ar  233  TRP233      0.0003
    155  CD1       -5.5460   -2.4090    0.0850 C.ar  233  TRP233      0.0946
    156  CD2       -6.8520   -1.7010    1.7890 C.ar  233  TRP233      0.0152
    157  NE1       -4.9430   -2.8030    1.3030 N.ar  233  TRP233     -0.2442
    158  CE2       -5.7230   -2.3610    2.3470 C.ar  233  TRP233      0.0810
    159  CE3       -7.8220   -1.1440    2.6520 C.ar  233  TRP233      0.0012
    160  CZ2       -5.5270   -2.4650    3.7240 C.ar  233  TRP233      0.0191
    161  CZ3       -7.6650   -1.3070    4.0530 C.ar  233  TRP233      0.0001
    162  CH2       -6.5320   -1.9940    4.5510 C.ar  233  TRP233      0.0015
    163  N        -17.5650   -5.2330   11.7640 N.3   257  GLU257     -0.1245
    164  CA       -17.6790   -3.7870   11.8000 C.3   257  GLU257      0.1567
    165  C        -17.6380   -3.1850   10.3800 C.2   257  GLU257      0.2260
    166  O        -16.9620   -2.1350   10.1400 O.2   257  GLU257     -0.2867
    167  CB       -16.6170   -3.1410   12.6290 C.3   257  GLU257      0.0388
    168  CG       -16.4000   -3.8390   13.9900 C.3   257  GLU257      0.1160
    169  CD       -15.3500   -3.2130   14.8790 C.2   257  GLU257      0.3649
    170  OE1      -14.7710   -2.1310   14.5180 O.co2 257  GLU257     -0.2457
    171  OE2      -15.0700   -3.8490   15.9450 O.co2 257  GLU257     -0.2457
    172  N         -6.5800    6.3770    2.4300 N.3   265  TRP265     -0.1241
    173  CA        -5.9220    6.3730    3.7340 C.3   265  TRP265      0.1605
    174  C         -4.5360    7.0660    3.5980 C.2   265  TRP265      0.2264
    175  O         -3.7580    6.6740    2.7650 O.2   265  TRP265     -0.2867
    176  CB        -5.7550    4.9420    4.2900 C.3   265  TRP265      0.0550
    177  CG        -5.1710    5.0650    5.6970 C.ar  265  TRP265      0.0003
    178  CD1       -3.8600    4.9380    6.0660 C.ar  265  TRP265      0.0946
    179  CD2       -5.9050    5.4150    6.8770 C.ar  265  TRP265      0.0152
    180  NE1       -3.7560    5.1720    7.4570 N.ar  265  TRP265     -0.2442
    181  CE2       -5.0000    5.4500    7.9560 C.ar  265  TRP265      0.0810
    182  CE3       -7.2490    5.7020    7.1140 C.ar  265  TRP265      0.0012
    183  CZ2       -5.3920    5.7500    9.2350 C.ar  265  TRP265      0.0191
    184  CZ3       -7.6300    6.0070    8.4050 C.ar  265  TRP265      0.0001
    185  CH2       -6.7140    6.0340    9.4350 C.ar  265  TRP265      0.0015
    186  N        -21.0800   -1.2740   10.8070 N.3   308  TRP308     -0.1241
    187  CA       -20.7100   -0.4290   11.9460 C.3   308  TRP308      0.1605
    188  C        -21.5420    0.8620   11.9830 C.2   308  TRP308      0.2264
    189  O        -21.0070    1.9640   12.0220 O.2   308  TRP308     -0.2867
    190  CB       -19.1810   -0.1570   11.9710 C.3   308  TRP308      0.0550
    191  CG       -18.6630    0.1520   13.3900 C.ar  308  TRP308      0.0003
    192  CD1      -18.1180    1.2980   13.8500 C.ar  308  TRP308      0.0946
    193  CD2      -18.6930   -0.7590   14.5380 C.ar  308  TRP308      0.0152
    194  NE1      -17.7500    1.1630   15.1950 N.ar  308  TRP308     -0.2442
    195  CE2      -18.1370   -0.0760   15.6300 C.ar  308  TRP308      0.0810
    196  CE3      -19.1160   -2.0710   14.7200 C.ar  308  TRP308      0.0012
    197  CZ2      -18.0220   -0.6720   16.8890 C.ar  308  TRP308      0.0191
    198  CZ3      -19.0010   -2.6480   15.9740 C.ar  308  TRP308      0.0001
    199  CH2      -18.5220   -1.9350   17.0360 C.ar  308  TRP308      0.0015
    200  N        -24.9680    8.7860   10.6630 N.3   314  HIS314     -0.1241
    201  CA       -24.1520    8.5250   11.8420 C.3   314  HIS314      0.1621
    202  C        -23.1310    7.3990   11.5730 C.2   314  HIS314      0.2264
    203  O        -23.5340    6.2060   11.3840 O.2   314  HIS314     -0.2867
    204  CB       -25.0080    8.1340   13.0450 C.3   314  HIS314      0.0745
    205  CG       -24.1920    7.7780   14.2460 C.ar  314  HIS314      0.0817
    206  ND1      -23.9550    8.6910   15.2480 N.ar  314  HIS314     -0.2268
    207  CD2      -23.4460    6.6860   14.5620 C.ar  314  HIS314      0.1154
    208  CE1      -23.1360    8.1670   16.1490 C.ar  314  HIS314      0.1986
    209  NE2      -22.7910    6.9650   15.7460 N.ar  314  HIS314     -0.2212
    210  N        -18.7500    6.5680   12.7040 N.3   316  TRP316     -0.1241
    211  CA       -17.4490    6.9050   13.3260 C.3   316  TRP316      0.1605
    212  C        -16.4250    7.3480   12.2570 C.2   316  TRP316      0.2264
    213  O        -15.4730    8.0140   12.5410 O.2   316  TRP316     -0.2867
    214  CB       -16.8930    5.6790   14.1150 C.3   316  TRP316      0.0550
    215  CG       -16.1510    4.7540   13.2780 C.ar  316  TRP316      0.0003
    216  CD1      -16.6640    3.9660   12.2870 C.ar  316  TRP316      0.0946
    217  CD2      -14.7410    4.5420   13.2680 C.ar  316  TRP316      0.0152
    218  NE1      -15.6790    3.2170   11.7080 N.ar  316  TRP316     -0.2442
    219  CE2      -14.4880    3.5250   12.2990 C.ar  316  TRP316      0.0810
    220  CE3      -13.6900    5.0040   14.0640 C.ar  316  TRP316      0.0012
    221  CZ2      -13.2260    3.0470   12.0310 C.ar  316  TRP316      0.0191
    222  CZ3      -12.4240    4.5260   13.7910 C.ar  316  TRP316      0.0001
    223  CH2      -12.2050    3.5630   12.7950 C.ar  316  TRP316      0.0015
    224  N        -12.6720   10.5090   11.1710 N.3   320  ARG320     -0.1245
    225  CA       -11.4940   10.3730   10.3360 C.3   320  ARG320      0.1563
    226  C        -11.6140   11.1780    9.0170 C.2   320  ARG320      0.2260
    227  O        -10.6640   11.2060    8.2740 O.2   320  ARG320     -0.2867
    228  CB       -11.3580    8.8950    9.9230 C.3   320  ARG320      0.0307
    229  CG       -10.6670    8.1080   10.9590 C.3   320  ARG320      0.0489
    230  CD       -11.1480    6.7060   11.0030 C.3   320  ARG320      0.2205
    231  NE       -11.0110    5.7890    9.8540 N.pl3 320  ARG320     -0.0865
    232  CZ       -10.3690    4.6140    9.8680 C.cat 320  ARG320      0.5346
    233  NH1       -9.5600    4.2530   10.8920 N.pl3 320  ARG320      0.1354
    234  NH2      -10.5020    3.8390    8.8140 N.pl3 320  ARG320      0.1354
@<TRIPOS>BOND
     1   149   150    1
     2   150   153    1
     3   150   151    1
     4   153   154    1
     5   143   142    2
     6   142   141    1
     7   155   154   ar
     8   155   157   ar
     9   151   152    2
    10   154   156   ar
    11   144   141    1
    12   144   145    1
    13   147   146    2
    14   141   140    1
    15   157   158   ar
    16   156   158   ar
    17   156   159   ar
    18   146   145    1
    19   146   148   am
    20   158   160   ar
    21   172   173    1
    22   159   161   ar
    23   175   174    2
    24   174   173    1
    25   160   162   ar
    26   173   176    1
    27   161   162   ar
    28   176   177    1
    29   120   118    1
    30   115   114    1
    31   115   118    1
    32   115   116    1
    33   119   118    1
    34   177   178   ar
    35   177   179   ar
    36   116   117    2
    37   178   180   ar
    38   132   133    2
    39   132   131    1
    40   179   182   ar
    41   179   181   ar
    42   182   184   ar
    43   180   181   ar
    44   113   111   am
    45   131   130    1
    46   131   134    1
    47   112   111    2
    48   181   183   ar
    49   111   110    1
    50   227   226    2
    51   107   110    1
    52   107   108    1
    53   107   106    1
    54   184   185   ar
    55   109   108    2
    56   234   232    1
    57   134   135    1
    58   226   225    1
    59   183   185   ar
    60   106    96   am
    61   231   232    2
    62   231   230    1
    63   232   233    1
    64   228   225    1
    65   228   229    1
    66   124   123    2
    67   166   165    2
    68   123   122    1
    69   135   136   ar
    70   135   137   ar
    71   136   138   ar
    72   225   224    1
    73   165   164    1
    74    89    88    2
    75   200   201    1
    76    96    97    2
    77    96    95    1
    78   186   187    1
    79   229   230    1
    80   121   122    1
    81   100   102   ar
    82   100    99   ar
    83   203   202    2
    84   137   139   ar
    85    92    91   ar
    86   122   125    1
    87   138   139   ar
    88    95    98    1
    89    95    94    1
    90    88    87    1
    91   202   201    1
    92    90    91    1
    93    90    87    1
    94    98    99    1
    95   218   216   ar
    96   218   219   ar
    97   163   164    1
    98    91    93   ar
    99   164   167    1
   100   201   204    1
   101   102   104   ar
   102   187   190    1
   103   187   188    1
   104   190   191    1
   105   188   189    2
   106   221   219   ar
   107   221   223   ar
   108    87    86    1
   109    99   101   ar
   110   212   213    2
   111   212   211    1
   112   125   126    1
   113   216   215   ar
   114   219   217   ar
   115   167   168    1
   116   210   211    1
   117   223   222   ar
   118   204   205    1
   119   104   105    1
   120   104   103   ar
   121   217   215   ar
   122   217   220   ar
   123   215   214    1
   124   211   214    1
   125   191   192   ar
   126   191   193   ar
   127   101   103   ar
   128   126   127    1
   129   222   220   ar
   130   192   194   ar
   131   168   169    1
   132   128   127    2
   133   205   207   ar
   134   205   206   ar
   135   170   169   ar
   136   193   196   ar
   137   193   195   ar
   138   127   129   am
   139   207   209   ar
   140   196   198   ar
   141   169   171   ar
   142   194   195   ar
   143   206   208   ar
   144   195   197   ar
   145   209   208   ar
   146   198   199   ar
   147    85    83   am
   148    17    16   ar
   149   197   199   ar
   150    16    18   ar
   151    16    15    1
   152    83    82    1
   153    83    84    2
   154    82    81    1
   155    15    14    1
   156    81    78    1
   157    78    77    1
   158    78    79    1
   159    75    74    2
   160    14    11    1
   161    77    71   am
   162    79    80    2
   163    44    42   ar
   164    44    45   ar
   165    11    10    1
   166    11    12    1
   167     1     2    1
   168    74    76   am
   169    74    73    1
   170    42    41   ar
   171    45    43   ar
   172     6     5    1
   173     6     7    1
   174    57    59   ar
   175    57    55   ar
   176    71    70    1
   177    71    72    2
   178    13    12    2
   179    59    58   ar
   180    70    73    1
   181    70    69    1
   182    43    41   ar
   183    41    40    1
   184     5     2    1
   185    12    19   am
   186    54    55   ar
   187    54    52   ar
   188     4     3    2
   189     2     3    1
   190    55    53   ar
   191     9     7   ar
   192    26    24   am
   193    35    34    1
   194    40    37    1
   195     7     8   ar
   196    58    56   ar
   197    25    24    2
   198    19    20    1
   199    52    51   ar
   200    24    23    1
   201    34    33    1
   202    53    56   ar
   203    53    51   ar
   204    67    66    2
   205    37    36    1
   206    37    38    1
   207    51    50    1
   208    20    23    1
   209    20    21    1
   210    33    32    1
   211    66    68   am
   212    66    65    1
   213    38    39    2
   214    50    47    1
   215    32    31    1
   216    21    22    2
   217    65    64    1
   218    47    48    1
   219    47    46    1
   220    64    61    1
   221    48    49    2
   222    60    61    1
   223    31    28    1
   224    61    62    1
   225    27    28    1
   226    28    29    1
   227    62    63    2
   228    29    30    2
