@<TRIPOS>MOLECULE
tmp/4pryA00.pdb
 187 188 0 0 0
SMALL
GASTEIGER

@<TRIPOS>ATOM
      1  N         32.2760    3.1970   71.4650 N.3    34  THR34      -0.1203
      2  CA        32.5290    3.9100   72.6970 C.3    34  THR34       0.1994
      3  C         31.7010    5.1770   72.7750 C.2    34  THR34       0.2619
      4  O         31.3040    5.7480   71.7340 O.2    34  THR34      -0.2717
      5  CB        34.0040    4.2850   72.8090 C.3    34  THR34       0.1784
      6  OG1       34.3540    5.0200   71.6310 O.3    34  THR34      -0.2211
      7  CG2       34.8530    3.0280   72.8980 C.3    34  THR34       0.0376
      8  N         31.4710    5.6200   74.0050 N.am   35  SER35      -0.1937
      9  CA        30.7840    6.8890   74.2540 C.3    35  SER35       0.2055
     10  C         31.5980    8.0690   73.7340 C.2    35  SER35       0.2643
     11  O         32.8050    8.1530   73.9670 O.2    35  SER35      -0.2714
     12  CB        30.5140    7.0600   75.7530 C.3    35  SER35       0.2130
     13  OG        29.8450    8.2850   76.0160 O.3    35  SER35      -0.2179
     14  N         30.9320    9.0030   73.0670 N.am   36  ARG36      -0.1963
     15  CA        31.6290   10.1290   72.4480 C.3    36  ARG36       0.1729
     16  C         31.6950   11.3360   73.3760 C.2    36  ARG36       0.2616
     17  O         31.0560   12.3520   73.1410 O.2    36  ARG36      -0.2715
     18  CB        30.9350   10.4830   71.1140 C.3    36  ARG36       0.0348
     19  CG        30.8980    9.2930   70.1140 C.3    36  ARG36       0.0492
     20  CD        30.2580    9.6180   68.7500 C.3    36  ARG36       0.2205
     21  NE        30.9450   10.7660   68.1450 N.pl3  36  ARG36      -0.0865
     22  CZ        30.4630   12.0060   68.1730 C.cat  36  ARG36       0.5346
     23  NH1       29.2870   12.2570   68.7520 N.pl3  36  ARG36       0.1354
     24  NH2       31.1930   13.0120   67.6660 N.pl3  36  ARG36       0.1354
     25  N         32.5370   11.2520   74.4080 N.am   37  SER37      -0.1950
     26  CA        32.7580   12.3640   75.3240 C.3    37  SER37       0.1924
     27  C         33.0740   13.6730   74.6080 C.2    37  SER37       0.2314
     28  O         33.9060   13.7090   73.7060 O.2    37  SER37      -0.2863
     29  CB        33.9080   12.0290   76.2840 C.3    37  SER37       0.2116
     30  OG        33.5550   10.8720   77.0030 O.3    37  SER37      -0.2180
     31  N         28.6120   11.7970   65.2420 N.3    92  SER92      -0.1202
     32  CA        28.5700   10.3690   65.5770 C.3    92  SER92       0.2020
     33  C         29.8760    9.6900   65.1820 C.2    92  SER92       0.2619
     34  O         30.8070   10.3250   64.6960 O.2    92  SER92      -0.2717
     35  CB        27.3850    9.7120   64.8630 C.3    92  SER92       0.2103
     36  OG        27.1820    8.4270   65.4280 O.3    92  SER92      -0.2182
     37  N         29.9510    8.3910   65.4000 N.am   93  HIS93      -0.1961
     38  CA        30.9830    7.6000   64.7810 C.3    93  HIS93       0.1787
     39  C         30.6730    7.4800   63.3210 C.2    93  HIS93       0.2620
     40  O         29.5290    7.6290   62.9170 O.2    93  HIS93      -0.2715
     41  CB        31.0570    6.1980   65.4040 C.3    93  HIS93       0.0785
     42  CG        31.5400    6.1960   66.8180 C.ar   93  HIS93       0.0821
     43  ND1       32.7960    6.6440   67.1720 N.ar   93  HIS93      -0.2267
     44  CD2       30.9370    5.8190   67.9680 C.ar   93  HIS93       0.1154
     45  CE1       32.9450    6.5370   68.4810 C.ar   93  HIS93       0.1986
     46  NE2       31.8430    6.0140   68.9850 N.ar   93  HIS93      -0.2212
     47  N         31.6780    7.1450   62.5270 N.am   94  GLY94      -0.1954
     48  CA        31.4680    7.0270   61.0980 C.3    94  GLY94       0.1869
     49  C         32.5830    6.2660   60.4170 C.2    94  GLY94       0.2309
     50  O         33.6380    5.9670   61.0280 O.2    94  GLY94      -0.2863
     51  N         30.5110   15.5900   61.4800 N.3   133  GLN133     -0.1231
     52  CA        31.6240   15.2990   62.4000 C.3   133  GLN133      0.1698
     53  C         31.6070   13.7910   62.6600 C.2   133  GLN133      0.2592
     54  O         30.7990   13.3010   63.4210 O.2   133  GLN133     -0.2718
     55  CB        31.4650   16.0980   63.7030 C.3   133  GLN133      0.0381
     56  CG        32.3830   15.6700   64.8890 C.3   133  GLN133      0.0905
     57  CD        33.8470   15.6730   64.4930 C.2   133  GLN133      0.2608
     58  OE1       34.3140   16.5900   63.8140 O.2   133  GLN133     -0.2717
     59  NE2       34.5770   14.6250   64.8990 N.am  133  GLN133     -0.0878
     60  N         32.5010   13.0790   61.9990 N.am  134  ALA134     -0.1966
     61  CA        32.5920   11.6190   62.0940 C.3   134  ALA134      0.1728
     62  C         33.8470   11.2010   61.3720 C.2   134  ALA134      0.2616
     63  O         34.2900   11.8910   60.4410 O.2   134  ALA134     -0.2715
     64  CB        31.3850   10.9380   61.4370 C.3   134  ALA134      0.0334
     65  N         34.3890   10.0450   61.7470 N.am  135  CYS135     -0.1968
     66  CA        35.4910    9.5150   60.9800 C.3   135  CYS135      0.1712
     67  C         35.1170    9.1170   59.5560 C.2   135  CYS135      0.2296
     68  O         33.9700    8.7870   59.2690 O.2   135  CYS135     -0.2864
     69  CB        36.0610    8.3230   61.7110 C.3   135  CYS135      0.0983
     70  SG        36.8200    8.8160   63.2720 S.3   135  CYS135     -0.0798
     71  N         40.8090    9.4940   60.1200 N.3   174  TYR174     -0.1227
     72  CA        40.1650    9.7150   61.4110 C.3   174  TYR174      0.1736
     73  C         39.8060   11.1800   61.5760 C.2   174  TYR174      0.2596
     74  O         40.4130   12.0570   60.9490 O.2   174  TYR174     -0.2718
     75  CB        41.1070    9.3440   62.5620 C.3   174  TYR174      0.0548
     76  CG        41.2640    7.8860   62.8960 C.ar  174  TYR174     -0.0200
     77  CD1       40.2420    7.1650   63.5070 C.ar  174  TYR174     -0.0009
     78  CD2       42.4680    7.2600   62.6820 C.ar  174  TYR174     -0.0009
     79  CE1       40.4490    5.8230   63.8760 C.ar  174  TYR174      0.0417
     80  CE2       42.6790    5.9200   63.0540 C.ar  174  TYR174      0.0417
     81  CZ        41.6820    5.2290   63.6310 C.ar  174  TYR174      0.1957
     82  OH        41.9530    3.9170   63.9770 O.3   174  TYR174     -0.2866
     83  N         38.8540   11.4290   62.4600 N.am  175  SER175     -0.1938
     84  CA        38.4760   12.7660   62.8770 C.3   175  SER175      0.2055
     85  C         38.6870   12.8370   64.3880 C.2   175  SER175      0.2643
     86  O         38.3750   11.8900   65.0860 O.2   175  SER175     -0.2714
     87  CB        37.0160   13.0340   62.5140 C.3   175  SER175      0.2130
     88  OG        36.6730   14.3820   62.8080 O.3   175  SER175     -0.2179
     89  N         39.1860   13.9570   64.8940 N.am  176  TRP176     -0.1959
     90  CA        39.5590   14.0500   66.3080 C.3   176  TRP176      0.1771
     91  C         38.5810   14.8470   67.1790 C.2   176  TRP176      0.2620
     92  O         38.0040   15.8450   66.7470 O.2   176  TRP176     -0.2715
     93  CB        40.9500   14.6780   66.4120 C.3   176  TRP176      0.0590
     94  CG        42.0660   13.7780   65.9020 C.ar  176  TRP176      0.0006
     95  CD1       42.5960   13.7220   64.6340 C.ar  176  TRP176      0.0946
     96  CD2       42.7770   12.8090   66.6810 C.ar  176  TRP176      0.0152
     97  NE1       43.6200   12.7610   64.5960 N.ar  176  TRP176     -0.2442
     98  CE2       43.7400   12.2050   65.8430 C.ar  176  TRP176      0.0810
     99  CE3       42.6980   12.4080   68.0200 C.ar  176  TRP176      0.0012
    100  CZ2       44.6280   11.2130   66.3150 C.ar  176  TRP176      0.0191
    101  CZ3       43.5680   11.4340   68.4730 C.ar  176  TRP176      0.0001
    102  CH2       44.5030   10.8350   67.6170 C.ar  176  TRP176      0.0015
    103  N         38.4490   14.4170   68.4190 N.am  177  ARG177     -0.1963
    104  CA        37.5150   15.0080   69.3750 C.3   177  ARG177      0.1729
    105  C         38.1640   15.1450   70.7480 C.2   177  ARG177      0.2616
    106  O         38.6840   14.1780   71.2930 O.2   177  ARG177     -0.2715
    107  CB        36.2470   14.1350   69.4700 C.3   177  ARG177      0.0348
    108  CG        35.2470   14.5810   70.4960 C.3   177  ARG177      0.0492
    109  CD        33.9070   13.7920   70.3350 C.3   177  ARG177      0.2205
    110  NE        34.1500   12.4180   69.8950 N.pl3 177  ARG177     -0.0865
    111  CZ        34.5640   11.4280   70.6870 C.cat 177  ARG177      0.5346
    112  NH1       34.7690   11.6160   71.9960 N.pl3 177  ARG177      0.1354
    113  NH2       34.7720   10.2240   70.1620 N.pl3 177  ARG177      0.1354
    114  N         38.1230   16.3480   71.3140 N.am  178  ASN178     -0.1958
    115  CA        38.6030   16.5400   72.6750 C.3   178  ASN178      0.1819
    116  C         37.4580   16.2490   73.6590 C.2   178  ASN178      0.2622
    117  O         36.3490   16.7220   73.4490 O.2   178  ASN178     -0.2715
    118  CB        39.1150   17.9580   72.8170 C.3   178  ASN178      0.1195
    119  CG        39.7630   18.1900   74.1130 C.2   178  ASN178      0.2630
    120  OD1       39.0850   18.2800   75.1320 O.2   178  ASN178     -0.2716
    121  ND2       41.0980   18.3130   74.1060 N.am  178  ASN178     -0.0877
    122  N         37.7380   15.4790   74.7140 N.am  179  SER179     -0.1936
    123  CA        36.7060   15.0480   75.6550 C.3   179  SER179      0.2055
    124  C         36.0520   16.2120   76.3860 C.2   179  SER179      0.2642
    125  O         34.8820   16.1490   76.7350 O.2   179  SER179     -0.2714
    126  CB        37.2960   14.0760   76.6780 C.3   179  SER179      0.2130
    127  OG        38.2610   14.7370   77.4700 O.3   179  SER179     -0.2179
    128  N         36.8150   17.2750   76.6150 N.am  180  LYS180     -0.1977
    129  CA        36.3320   18.4240   77.3620 C.3   180  LYS180      0.1596
    130  C         35.8170   19.5460   76.4720 C.2   180  LYS180      0.2287
    131  O         34.8420   20.2130   76.8250 O.2   180  LYS180     -0.2864
    132  CB        37.4420   18.9580   78.2810 C.3   180  LYS180      0.0298
    133  CG        37.9360   17.9680   79.3130 C.3   180  LYS180      0.0038
    134  CD        36.8070   17.5340   80.2250 C.3   180  LYS180      0.0206
    135  CE        37.3450   16.8640   81.4770 C.3   180  LYS180      0.1093
    136  NZ        38.3150   15.7980   81.1030 N.3   180  LYS180     -0.1314
    137  N         37.5120   19.0530   67.2150 N.3   184  TRP184     -0.1241
    138  CA        38.2900   20.1300   66.6300 C.3   184  TRP184      0.1605
    139  C         37.4870   20.9070   65.5790 C.2   184  TRP184      0.2264
    140  O         37.5100   22.1470   65.5330 O.2   184  TRP184     -0.2867
    141  CB        39.5380   19.5720   65.9610 C.3   184  TRP184      0.0550
    142  CG        40.5090   18.8950   66.9390 C.ar  184  TRP184      0.0003
    143  CD1       40.4430   18.8450   68.3070 C.ar  184  TRP184      0.0946
    144  CD2       41.7200   18.2310   66.5650 C.ar  184  TRP184      0.0152
    145  NE1       41.5550   18.1440   68.8160 N.ar  184  TRP184     -0.2442
    146  CE2       42.3490   17.7780   67.7540 C.ar  184  TRP184      0.0810
    147  CE3       42.3280   17.9850   65.3350 C.ar  184  TRP184      0.0012
    148  CZ2       43.5760   17.1040   67.7390 C.ar  184  TRP184      0.0191
    149  CZ3       43.5400   17.3150   65.3080 C.ar  184  TRP184      0.0001
    150  CH2       44.1540   16.8760   66.5130 C.ar  184  TRP184      0.0015
    151  N         46.8710   19.6180   67.3150 N.3   218  GLU218     -0.1231
    152  CA        47.6680   18.4360   67.0370 C.3   218  GLU218      0.1699
    153  C         47.3660   17.4100   68.1290 C.2   218  GLU218      0.2593
    154  O         47.2110   17.8070   69.2770 O.2   218  GLU218     -0.2718
    155  CB        49.1710   18.8050   66.9830 C.3   218  GLU218      0.0402
    156  CG        50.0930   17.6330   66.7460 C.3   218  GLU218      0.1161
    157  CD        51.5720   18.0580   66.7180 C.2   218  GLU218      0.3649
    158  OE1       51.9100   19.0750   66.0450 O.co2 218  GLU218     -0.2457
    159  OE2       52.4020   17.3660   67.3610 O.co2 218  GLU218     -0.2457
    160  N         47.3150   16.1190   67.8090 N.am  219  SER219     -0.1938
    161  CA        46.9540   15.1680   68.8560 C.3   219  SER219      0.2055
    162  C         48.0890   14.9130   69.8340 C.2   219  SER219      0.2643
    163  O         49.2660   15.1120   69.5180 O.2   219  SER219     -0.2714
    164  CB        46.5210   13.8390   68.2800 C.3   219  SER219      0.2130
    165  OG        47.6290   13.1370   67.7700 O.3   219  SER219     -0.2179
    166  N         47.7060   14.4800   71.0310 N.am  220  PHE220     -0.1973
    167  CA        48.6810   14.0930   72.0760 C.3   220  PHE220      0.1639
    168  C         48.2080   12.7330   72.5770 C.2   220  PHE220      0.2290
    169  O         47.0320   12.5870   72.9130 O.2   220  PHE220     -0.2864
    170  CB        48.7230   15.1160   73.2180 C.3   220  PHE220      0.0560
    171  CG        49.5990   14.7000   74.3300 C.ar  220  PHE220     -0.0200
    172  CD1       50.9560   15.0080   74.3160 C.ar  220  PHE220     -0.0042
    173  CD2       49.0840   13.9360   75.4010 C.ar  220  PHE220     -0.0042
    174  CE1       51.8000   14.5860   75.3640 C.ar  220  PHE220     -0.0003
    175  CE2       49.9270   13.5160   76.4540 C.ar  220  PHE220     -0.0003
    176  CZ        51.2760   13.8190   76.4160 C.ar  220  PHE220     -0.0000
    177  N         49.0540    7.0710   67.7920 N.3   226  PHE226     -0.1241
    178  CA        48.0440    8.1280   67.7060 C.3   226  PHE226      0.1605
    179  C         48.5590    9.4960   68.1280 C.2   226  PHE226      0.2264
    180  O         47.7930   10.4450   68.2460 O.2   226  PHE226     -0.2867
    181  CB        46.8380    7.7400   68.5520 C.3   226  PHE226      0.0534
    182  CG        46.0490    6.6000   67.9620 C.ar  226  PHE226     -0.0203
    183  CD1       45.0420    6.8550   67.0650 C.ar  226  PHE226     -0.0042
    184  CD2       46.3550    5.2900   68.2700 C.ar  226  PHE226     -0.0042
    185  CE1       44.3210    5.7930   66.5150 C.ar  226  PHE226     -0.0003
    186  CE2       45.6340    4.2370   67.7050 C.ar  226  PHE226     -0.0003
    187  CZ        44.6310    4.5100   66.8400 C.ar  226  PHE226     -0.0000
@<TRIPOS>BOND
     1    68    67    2
     2    67    66    1
     3    71    72    1
     4    49    50    2
     5    49    48    1
     6    63    62    2
     7    74    73    2
     8    66    69    1
     9    66    65    1
    10    48    47    1
    11    62    65   am
    12    62    61    1
    13    72    73    1
    14    72    75    1
    15    64    61    1
    16    51    52    1
    17    73    83   am
    18    69    70    1
    19    60    61    1
    20    60    53   am
    21    52    53    1
    22    52    55    1
    23    83    84    1
    24    87    88    1
    25    87    84    1
    26    47    39   am
    27    75    76    1
    28    53    54    2
    29    78    76   ar
    30    78    80   ar
    31    84    85    1
    32    76    77   ar
    33    40    39    2
    34    80    81   ar
    35    39    38    1
    36    77    79   ar
    37    81    79   ar
    38    81    82    1
    39    55    56    1
    40    58    57    2
    41    85    89   am
    42    85    86    2
    43    57    56    1
    44    57    59   am
    45    97    95   ar
    46    97    98   ar
    47    95    94   ar
    48    34    33    2
    49    38    37    1
    50    38    41    1
    51    35    36    1
    52    35    32    1
    53    89    90    1
    54    33    37   am
    55    33    32    1
    56    31    32    1
    57   149   147   ar
    58   149   150   ar
    59   147   144   ar
    60    41    42    1
    61   140   139    2
    62   139   138    1
    63    98   100   ar
    64    98    96   ar
    65    94    93    1
    66    94    96   ar
    67   141   138    1
    68   141   142    1
    69   158   157   ar
    70    90    93    1
    71    90    91    1
    72   100   102   ar
    73   150   148   ar
    74   185   187   ar
    75   185   183   ar
    76   144   142   ar
    77   144   146   ar
    78   138   137    1
    79    96    99   ar
    80   157   156    1
    81   157   159   ar
    82   156   155    1
    83    92    91    2
    84    42    43   ar
    85    42    44   ar
    86   187   186   ar
    87   142   143   ar
    88   155   152    1
    89   152   151    1
    90   152   153    1
    91   183   182   ar
    92    43    45   ar
    93    91   103   am
    94   102   101   ar
    95    24    22    1
    96   186   184   ar
    97   178   177    1
    98   178   179    1
    99   178   181    1
   100   148   146   ar
   101   146   145   ar
   102   165   164    1
   103   160   153   am
   104   160   161    1
   105   182   184   ar
   106   182   181    1
   107    44    46   ar
   108    99   101   ar
   109   179   180    2
   110   153   154    2
   111    21    22    2
   112    21    20    1
   113    22    23    1
   114   164   161    1
   115   143   145   ar
   116   103   104    1
   117    45    46   ar
   118    20    19    1
   119   161   162    1
   120   104   107    1
   121   104   105    1
   122   107   108    1
   123   163   162    2
   124   162   166   am
   125   110   109    1
   126   110   111    2
   127    19    18    1
   128   113   111    1
   129   109   108    1
   130   111   112    1
   131   105   106    2
   132   105   114   am
   133   166   167    1
   134    18    15    1
   135   114   115    1
   136     1     2    1
   137     6     5    1
   138     4     3    2
   139   167   168    1
   140   167   170    1
   141    15    14    1
   142    15    16    1
   143   168   169    2
   144   115   118    1
   145   115   116    1
   146     2     3    1
   147     2     5    1
   148     3     8   am
   149     5     7    1
   150   118   119    1
   151    14    10   am
   152    17    16    2
   153   170   171    1
   154    16    25   am
   155   117   116    2
   156   116   122   am
   157    28    27    2
   158    10    11    2
   159    10     9    1
   160     8     9    1
   161   121   119   am
   162   119   120    2
   163     9    12    1
   164   172   171   ar
   165   172   174   ar
   166   171   173   ar
   167    25    26    1
   168    27    26    1
   169   122   123    1
   170    26    29    1
   171   174   176   ar
   172   173   175   ar
   173   123   124    1
   174   123   126    1
   175    12    13    1
   176    29    30    1
   177   124   128   am
   178   124   125    2
   179   176   175   ar
   180   130   131    2
   181   130   129    1
   182   128   129    1
   183   126   127    1
   184   129   132    1
   185   132   133    1
   186   133   134    1
   187   134   135    1
   188   136   135    1
