@<TRIPOS>MOLECULE
tmp/4ps0B00.pdb
 184 185 0 0 0
SMALL
GASTEIGER

@<TRIPOS>ATOM
      1  N        -17.3500    1.9020    5.4370 N.3    29  THR29      -0.1203
      2  CA       -16.2050    1.6730    6.3080 C.3    29  THR29       0.1994
      3  C        -15.0160    2.5770    5.9900 C.2    29  THR29       0.2619
      4  O        -14.8260    3.0410    4.8580 O.2    29  THR29      -0.2717
      5  CB       -15.7240    0.2140    6.2110 C.3    29  THR29       0.1784
      6  OG1      -15.4320   -0.0910    4.8360 O.3    29  THR29      -0.2211
      7  CG2      -16.7960   -0.7160    6.7010 C.3    29  THR29       0.0376
      8  N        -14.2060    2.8030    7.0120 N.am   30  SER30      -0.1937
      9  CA       -12.9690    3.5550    6.8910 C.3    30  SER30       0.2055
     10  C        -11.9900    2.7840    6.0100 C.2    30  SER30       0.2643
     11  O        -11.8090    1.5860    6.1970 O.2    30  SER30      -0.2714
     12  CB       -12.3810    3.8050    8.3030 C.3    30  SER30       0.2130
     13  OG       -11.0790    4.3660    8.2640 O.3    30  SER30      -0.2179
     14  N        -11.3650    3.4800    5.0580 N.am   31  ARG31      -0.1963
     15  CA       -10.4700    2.8370    4.1090 C.3    31  ARG31       0.1729
     16  C         -9.0220    2.7130    4.5830 C.2    31  ARG31       0.2616
     17  O         -8.1110    3.3630    4.0240 O.2    31  ARG31      -0.2715
     18  CB       -10.5470    3.5740    2.7780 C.3    31  ARG31       0.0348
     19  CG       -11.9670    3.4800    2.1930 C.3    31  ARG31       0.0492
     20  CD       -12.1280    4.1680    0.8350 C.3    31  ARG31       0.2205
     21  NE       -11.2380    3.5180   -0.1400 N.pl3  31  ARG31      -0.0865
     22  CZ       -10.0440    3.9800   -0.5130 C.cat  31  ARG31       0.5346
     23  NH1       -9.5990    5.1440   -0.0600 N.pl3  31  ARG31       0.1354
     24  NH2       -9.3040    3.2770   -1.3570 N.pl3  31  ARG31       0.1354
     25  N         -8.8190    1.8430    5.5840 N.am   32  SER32      -0.1950
     26  CA        -7.4860    1.6690    6.1510 C.3    32  SER32       0.1924
     27  C         -6.4870    1.2870    5.0780 C.2    32  SER32       0.2314
     28  O         -6.7350    0.3830    4.2590 O.2    32  SER32      -0.2863
     29  CB        -7.5040    0.6070    7.2300 C.3    32  SER32       0.2116
     30  OG        -8.4930    0.9390    8.1830 O.3    32  SER32      -0.2180
     31  N        -11.1980    5.8400   -3.2370 N.3    87  SER87      -0.1202
     32  CA       -12.4320    5.8540   -2.4510 C.3    87  SER87       0.2020
     33  C        -13.1930    4.5520   -2.5990 C.2    87  SER87       0.2619
     34  O        -12.7600    3.6690   -3.3380 O.2    87  SER87      -0.2717
     35  CB       -13.3330    7.0290   -2.8980 C.3    87  SER87       0.2103
     36  OG       -14.2730    7.3620   -1.8550 O.3    87  SER87      -0.2182
     37  N        -14.3510    4.4710   -1.9440 N.am   88  HIS88      -0.1961
     38  CA       -15.3710    3.4970   -2.3010 C.3    88  HIS88       0.1787
     39  C        -15.9690    3.8630   -3.6450 C.2    88  HIS88       0.2620
     40  O        -15.9250    5.0330   -4.0490 O.2    88  HIS88      -0.2715
     41  CB       -16.4540    3.4570   -1.2160 C.3    88  HIS88       0.0785
     42  CG       -15.9480    2.9500    0.0980 C.ar   88  HIS88       0.0821
     43  ND1      -15.5390    1.6470    0.2820 N.ar   88  HIS88      -0.2267
     44  CD2      -15.7940    3.5660    1.3010 C.ar   88  HIS88       0.1154
     45  CE1      -15.1610    1.4810    1.5460 C.ar   88  HIS88       0.1986
     46  NE2      -15.3270    2.6240    2.1880 N.ar   88  HIS88      -0.2212
     47  N        -16.5200    2.8740   -4.3390 N.am   89  GLY89      -0.1954
     48  CA       -17.1330    3.1520   -5.6350 C.3    89  GLY89       0.1869
     49  C        -18.1250    2.0870   -6.0240 C.2    89  GLY89       0.2309
     50  O        -18.2340    1.0520   -5.3590 O.2    89  GLY89      -0.2863
     51  N         -9.0160    4.1400   -8.0300 N.3   128  GLN128     -0.1231
     52  CA        -8.9690    3.0190   -7.0700 C.3   128  GLN128      0.1698
     53  C        -10.3000    3.0320   -6.3400 C.2   128  GLN128      0.2592
     54  O        -10.5050    3.8870   -5.4770 O.2   128  GLN128     -0.2718
     55  CB        -7.8020    3.1710   -6.1040 C.3   128  GLN128      0.0381
     56  CG        -7.8810    2.1910   -4.9210 C.3   128  GLN128      0.0905
     57  CD        -7.9740    0.7340   -5.3460 C.2   128  GLN128      0.2608
     58  OE1       -7.3280    0.2810   -6.3050 O.2   128  GLN128     -0.2717
     59  NE2       -8.8000   -0.0220   -4.6320 N.am  128  GLN128     -0.0878
     60  N        -11.1790    2.0920   -6.7230 N.am  129  ALA129     -0.1966
     61  CA       -12.5520    1.9870   -6.2120 C.3   129  ALA129      0.1728
     62  C        -13.1770    0.7500   -6.8180 C.2   129  ALA129      0.2616
     63  O        -12.8450    0.3890   -7.9910 O.2   129  ALA129     -0.2715
     64  CB       -13.3830    3.2360   -6.5860 C.3   129  ALA129      0.0334
     65  N        -14.0840    0.1050   -6.0810 N.am  130  CYS130     -0.1968
     66  CA       -14.9170   -0.9470   -6.6850 C.3   130  CYS130      0.1712
     67  C        -15.7630   -0.4190   -7.8380 C.2   130  CYS130      0.2296
     68  O        -16.1050    0.7730   -7.9000 O.2   130  CYS130     -0.2864
     69  CB       -15.8610   -1.5840   -5.6720 C.3   130  CYS130      0.0983
     70  SG       -14.9920   -2.5030   -4.3590 S.3   130  CYS130     -0.0798
     71  N        -15.3630   -6.0900   -7.6960 N.3   165  TYR165     -0.1227
     72  CA       -14.6360   -5.6190   -6.5030 C.3   165  TYR165      0.1736
     73  C        -13.2450   -5.1210   -6.8320 C.2   165  TYR165      0.2596
     74  O        -12.6180   -5.5590   -7.7940 O.2   165  TYR165     -0.2718
     75  CB       -14.4880   -6.7790   -5.4760 C.3   165  TYR165      0.0548
     76  CG       -15.6200   -6.9520   -4.4830 C.ar  165  TYR165     -0.0200
     77  CD1      -16.8050   -7.5600   -4.8470 C.ar  165  TYR165     -0.0009
     78  CD2      -15.4680   -6.5430   -3.1670 C.ar  165  TYR165     -0.0009
     79  CE1      -17.8320   -7.7510   -3.9430 C.ar  165  TYR165      0.0417
     80  CE2      -16.4930   -6.7180   -2.2400 C.ar  165  TYR165      0.0417
     81  CZ       -17.6800   -7.3120   -2.6460 C.ar  165  TYR165      0.1957
     82  OH       -18.6770   -7.4820   -1.7420 O.3   165  TYR165     -0.2866
     83  N        -12.7310   -4.2320   -5.9790 N.am  166  SER166     -0.1938
     84  CA       -11.3620   -3.7940   -6.0690 C.3   166  SER166      0.2055
     85  C        -10.8100   -3.9190   -4.6570 C.2   166  SER166      0.2643
     86  O        -11.5010   -3.5300   -3.7180 O.2   166  SER166     -0.2714
     87  CB       -11.2630   -2.3500   -6.5530 C.3   166  SER166      0.2130
     88  OG        -9.8770   -1.9890   -6.6010 O.3   166  SER166     -0.2179
     89  N         -9.6240   -4.4800   -4.5170 N.am  167  TRP167     -0.1959
     90  CA        -9.1090   -4.8650   -3.1930 C.3   167  TRP167      0.1771
     91  C         -7.9830   -3.9820   -2.6430 C.2   167  TRP167      0.2620
     92  O         -7.1010   -3.4580   -3.3580 O.2   167  TRP167     -0.2715
     93  CB        -8.6350   -6.3410   -3.2330 C.3   167  TRP167      0.0590
     94  CG        -9.7680   -7.3150   -3.4630 C.ar  167  TRP167      0.0006
     95  CD1      -10.0660   -8.0020   -4.6280 C.ar  167  TRP167      0.0946
     96  CD2      -10.7950   -7.6570   -2.5270 C.ar  167  TRP167      0.0152
     97  NE1      -11.2030   -8.7870   -4.4460 N.ar  167  TRP167     -0.2442
     98  CE2      -11.6720   -8.5850   -3.1730 C.ar  167  TRP167      0.0810
     99  CE3      -11.0590   -7.2810   -1.2020 C.ar  167  TRP167      0.0012
    100  CZ2      -12.7910   -9.1190   -2.5370 C.ar  167  TRP167      0.0191
    101  CZ3      -12.1770   -7.8220   -0.5750 C.ar  167  TRP167      0.0001
    102  CH2      -13.0210   -8.7460   -1.2390 C.ar  167  TRP167      0.0015
    103  N         -8.0070   -3.8940   -1.3150 N.am  168  ARG168     -0.1963
    104  CA        -7.0940   -3.0350   -0.5590 C.3   168  ARG168      0.1729
    105  C         -6.5830   -3.7850    0.6420 C.2   168  ARG168      0.2616
    106  O         -7.3250   -4.5110    1.2830 O.2   168  ARG168     -0.2715
    107  CB        -7.8300   -1.7360   -0.1910 C.3   168  ARG168      0.0348
    108  CG        -7.0530   -0.7460    0.7070 C.3   168  ARG168      0.0492
    109  CD        -7.8210    0.6040    0.8460 C.3   168  ARG168      0.2205
    110  NE        -9.2650    0.4020    0.9170 N.pl3 168  ARG168     -0.0865
    111  CZ        -9.9230   -0.0270    2.0000 C.cat 168  ARG168      0.5346
    112  NH1       -9.2870   -0.2810    3.1420 N.pl3 168  ARG168      0.1354
    113  NH2      -11.2370   -0.2210    1.9220 N.pl3 168  ARG168      0.1354
    114  N         -5.2900   -3.6430    0.9120 N.am  169  ASN169     -0.1958
    115  CA        -4.6730   -4.2110    2.1130 C.3   169  ASN169      0.1819
    116  C         -4.5150   -3.0950    3.1340 C.2   169  ASN169      0.2622
    117  O         -4.0410   -1.9940    2.8010 O.2   169  ASN169     -0.2715
    118  CB        -3.3400   -4.8530    1.7650 C.3   169  ASN169      0.1195
    119  CG        -2.6900   -5.5330    2.9690 C.2   169  ASN169      0.2630
    120  OD1       -2.0560   -4.8760    3.7910 O.2   169  ASN169     -0.2716
    121  ND2       -2.8800   -6.8470    3.0980 N.am  169  ASN169     -0.0877
    122  N         -4.9650   -3.3690    4.3570 N.am  170  SER170     -0.1936
    123  CA        -5.0470   -2.3300    5.3860 C.3   170  SER170      0.2055
    124  C         -3.6750   -1.7890    5.7750 C.2   170  SER170      0.2642
    125  O         -3.5700   -0.6560    6.2640 O.2   170  SER170     -0.2714
    126  CB        -5.7540   -2.8600    6.6260 C.3   170  SER170      0.2130
    127  OG        -5.0270   -3.9350    7.2110 O.3   170  SER170     -0.2179
    128  N         -2.6270   -2.5730    5.5290 N.am  171  LYS171     -0.1977
    129  CA        -1.2730   -2.1680    5.9050 C.3   171  LYS171      0.1596
    130  C         -0.4720   -1.6510    4.7000 C.2   171  LYS171      0.2287
    131  O          0.2420   -0.6520    4.8320 O.2   171  LYS171     -0.2864
    132  CB        -0.5220   -3.3270    6.5860 C.3   171  LYS171      0.0298
    133  CG        -1.1620   -3.8290    7.8620 C.3   171  LYS171      0.0038
    134  CD        -1.2490   -2.7210    8.8920 C.3   171  LYS171      0.0206
    135  CE        -1.5190   -3.2840   10.2760 C.3   171  LYS171      0.1093
    136  NZ        -2.6840   -4.2100   10.2280 N.3   171  LYS171     -0.1314
    137  N         -4.0600   -2.9800   -3.9300 N.3   175  TRP175     -0.1241
    138  CA        -3.2350   -3.7810   -4.8310 C.3   175  TRP175      0.1605
    139  C         -2.8190   -2.9760   -6.0610 C.2   175  TRP175      0.2264
    140  O         -1.6620   -3.0470   -6.5540 O.2   175  TRP175     -0.2867
    141  CB        -4.0180   -4.9920   -5.3280 C.3   175  TRP175      0.0550
    142  CG        -4.4270   -5.9610   -4.2270 C.ar  175  TRP175      0.0003
    143  CD1       -4.1250   -5.8980   -2.8670 C.ar  175  TRP175      0.0946
    144  CD2       -5.1610   -7.1640   -4.4220 C.ar  175  TRP175      0.0152
    145  NE1       -4.6570   -6.9910   -2.2400 N.ar  175  TRP175     -0.2442
    146  CE2       -5.2700   -7.7970   -3.1610 C.ar  175  TRP175      0.0810
    147  CE3       -5.7370   -7.7780   -5.5560 C.ar  175  TRP175      0.0012
    148  CZ2       -5.9340   -9.0120   -2.9910 C.ar  175  TRP175      0.0191
    149  CZ3       -6.3920   -8.9720   -5.4020 C.ar  175  TRP175      0.0001
    150  CH2       -6.5030   -9.5840   -4.1080 C.ar  175  TRP175      0.0015
    151  N         -6.4600  -12.7300   -2.6970 N.3   210  SER210     -0.1202
    152  CA        -6.9690  -12.4690   -1.3480 C.3   210  SER210      0.2020
    153  C         -6.8730  -13.6350   -0.3800 C.2   210  SER210      0.2619
    154  O         -6.9570  -14.8220   -0.7480 O.2   210  SER210     -0.2717
    155  CB        -8.4180  -12.0190   -1.3830 C.3   210  SER210      0.2103
    156  OG        -9.3190  -13.0890   -1.6210 O.3   210  SER210     -0.2182
    157  N         -6.6700  -13.2750    0.8780 N.am  211  PHE211     -0.1961
    158  CA        -6.6830  -14.2380    1.9770 C.3   211  PHE211      0.1771
    159  C         -7.7620  -13.7460    2.9610 C.2   211  PHE211      0.2620
    160  O         -7.6910  -12.6100    3.4380 O.2   211  PHE211     -0.2715
    161  CB        -5.3030  -14.3410    2.6620 C.3   211  PHE211      0.0574
    162  CG        -5.2770  -15.3080    3.8050 C.ar  211  PHE211     -0.0200
    163  CD1       -4.9670  -16.6440    3.5920 C.ar  211  PHE211     -0.0042
    164  CD2       -5.5990  -14.9030    5.1020 C.ar  211  PHE211     -0.0042
    165  CE1       -4.9730  -17.5760    4.6510 C.ar  211  PHE211     -0.0003
    166  CE2       -5.5970  -15.8290    6.1350 C.ar  211  PHE211     -0.0003
    167  CZ        -5.2980  -17.1520    5.9130 C.ar  211  PHE211     -0.0000
    168  N         -8.7630  -14.5750    3.2320 N.am  212  SER212     -0.1950
    169  CA        -9.8540  -14.1860    4.0950 C.3   212  SER212      0.1924
    170  C        -10.3390  -15.3540    4.9370 C.2   212  SER212      0.2314
    171  O        -10.4430  -16.5050    4.4420 O.2   212  SER212     -0.2863
    172  CB       -11.0170  -13.6240    3.2540 C.3   212  SER212      0.2116
    173  OG       -12.0820  -13.3300    4.1250 O.3   212  SER212     -0.2180
    174  N        -14.8600  -14.4400    0.4280 N.3   217  PHE217     -0.1241
    175  CA       -13.9070  -13.4540   -0.0610 C.3   217  PHE217      0.1605
    176  C        -12.4740  -13.9630   -0.1310 C.2   217  PHE217      0.2264
    177  O        -11.5480  -13.1780   -0.3390 O.2   217  PHE217     -0.2867
    178  CB       -13.9510  -12.2140    0.8210 C.3   217  PHE217      0.0534
    179  CG       -15.2940  -11.5550    0.8310 C.ar  217  PHE217     -0.0203
    180  CD1      -15.7080  -10.8300   -0.2750 C.ar  217  PHE217     -0.0042
    181  CD2      -16.1460  -11.6760    1.9200 C.ar  217  PHE217     -0.0042
    182  CE1      -16.9380  -10.2180   -0.2890 C.ar  217  PHE217     -0.0003
    183  CE2      -17.4010  -11.0800    1.9030 C.ar  217  PHE217     -0.0003
    184  CZ       -17.7950  -10.3480    0.7990 C.ar  217  PHE217     -0.0000
@<TRIPOS>BOND
     1    51    52    1
     2    63    62    2
     3    68    67    2
     4    67    66    1
     5    74    73    2
     6    71    72    1
     7    52    53    1
     8    52    55    1
     9    73    72    1
    10    73    83   am
    11    62    61    1
    12    62    65   am
    13    60    53   am
    14    60    61    1
    15    66    65    1
    16    66    69    1
    17    88    87    1
    18    64    61    1
    19   140   139    2
    20    87    84    1
    21    72    75    1
    22    53    54    2
    23    58    57    2
    24    55    56    1
    25    84    83    1
    26    84    85    1
    27   139   138    1
    28    49    48    1
    29    49    50    2
    30    69    70    1
    31    48    47    1
    32   147   149   ar
    33   147   144   ar
    34    75    76    1
    35   149   150   ar
    36    57    56    1
    37    57    59   am
    38   141   138    1
    39   141   142    1
    40    77    76   ar
    41    77    79   ar
    42   138   137    1
    43    85    89   am
    44    85    86    2
    45    95    97   ar
    46    95    94   ar
    47    89    90    1
    48    76    78   ar
    49    97    98   ar
    50   144   142   ar
    51   144   146   ar
    52    47    39   am
    53   142   143   ar
    54   150   148   ar
    55    40    39    2
    56    79    81   ar
    57    39    38    1
    58    94    93    1
    59    94    96   ar
    60    92    91    2
    61    34    33    2
    62    31    32    1
    63    93    90    1
    64    90    91    1
    65    98   100   ar
    66    98    96   ar
    67    78    80   ar
    68   146   148   ar
    69   146   145   ar
    70    35    32    1
    71    35    36    1
    72   143   145   ar
    73   151   152    1
    74    81    80   ar
    75    81    82    1
    76    91   103   am
    77    33    32    1
    78    33    37   am
    79   100   102   ar
    80    96    99   ar
    81    38    37    1
    82    38    41    1
    83   156   155    1
    84   155   152    1
    85    24    22    1
    86   152   153    1
    87   103   104    1
    88   102   101   ar
    89    41    42    1
    90    99   101   ar
    91   154   153    2
    92   104   107    1
    93   104   105    1
    94    22    21    2
    95    22    23    1
    96   153   157   am
    97   177   176    2
    98   182   180   ar
    99   182   184   ar
   100   180   179   ar
   101   107   108    1
   102    21    20    1
   103   176   175    1
   104   175   174    1
   105   175   178    1
   106    42    43   ar
   107    42    44   ar
   108    43    45   ar
   109   105   114   am
   110   105   106    2
   111   108   109    1
   112   184   183   ar
   113   178   179    1
   114   179   181   ar
   115    20    19    1
   116   109   110    1
   117   157   158    1
   118   114   115    1
   119   110   111    2
   120    44    46   ar
   121    45    46   ar
   122   118   115    1
   123   118   119    1
   124   183   181   ar
   125   113   111    1
   126   158   161    1
   127   158   159    1
   128   111   112    1
   129   115   116    1
   130    19    18    1
   131   161   162    1
   132    18    15    1
   133   117   116    2
   134   159   168   am
   135   159   160    2
   136   119   121   am
   137   119   120    2
   138   116   122   am
   139   168   169    1
   140   172   169    1
   141   172   173    1
   142   163   162   ar
   143   163   165   ar
   144   162   164   ar
   145    17    16    2
   146   169   170    1
   147    15    16    1
   148    15    14    1
   149    28    27    2
   150   122   123    1
   151   171   170    2
   152    16    25   am
   153   165   167   ar
   154   130   131    2
   155   130   129    1
   156     6     5    1
   157     4     3    2
   158    14    10   am
   159    27    26    1
   160   164   166   ar
   161   123   124    1
   162   123   126    1
   163     1     2    1
   164   128   124   am
   165   128   129    1
   166    25    26    1
   167   124   125    2
   168   129   132    1
   169   167   166   ar
   170     3     2    1
   171     3     8   am
   172    10    11    2
   173    10     9    1
   174    26    29    1
   175     5     2    1
   176     5     7    1
   177   132   133    1
   178   126   127    1
   179     9     8    1
   180     9    12    1
   181    29    30    1
   182   133   134    1
   183    13    12    1
   184   134   135    1
   185   136   135    1
