@<TRIPOS>MOLECULE
tmp/4ps1C00.pdb
 199 195 0 0 0
SMALL
GASTEIGER

@<TRIPOS>ATOM
      1  N         -8.6470    2.2170   45.5700 N.3    36  ARG36      -0.1231
      2  CA        -9.7060    2.9400   44.8560 C.3    36  ARG36       0.1694
      3  C        -10.7630    2.0530   44.1790 C.2    36  ARG36       0.2592
      4  O        -10.4800    0.9260   43.7860 O.2    36  ARG36      -0.2718
      5  CB        -9.0740    3.8620   43.8080 C.3    36  ARG36       0.0321
      6  CG        -8.1330    4.9060   44.4030 C.3    36  ARG36       0.0489
      7  CD        -7.8410    5.9460   43.3620 C.3    36  ARG36       0.2205
      8  NE        -6.7450    6.8080   43.7760 N.pl3  36  ARG36      -0.0865
      9  CZ        -5.4820    6.6310   43.4090 C.cat  36  ARG36       0.5346
     10  NH1       -5.1600    5.6240   42.6050 N.pl3  36  ARG36       0.1354
     11  NH2       -4.5420    7.4650   43.8440 N.pl3  36  ARG36       0.1354
     12  N        -12.0050    2.5510   44.0530 N.am   37  ASP37      -0.1960
     13  CA       -12.9330    1.8770   43.1190 C.3    37  ASP37       0.1840
     14  C        -12.3090    1.9260   41.7110 C.2    37  ASP37       0.2622
     15  O        -11.6480    2.8970   41.3840 O.2    37  ASP37      -0.2715
     16  CB       -14.3050    2.5520   43.1140 C.3    37  ASP37       0.1450
     17  CG       -15.0570    2.3430   44.4010 C.2    37  ASP37       0.3671
     18  OD1      -14.6360    1.5220   45.2290 O.co2  37  ASP37      -0.2456
     19  OD2      -16.0780    3.0330   44.5840 O.co2  37  ASP37      -0.2456
     20  N        -12.5090    0.8870   40.8930 N.am   38  ARG38      -0.1963
     21  CA       -11.7850    0.8170   39.6170 C.3    38  ARG38       0.1729
     22  C        -12.5560    1.4870   38.4460 C.2    38  ARG38       0.2616
     23  O        -12.9050    0.8440   37.4510 O.2    38  ARG38      -0.2715
     24  CB       -11.4600   -0.6300   39.2980 C.3    38  ARG38       0.0348
     25  CG       -10.5680   -1.3060   40.4260 C.3    38  ARG38       0.0492
     26  CD       -10.1190   -2.7410   40.0710 C.3    38  ARG38       0.2205
     27  NE        -9.4280   -2.7400   38.7810 N.pl3  38  ARG38      -0.0865
     28  CZ        -9.9900   -3.1290   37.6210 C.cat  38  ARG38       0.5346
     29  NH1      -11.2280   -3.5850   37.5790 N.pl3  38  ARG38       0.1354
     30  NH2       -9.3140   -3.0190   36.4980 N.pl3  38  ARG38       0.1354
     31  N        -12.7890    2.7880   38.5810 N.am   39  ASN39      -0.1972
     32  CA       -13.4630    3.5610   37.5500 C.3    39  ASN39       0.1688
     33  C        -12.7460    3.3460   36.2240 C.2    39  ASN39       0.2292
     34  O        -11.5200    3.4120   36.1830 O.2    39  ASN39      -0.2864
     35  CB       -13.4820    5.0410   37.9030 C.3    39  ASN39       0.1181
     36  CG       -14.2820    5.3060   39.1630 C.2    39  ASN39       0.2629
     37  OD1      -15.3170    4.6810   39.3600 O.2    39  ASN39      -0.2716
     38  ND2      -13.8000    6.2000   40.0320 N.am   39  ASN39      -0.0877
     39  N         -9.3170   -6.6140   38.1140 N.3    94  SER94      -0.1202
     40  CA        -9.3430   -6.2890   39.5310 C.3    94  SER94       0.2020
     41  C         -8.0660   -5.5770   39.9490 C.2    94  SER94       0.2619
     42  O         -7.1550   -5.3570   39.1420 O.2    94  SER94      -0.2717
     43  CB        -9.4960   -7.5640   40.3770 C.3    94  SER94       0.2103
     44  OG        -9.9820   -7.2390   41.6520 O.3    94  SER94      -0.2182
     45  N         -8.0030   -5.2370   41.2290 N.am   95  HIS95      -0.1961
     46  CA        -6.7160   -4.9240   41.8400 C.3    95  HIS95       0.1787
     47  C         -5.9490   -6.2180   42.0640 C.2    95  HIS95       0.2620
     48  O         -6.5480   -7.2860   42.1610 O.2    95  HIS95      -0.2715
     49  CB        -6.9140   -4.2170   43.1650 C.3    95  HIS95       0.0785
     50  CG        -7.4450   -2.8290   43.0220 C.ar   95  HIS95       0.0821
     51  ND1       -6.7230   -1.8390   42.3940 N.ar   95  HIS95      -0.2267
     52  CD2       -8.6150   -2.2490   43.4320 C.ar   95  HIS95       0.1154
     53  CE1       -7.4290   -0.7150   42.3870 C.ar   95  HIS95       0.1986
     54  NE2       -8.5690   -0.9310   43.0340 N.ar   95  HIS95      -0.2212
     55  N         -4.6430   -6.1090   42.1870 N.am   96  GLY96      -0.1954
     56  CA        -3.8430   -7.2610   42.5790 C.3    96  GLY96       0.1869
     57  C         -2.4870   -6.9310   43.1480 C.2    96  GLY96       0.2309
     58  O         -2.1370   -5.7570   43.3480 O.2    96  GLY96      -0.2863
     59  N         -6.1480   -8.6550   34.2670 N.3   136  GLN136     -0.1245
     60  CA        -5.8590   -7.2340   34.3530 C.3   136  GLN136      0.1566
     61  C         -5.8550   -6.8800   35.8380 C.2   136  GLN136      0.2260
     62  O         -6.9130   -6.8180   36.4650 O.2   136  GLN136     -0.2867
     63  CB        -6.9100   -6.3990   33.5710 C.3   136  GLN136      0.0367
     64  CG        -6.8930   -4.9040   33.9010 C.3   136  GLN136      0.0905
     65  CD        -5.4910   -4.3370   33.7610 C.2   136  GLN136      0.2608
     66  OE1       -4.7940   -4.5800   32.7590 O.2   136  GLN136     -0.2717
     67  NE2       -5.0840   -3.5210   34.7490 N.am  136  GLN136     -0.0878
     68  N         -2.5830   -5.1620   38.9240 N.3   138  CYS138     -0.1235
     69  CA        -1.1750   -5.0200   39.2840 C.3   138  CYS138      0.1677
     70  C         -0.6550   -6.3400   39.7920 C.2   138  CYS138      0.2270
     71  O         -1.4270   -7.1760   40.2570 O.2   138  CYS138     -0.2867
     72  CB        -0.9740   -3.9890   40.3710 C.3   138  CYS138      0.0956
     73  SG        -1.3860   -2.2980   39.8170 S.3   138  CYS138     -0.0801
     74  N          2.1310   -5.9820   41.9170 N.3   140  GLY140     -0.1225
     75  CA         3.0830   -5.4300   42.8940 C.3   140  GLY140      0.1811
     76  C          2.9790   -3.9320   42.7960 C.2   140  GLY140      0.2280
     77  O          2.1390   -3.4200   42.0650 O.2   140  GLY140     -0.2866
     78  N          6.8240    0.8010   39.9650 N.3   143  TYR143     -0.1241
     79  CA         6.7450    1.3360   38.6190 C.3   143  TYR143      0.1605
     80  C          7.8530    0.6970   37.8130 C.2   143  TYR143      0.2264
     81  O          8.9580    0.5130   38.2920 O.2   143  TYR143     -0.2867
     82  CB         6.8840    2.8690   38.6020 C.3   143  TYR143      0.0534
     83  CG         5.7800    3.5730   39.3330 C.ar  143  TYR143     -0.0201
     84  CD1        4.4590    3.4550   38.9190 C.ar  143  TYR143     -0.0009
     85  CD2        6.0580    4.3450   40.4580 C.ar  143  TYR143     -0.0009
     86  CE1        3.4390    4.0960   39.5970 C.ar  143  TYR143      0.0417
     87  CE2        5.0530    4.9950   41.1450 C.ar  143  TYR143      0.0417
     88  CZ         3.7450    4.8740   40.7090 C.ar  143  TYR143      0.1957
     89  OH         2.7470    5.5280   41.3970 O.3   143  TYR143     -0.2866
     90  N          3.2510   -2.4570   38.5490 N.3   169  VAL169     -0.1231
     91  CA         1.8960   -1.9800   38.3570 C.3   169  VAL169      0.1692
     92  C          1.3970   -2.1740   36.9120 C.2   169  VAL169      0.2593
     93  O          2.1870   -2.3080   35.9510 O.2   169  VAL169     -0.2718
     94  CB         1.7460   -0.4750   38.7190 C.3   169  VAL169      0.0266
     95  CG1        2.1760   -0.2110   40.1820 C.3   169  VAL169      0.0020
     96  CG2        2.5280    0.3570   37.7480 C.3   169  VAL169      0.0020
     97  N          0.0790   -2.2400   36.7740 N.am  170  SER170     -0.1938
     98  CA        -0.5460   -1.9980   35.4670 C.3   170  SER170      0.2055
     99  C         -1.5320   -0.8400   35.5570 C.2   170  SER170      0.2643
    100  O         -1.9910   -0.4800   36.6330 O.2   170  SER170     -0.2714
    101  CB        -1.2260   -3.2540   34.9520 C.3   170  SER170      0.2130
    102  OG        -2.2550   -3.5940   35.8110 O.3   170  SER170     -0.2179
    103  N         -1.8420   -0.2230   34.4240 N.am  171  TYR171     -0.1959
    104  CA        -2.5320    1.0460   34.4660 C.3   171  TYR171      0.1771
    105  C         -3.9710    1.0020   33.9730 C.2   171  TYR171      0.2619
    106  O         -4.3120    0.2370   33.0800 O.2   171  TYR171     -0.2715
    107  CB        -1.7770    2.0520   33.6240 C.3   171  TYR171      0.0574
    108  CG        -0.4520    2.4550   34.2360 C.ar  171  TYR171     -0.0198
    109  CD1       -0.3910    3.4650   35.1930 C.ar  171  TYR171     -0.0009
    110  CD2        0.7430    1.8370   33.8300 C.ar  171  TYR171     -0.0009
    111  CE1        0.8300    3.8590   35.7360 C.ar  171  TYR171      0.0417
    112  CE2        1.9610    2.2460   34.3400 C.ar  171  TYR171      0.0417
    113  CZ         1.9950    3.2560   35.2890 C.ar  171  TYR171      0.1957
    114  OH         3.1980    3.6240   35.8480 O.3   171  TYR171     -0.2866
    115  N         -4.7870    1.8500   34.5830 N.am  172  ARG172     -0.1963
    116  CA        -6.1710    2.0290   34.2350 C.3   172  ARG172      0.1729
    117  C         -6.4410    3.5020   34.0200 C.2   172  ARG172      0.2616
    118  O         -6.1150    4.3750   34.8870 O.2   172  ARG172     -0.2715
    119  CB        -7.0750    1.4620   35.3600 C.3   172  ARG172      0.0348
    120  CG        -8.5800    1.6710   35.1450 C.3   172  ARG172      0.0492
    121  CD        -9.3620    0.7900   36.1500 C.3   172  ARG172      0.2205
    122  NE        -8.6440    0.7800   37.4150 N.pl3 172  ARG172     -0.0865
    123  CZ        -8.6290    1.7930   38.2770 C.cat 172  ARG172      0.5346
    124  NH1       -9.3420    2.9150   38.0760 N.pl3 172  ARG172      0.1354
    125  NH2       -7.8970    1.6690   39.3880 N.pl3 172  ARG172      0.1354
    126  N         -7.0890    3.8180   32.8980 N.am  173  ASN173     -0.1959
    127  CA        -7.4980    5.1920   32.6180 C.3   173  ASN173      0.1804
    128  C         -9.0060    5.2700   32.8140 C.2   173  ASN173      0.2463
    129  O         -9.7620    4.6040   32.1040 O.2   173  ASN173     -0.2730
    130  CB        -7.1090    5.5880   31.1600 C.3   173  ASN173      0.1195
    131  CG        -7.3460    7.0360   30.8830 C.2   173  ASN173      0.2630
    132  OD1       -8.2890    7.6290   31.3880 O.2   173  ASN173     -0.2716
    133  ND2       -6.4560    7.6450   30.0980 N.am  173  ASN173     -0.0877
    134  N         -9.4550    6.0130   33.8110 N.am  174  PRO174     -0.2716
    135  CA       -10.8950    6.0160   34.0860 C.3   174  PRO174      0.1536
    136  C        -11.7460    6.4340   32.8900 C.2   174  PRO174      0.2598
    137  O        -12.9190    6.0620   32.8090 O.2   174  PRO174     -0.2715
    138  CB       -11.0310    7.0290   35.2160 C.3   174  PRO174      0.0310
    139  CG        -9.7180    7.0020   35.8950 C.3   174  PRO174      0.0237
    140  CD        -8.6980    6.7820   34.8130 C.3   174  PRO174      0.0939
    141  N        -11.1600    7.1790   31.9640 N.am  175  ALA175     -0.1978
    142  CA       -11.9210    7.6350   30.8130 C.3   175  ALA175      0.1597
    143  C        -11.8720    6.6630   29.6350 C.2   175  ALA175      0.2287
    144  O        -12.6270    6.8280   28.6630 O.2   175  ALA175     -0.2864
    145  CB       -11.4220    9.0040   30.3730 C.3   175  ALA175      0.0319
    146  N         -8.3570    0.0080   30.6730 N.3   178  THR178     -0.1203
    147  CA        -6.9720   -0.2870   31.0480 C.3   178  THR178      0.1994
    148  C         -6.0970   -0.4150   29.8020 C.2   178  THR178      0.2617
    149  O         -6.5750   -0.7690   28.7210 O.2   178  THR178     -0.2717
    150  CB        -6.8280   -1.5680   31.8870 C.3   178  THR178      0.1784
    151  OG1       -7.2870   -2.7120   31.1150 O.3   178  THR178     -0.2211
    152  CG2       -7.6430   -1.4490   33.2060 C.3   178  THR178      0.0376
    153  N         -4.8270   -0.0720   29.9450 N.am  179  TRP179     -0.1975
    154  CA        -3.9010   -0.1710   28.8050 C.3   179  TRP179      0.1640
    155  C         -3.9450   -1.5680   28.1620 C.2   179  TRP179      0.2290
    156  O         -4.0550   -1.7030   26.9180 O.2   179  TRP179     -0.2864
    157  CB        -2.4690    0.1210   29.2560 C.3   179  TRP179      0.0576
    158  CG        -2.2240    1.5690   29.5350 C.ar  179  TRP179      0.0006
    159  CD1       -3.1370    2.5920   29.5390 C.ar  179  TRP179      0.0946
    160  CD2       -0.9680    2.1340   29.8790 C.ar  179  TRP179      0.0152
    161  NE1       -2.4940    3.7910   29.8510 N.ar  179  TRP179     -0.2442
    162  CE2       -1.1660    3.5220   30.0800 C.ar  179  TRP179      0.0810
    163  CE3        0.3140    1.5900   30.0520 C.ar  179  TRP179      0.0012
    164  CZ2       -0.1160    4.3810   30.4360 C.ar  179  TRP179      0.0191
    165  CZ3        1.3540    2.4390   30.4090 C.ar  179  TRP179      0.0001
    166  CH2        1.1370    3.8220   30.5730 C.ar  179  TRP179      0.0015
    167  N          3.1730    5.5260   28.0350 N.3   213  ASP213     -0.1225
    168  CA         3.9610    6.1250   29.1030 C.3   213  ASP213      0.1805
    169  C          3.0830    6.6900   30.1980 C.2   213  ASP213      0.2598
    170  O          2.0900    7.3650   29.9400 O.2   213  ASP213     -0.2718
    171  CB         4.8680    7.2520   28.5640 C.3   213  ASP213      0.1424
    172  CG         5.9070    6.7440   27.5740 C.2   213  ASP213      0.3668
    173  OD1        6.9050    6.1140   27.9910 O.co2 213  ASP213     -0.2456
    174  OD2        5.7370    6.9940   26.3650 O.co2 213  ASP213     -0.2456
    175  N          3.5010    6.4650   31.4320 N.am  214  ASP214     -0.1960
    176  CA         2.9800    7.1900   32.5780 C.3   214  ASP214      0.1840
    177  C          3.9240    8.3640   32.8400 C.2   214  ASP214      0.2621
    178  O          4.9280    8.1960   33.5040 O.2   214  ASP214     -0.2715
    179  CB         2.8980    6.2350   33.7700 C.3   214  ASP214      0.1450
    180  CG         2.6290    6.9410   35.0930 C.2   214  ASP214      0.3671
    181  OD1        2.1490    8.0790   35.1050 O.co2 214  ASP214     -0.2456
    182  OD2        2.8770    6.3230   36.1450 O.co2 214  ASP214     -0.2456
    183  N          3.6180    9.5320   32.2930 N.am  215  LYS215     -0.1977
    184  CA         4.5240   10.6680   32.4110 C.3   215  LYS215      0.1596
    185  C          4.8530   11.0090   33.8720 C.2   215  LYS215      0.2287
    186  O          6.0310   11.1880   34.2220 O.2   215  LYS215     -0.2864
    187  CB         3.9310   11.9030   31.7210 C.3   215  LYS215      0.0298
    188  CG         3.6940   11.7060   30.2440 C.3   215  LYS215      0.0038
    189  CD         5.0120   11.3740   29.5890 C.3   215  LYS215      0.0206
    190  CE         4.8520   11.3440   28.0900 C.3   215  LYS215      0.1093
    191  NZ         6.1450   11.6950   27.5260 N.3   215  LYS215     -0.1314
    192  N          5.1820    9.5350   36.5290 N.3   217  ASN217     -0.1240
    193  CA         6.1230    8.6900   37.2570 C.3   217  ASN217      0.1653
    194  C          7.2900    8.1960   36.3830 C.2   217  ASN217      0.2266
    195  O          8.1250    7.4080   36.8460 O.2   217  ASN217     -0.2867
    196  CB         5.3640    7.5070   37.8830 C.3   217  ASN217      0.1155
    197  CG         4.3610    7.9580   38.9400 C.2   217  ASN217      0.2627
    198  OD1        4.6890    8.7650   39.8150 O.2   217  ASN217     -0.2716
    199  ND2        3.1310    7.4780   38.8410 N.am  217  ASN217     -0.0877
@<TRIPOS>BOND
     1   174   172   ar
     2   156   155    2
     3   191   190    1
     4   172   173   ar
     5   172   171    1
     6   167   168    1
     7   190   189    1
     8   155   154    1
     9   171   168    1
    10   144   143    2
    11   149   148    2
    12   154   157    1
    13   154   153    1
    14   168   169    1
    15   157   158    1
    16   158   159   ar
    17   158   160   ar
    18   159   161   ar
    19   189   188    1
    20   143   142    1
    21   148   153   am
    22   148   147    1
    23   161   162   ar
    24   160   163   ar
    25   160   162   ar
    26   170   169    2
    27   163   165   ar
    28   162   164   ar
    29   133   131   am
    30   169   175   am
    31   188   187    1
    32   145   142    1
    33   165   166   ar
    34   164   166   ar
    35   146   147    1
    36   142   141    1
    37   131   130    1
    38   131   132    2
    39   147   150    1
    40   151   150    1
    41   130   127    1
    42   175   176    1
    43   187   184    1
    44   150   152    1
    45   141   136   am
    46   129   128    2
    47   183   184    1
    48   183   177   am
    49   184   185    1
    50   176   177    1
    51   176   179    1
    52   127   128    1
    53   127   126    1
    54    66    65    2
    55   137   136    2
    56   128   134   am
    57   177   178    2
    58   136   135    1
    59   126   117   am
    60   106   105    2
    61    63    64    1
    62    63    60    1
    63   107   108    1
    64   107   104    1
    65    65    64    1
    66    65    67   am
    67   179   180    1
    68   134   135    1
    69   134   140    1
    70   110   108   ar
    71   110   112   ar
    72   185   186    2
    73   105   104    1
    74   105   115   am
    75   117   116    1
    76   117   118    2
    77   135   138    1
    78   116   115    1
    79   116   119    1
    80   108   109   ar
    81    59    60    1
    82   112   113   ar
    83    60    61    1
    84   103   104    1
    85   103    99   am
    86   140   139    1
    87   101    98    1
    88   101   102    1
    89   180   181   ar
    90   180   182   ar
    91   120   119    1
    92   120   121    1
    93   109   111   ar
    94   138   139    1
    95   113   111   ar
    96   113   114    1
    97    98    99    1
    98    98    97    1
    99    99   100    2
   100    61    62    2
   101    93    92    2
   102   121   122    1
   103    34    33    2
   104    33    32    1
   105   194   195    2
   106   194   193    1
   107    30    28    1
   108   192   193    1
   109    97    92   am
   110    92    91    1
   111   193   196    1
   112   122   123    2
   113    23    22    2
   114    32    35    1
   115    32    31    1
   116    29    28    1
   117    28    27    2
   118    96    94    1
   119    80    81    2
   120    80    79    1
   121   196   197    1
   122    35    36    1
   123   124   123    1
   124    39    40    1
   125   123   125    1
   126    91    90    1
   127    91    94    1
   128    22    31   am
   129    22    21    1
   130    82    79    1
   131    82    83    1
   132    79    78    1
   133    94    95    1
   134    27    26    1
   135   199   197   am
   136    84    83   ar
   137    84    86   ar
   138    68    69    1
   139   197   198    2
   140    42    41    2
   141    36    37    2
   142    36    38   am
   143    69    70    1
   144    69    72    1
   145    24    21    1
   146    24    25    1
   147    83    85   ar
   148    40    41    1
   149    40    43    1
   150    86    88   ar
   151    21    20    1
   152    70    71    2
   153    73    72    1
   154    41    45   am
   155    26    25    1
   156    43    44    1
   157    85    87   ar
   158    88    87   ar
   159    88    89    1
   160    20    14   am
   161    45    46    1
   162    15    14    2
   163    14    13    1
   164    46    47    1
   165    46    49    1
   166    74    75    1
   167    47    48    2
   168    47    55   am
   169    77    76    2
   170    55    56    1
   171    53    51   ar
   172    53    54   ar
   173    51    50   ar
   174    56    57    1
   175    10     9    1
   176    76    75    1
   177    50    49    1
   178    50    52   ar
   179    54    52   ar
   180    16    13    1
   181    16    17    1
   182    13    12    1
   183    57    58    2
   184     7     8    1
   185     7     6    1
   186     9     8    2
   187     9    11    1
   188     4     3    2
   189     5     6    1
   190     5     2    1
   191    12     3   am
   192     3     2    1
   193    17    19   ar
   194    17    18   ar
   195     2     1    1
