@<TRIPOS>MOLECULE
tmp/4ps1C01.pdb
 85 81 0 0 0
SMALL
GASTEIGER

@<TRIPOS>ATOM
      1  N         -2.7710  -18.9690   40.4960 N.3   112  TYR112     -0.1241
      2  CA        -2.6820  -20.4050   40.2070 C.3   112  TYR112      0.1605
      3  C         -3.8830  -21.1690   40.7530 C.2   112  TYR112      0.2264
      4  O         -4.2930  -22.1840   40.1930 O.2   112  TYR112     -0.2867
      5  CB        -1.3880  -21.0120   40.7620 C.3   112  TYR112      0.0534
      6  CG        -1.2940  -22.4990   40.4090 C.ar  112  TYR112     -0.0201
      7  CD1       -1.0820  -22.9050   39.0880 C.ar  112  TYR112     -0.0009
      8  CD2       -1.4350  -23.4800   41.3830 C.ar  112  TYR112     -0.0009
      9  CE1       -1.0020  -24.2370   38.7500 C.ar  112  TYR112      0.0417
     10  CE2       -1.3470  -24.8280   41.0540 C.ar  112  TYR112      0.0417
     11  CZ        -1.1250  -25.1980   39.7360 C.ar  112  TYR112      0.1957
     12  OH        -1.0570  -26.5400   39.4010 O.3   112  TYR112     -0.2866
     13  N         -6.5980  -20.6680   37.8870 N.3   115  THR115     -0.1203
     14  CA        -6.3700  -21.3970   36.6370 C.3   115  THR115      0.1994
     15  C         -6.3860  -22.9070   36.8680 C.2   115  THR115      0.2618
     16  O         -6.8520  -23.6570   36.0120 O.2   115  THR115     -0.2717
     17  CB        -5.0040  -21.0090   35.9920 C.3   115  THR115      0.1784
     18  OG1       -3.9450  -21.2890   36.9290 O.3   115  THR115     -0.2211
     19  CG2       -4.9810  -19.5610   35.6340 C.3   115  THR115      0.0376
     20  N         -5.8800  -23.3720   38.0130 N.am  116  SER116     -0.1951
     21  CA        -5.7770  -24.8320   38.2020 C.3   116  SER116      0.1924
     22  C         -7.1450  -25.4900   38.4110 C.2   116  SER116      0.2314
     23  O         -7.2130  -26.7030   38.4820 O.2   116  SER116     -0.2863
     24  CB        -4.8510  -25.1910   39.3770 C.3   116  SER116      0.2116
     25  OG        -5.3720  -24.6670   40.5670 O.3   116  SER116     -0.2180
     26  N         -7.8120  -27.7660   34.9730 N.3   119  THR119     -0.1218
     27  CA        -6.8990  -28.7940   34.4360 C.3   119  THR119      0.1862
     28  C         -7.6870  -29.9340   33.8190 C.2   119  THR119      0.2287
     29  O         -8.9100  -30.0140   34.0060 O.2   119  THR119     -0.2866
     30  CB        -6.0070  -29.4040   35.5090 C.3   119  THR119      0.1770
     31  OG1       -6.8290  -29.9240   36.5530 O.3   119  THR119     -0.2211
     32  CG2       -5.0010  -28.3570   36.0680 C.3   119  THR119      0.0375
     33  N         -1.8080  -30.1110   32.8220 N.3   155  GLU155     -0.1245
     34  CA        -1.7780  -28.6650   32.6720 C.3   155  GLU155      0.1567
     35  C         -1.5000  -28.1970   31.2370 C.2   155  GLU155      0.2260
     36  O         -1.0380  -27.0830   31.0570 O.2   155  GLU155     -0.2867
     37  CB        -0.7280  -28.0700   33.6520 C.3   155  GLU155      0.0388
     38  CG        -1.0780  -28.4580   35.0680 C.3   155  GLU155      0.1160
     39  CD        -0.1170  -27.9160   36.0850 C.2   155  GLU155      0.3649
     40  OE1        0.4050  -26.7890   35.8990 O.co2 155  GLU155     -0.2457
     41  OE2        0.1490  -28.6580   37.0470 O.co2 155  GLU155     -0.2457
     42  N         -3.0840  -24.2800   28.1710 N.3   158  PHE158     -0.1241
     43  CA        -3.4040  -23.0320   28.8800 C.3   158  PHE158      0.1605
     44  C         -2.7200  -21.8690   28.2410 C.2   158  PHE158      0.2264
     45  O         -1.6270  -22.0150   27.7130 O.2   158  PHE158     -0.2867
     46  CB        -2.9790  -23.0600   30.3280 C.3   158  PHE158      0.0534
     47  CG        -3.9720  -23.6950   31.2650 C.ar  158  PHE158     -0.0203
     48  CD1       -3.9430  -25.0770   31.4780 C.ar  158  PHE158     -0.0042
     49  CD2       -4.9030  -22.9190   31.9820 C.ar  158  PHE158     -0.0042
     50  CE1       -4.8590  -25.6970   32.3680 C.ar  158  PHE158     -0.0003
     51  CE2       -5.8200  -23.5160   32.8600 C.ar  158  PHE158     -0.0003
     52  CZ        -5.7910  -24.9040   33.0750 C.ar  158  PHE158     -0.0000
     53  N         -2.0440  -17.9210   29.6530 N.3   160  LEU160     -0.1245
     54  CA        -2.2450  -16.9410   30.7060 C.3   160  LEU160      0.1561
     55  C         -1.7170  -15.5900   30.1660 C.2   160  LEU160      0.2260
     56  O         -0.4990  -15.4320   29.9680 O.2   160  LEU160     -0.2867
     57  CB        -1.4830  -17.3700   31.9580 C.3   160  LEU160      0.0270
     58  CG        -1.5560  -16.4050   33.1370 C.3   160  LEU160      0.0019
     59  CD1       -3.0060  -16.1970   33.5410 C.3   160  LEU160      0.0001
     60  CD2       -0.7880  -17.0240   34.3010 C.3   160  LEU160      0.0001
     61  N          2.1620  -16.2900   29.1590 N.3   226  THR226     -0.1203
     62  CA         2.8000  -17.5740   29.4710 C.3   226  THR226      0.1994
     63  C          1.8890  -18.6520   28.9070 C.2   226  THR226      0.2618
     64  O          0.6670  -18.4900   28.9500 O.2   226  THR226     -0.2717
     65  CB         2.9630  -17.7720   30.9940 C.3   226  THR226      0.1784
     66  OG1        3.7160  -16.6980   31.5640 O.3   226  THR226     -0.2211
     67  CG2        3.7500  -19.0020   31.2750 C.3   226  THR226      0.0376
     68  N          2.4320  -19.7450   28.3690 N.am  227  PHE227     -0.1961
     69  CA         1.4910  -20.6640   27.7380 C.3   227  PHE227      0.1771
     70  C          1.9800  -22.0830   27.7590 C.2   227  PHE227      0.2620
     71  O          3.1820  -22.3450   27.8140 O.2   227  PHE227     -0.2715
     72  CB         1.1620  -20.2240   26.2880 C.3   227  PHE227      0.0574
     73  CG         2.3140  -20.2690   25.3190 C.ar  227  PHE227     -0.0200
     74  CD1        3.1740  -19.1670   25.2070 C.ar  227  PHE227     -0.0042
     75  CD2        2.5410  -21.3950   24.5200 C.ar  227  PHE227     -0.0042
     76  CE1        4.2450  -19.1740   24.3080 C.ar  227  PHE227     -0.0003
     77  CE2        3.6090  -21.4220   23.6110 C.ar  227  PHE227     -0.0003
     78  CZ         4.4550  -20.3160   23.4760 C.ar  227  PHE227     -0.0000
     79  N          1.0150  -22.9870   27.8430 N.am  228  THR228     -0.1951
     80  CA         1.2500  -24.4240   27.5920 C.3   228  THR228      0.1897
     81  C          0.4120  -24.9110   26.3880 C.2   228  THR228      0.2313
     82  O          0.1440  -26.1230   26.2390 O.2   228  THR228     -0.2863
     83  CB         0.9370  -25.2730   28.8350 C.3   228  THR228      0.1794
     84  OG1       -0.4270  -25.0940   29.2550 O.3   228  THR228     -0.2208
     85  CG2        1.8480  -24.8550   29.9920 C.3   228  THR228      0.0378
@<TRIPOS>BOND
     1    78    77   ar
     2    78    76   ar
     3    77    75   ar
     4    76    74   ar
     5    75    73   ar
     6    74    73   ar
     7    73    72    1
     8    82    81    2
     9    72    69    1
    10    81    80    1
    11    80    79    1
    12    80    83    1
    13    45    44    2
    14    69    70    1
    15    69    68    1
    16    70    71    2
    17    70    79   am
    18    42    43    1
    19    44    43    1
    20    68    63   am
    21    83    84    1
    22    83    85    1
    23    43    46    1
    24    63    64    2
    25    63    62    1
    26    61    62    1
    27    62    65    1
    28    53    54    1
    29    56    55    2
    30    55    54    1
    31    46    47    1
    32    54    57    1
    33    65    67    1
    34    65    66    1
    35    36    35    2
    36    35    34    1
    37    47    48   ar
    38    47    49   ar
    39    48    50   ar
    40    57    58    1
    41    49    51   ar
    42    50    52   ar
    43    34    33    1
    44    34    37    1
    45    51    52   ar
    46    58    59    1
    47    58    60    1
    48    37    38    1
    49    28    29    2
    50    28    27    1
    51    27    26    1
    52    27    30    1
    53    38    39    1
    54    30    32    1
    55    30    31    1
    56    19    17    1
    57    40    39   ar
    58    17    14    1
    59    17    18    1
    60    16    15    2
    61    39    41   ar
    62    14    15    1
    63    14    13    1
    64    15    20   am
    65    20    21    1
    66    21    22    1
    67    21    24    1
    68    22    23    2
    69     9     7   ar
    70     9    11   ar
    71     7     6   ar
    72    24    25    1
    73    12    11    1
    74    11    10   ar
    75     4     3    2
    76     2     1    1
    77     2     3    1
    78     2     5    1
    79     6     5    1
    80     6     8   ar
    81    10     8   ar
