@<TRIPOS>MOLECULE
tmp/4ps3A00.pdb
 196 185 0 0 0
SMALL
GASTEIGER

@<TRIPOS>ATOM
      1  N         19.5160   64.7300   12.5030 N.3   568  MET568     -0.1245
      2  CA        19.7500   65.6140   13.6290 C.3   568  MET568      0.1570
      3  C         20.4320   66.8780   13.1300 C.2   568  MET568      0.2261
      4  O         21.0040   66.8950   12.0490 O.2   568  MET568     -0.2867
      5  CB        20.6140   64.9150   14.6650 C.3   568  MET568      0.0387
      6  CG        20.0970   65.0810   16.0840 C.3   568  MET568      0.0595
      7  SD        20.3250   63.6080   17.1010 S.3   568  MET568     -0.1393
      8  CE        19.5950   62.4050   15.9890 C.3   568  MET568      0.0692
      9  N         23.2960   68.5110   13.3540 N.3   570  SER570     -0.1217
     10  CA        24.6840   68.3220   13.7960 C.3   570  SER570      0.1889
     11  C         25.6320   68.9080   12.7680 C.2   570  SER570      0.2288
     12  O         25.2040   69.2950   11.6850 O.2   570  SER570     -0.2866
     13  CB        25.0000   66.8250   13.9180 C.3   570  SER570      0.2089
     14  OG        24.5730   66.2650   15.1450 O.3   570  SER570     -0.2183
     15  N         23.7340   62.6340   12.0840 N.3   574  PRO574     -0.2116
     16  CA        23.1750   61.4470   12.6510 C.3   574  PRO574      0.1372
     17  C         21.7010   61.3300   12.2760 C.2   574  PRO574      0.2244
     18  O         21.0470   62.3410   11.9660 O.2   574  PRO574     -0.2868
     19  CB        23.3270   61.6580   14.1630 C.3   574  PRO574      0.0268
     20  CG        23.7840   63.0430   14.3670 C.3   574  PRO574      0.0207
     21  CD        23.7340   63.7400   13.0530 C.3   574  PRO574      0.0892
     22  N         17.8570   60.2160   13.3990 N.3   576  TRP576     -0.1241
     23  CA        16.9810   60.0040   14.4990 C.3   576  TRP576      0.1605
     24  C         15.9480   59.1130   13.9000 C.2   576  TRP576      0.2264
     25  O         15.1400   59.5640   13.1020 O.2   576  TRP576     -0.2867
     26  CB        16.3900   61.3300   14.9390 C.3   576  TRP576      0.0550
     27  CG        15.4010   61.2340   15.9860 C.ar  576  TRP576      0.0003
     28  CD1       14.1290   60.7920   15.8600 C.ar  576  TRP576      0.0946
     29  CD2       15.5650   61.6320   17.3320 C.ar  576  TRP576      0.0152
     30  NE1       13.4870   60.8660   17.0600 N.ar  576  TRP576     -0.2442
     31  CE2       14.3450   61.3880   17.9860 C.ar  576  TRP576      0.0810
     32  CE3       16.6280   62.1570   18.0610 C.ar  576  TRP576      0.0012
     33  CZ2       14.1460   61.6600   19.3420 C.ar  576  TRP576      0.0191
     34  CZ3       16.4390   62.4200   19.4370 C.ar  576  TRP576      0.0001
     35  CH2       15.2020   62.1780   20.0500 C.ar  576  TRP576      0.0015
     36  N         12.9650   56.1110   14.6540 N.3   578  GLU578     -0.1245
     37  CA        12.1390   55.5280   15.7010 C.3   578  GLU578      0.1567
     38  C         11.3420   54.4060   15.1090 C.2   578  GLU578      0.2260
     39  O         10.8220   54.5600   14.0060 O.2   578  GLU578     -0.2867
     40  CB        11.1990   56.5740   16.2590 C.3   578  GLU578      0.0388
     41  CG        11.9040   57.8330   16.7640 C.3   578  GLU578      0.1160
     42  CD        10.9850   58.7830   17.5230 C.2   578  GLU578      0.3649
     43  OE1        9.8090   58.8860   17.1290 O.co2 578  GLU578     -0.2457
     44  OE2       11.4480   59.4420   18.4830 O.co2 578  GLU578     -0.2457
     45  N          7.5420   54.2430   21.1150 N.3   591  THR591     -0.1218
     46  CA         8.5040   53.6900   20.1520 C.3   591  THR591      0.1862
     47  C          9.8710   53.2700   20.7340 C.2   591  THR591      0.2287
     48  O         10.2290   53.5930   21.8790 O.2   591  THR591     -0.2866
     49  CB         8.7960   54.6810   18.9930 C.3   591  THR591      0.1770
     50  OG1        9.4930   55.8420   19.4800 O.3   591  THR591     -0.2211
     51  CG2        7.5100   55.0860   18.2950 C.3   591  THR591      0.0375
     52  N         13.5850   54.1630   19.9910 N.3   593  GLY593     -0.1225
     53  CA        14.2370   55.2770   19.3010 C.3   593  GLY593      0.1811
     54  C         15.7120   55.0160   19.1690 C.2   593  GLY593      0.2280
     55  O         16.3850   54.8670   20.1660 O.2   593  GLY593     -0.2866
     56  N         19.4180   56.2800   17.3320 N.3   595  ILE595     -0.1245
     57  CA        20.2000   57.2520   16.5740 C.3   595  ILE595      0.1561
     58  C         21.3600   56.5690   15.8930 C.2   595  ILE595      0.2260
     59  O         22.1280   55.9170   16.5620 O.2   595  ILE595     -0.2867
     60  CB        20.8340   58.2950   17.5030 C.3   595  ILE595      0.0252
     61  CG1       19.8090   59.2970   17.9710 C.3   595  ILE595      0.0019
     62  CG2       21.9430   59.0510   16.8010 C.3   595  ILE595      0.0019
     63  CD1       20.3240   60.1690   19.0960 C.3   595  ILE595      0.0001
     64  N         24.9800   57.2320   13.8430 N.3   597  LYS597     -0.1245
     65  CA        25.8890   58.3320   13.6920 C.3   597  LYS597      0.1561
     66  C         27.2030   57.9080   13.0840 C.2   597  LYS597      0.2260
     67  O         27.8340   56.9530   13.5370 O.2   597  LYS597     -0.2867
     68  CB        26.1210   58.9540   15.0530 C.3   597  LYS597      0.0271
     69  CG        27.3520   59.8230   15.1050 C.3   597  LYS597      0.0035
     70  CD        27.2260   60.8560   16.1900 C.3   597  LYS597      0.0206
     71  CE        28.5260   61.6280   16.3520 C.3   597  LYS597      0.1093
     72  NZ        28.4560   62.6420   17.4570 N.3   597  LYS597     -0.1314
     73  N         32.8780   55.3980   18.1930 N.3   602  LEU602     -0.1245
     74  CA        32.0020   54.9830   19.2890 C.3   602  LEU602      0.1561
     75  C         32.5650   53.8850   20.1830 C.2   602  LEU602      0.2260
     76  O         32.0510   53.6360   21.2730 O.2   602  LEU602     -0.2867
     77  CB        30.6500   54.5240   18.7190 C.3   602  LEU602      0.0270
     78  CG        29.4230   55.4590   18.6980 C.3   602  LEU602      0.0019
     79  CD1       29.6760   56.8710   19.1970 C.3   602  LEU602      0.0001
     80  CD2       28.8470   55.4850   17.2930 C.3   602  LEU602      0.0001
     81  N         33.0390   55.6100   23.3500 N.3   605  ASP605     -0.1239
     82  CA        31.7870   55.7330   24.0660 C.3   605  ASP605      0.1674
     83  C         31.3770   54.4040   24.7360 C.2   605  ASP605      0.2266
     84  O         31.1230   54.3660   25.9550 O.2   605  ASP605     -0.2867
     85  CB        30.7220   56.2470   23.1150 C.3   605  ASP605      0.1410
     86  CG        31.0540   57.6320   22.5740 C.2   605  ASP605      0.3668
     87  OD1       32.0720   57.7650   21.8440 O.co2 605  ASP605     -0.2456
     88  OD2       30.3010   58.5870   22.8970 O.co2 605  ASP605     -0.2456
     89  N         22.8970   54.9160   28.7290 N.3   631  TYR631     -0.1241
     90  CA        22.1160   54.4460   27.5920 C.3   631  TYR631      0.1605
     91  C         22.8970   53.4950   26.7140 C.2   631  TYR631      0.2264
     92  O         24.1160   53.4800   26.7060 O.2   631  TYR631     -0.2867
     93  CB        21.7030   55.6560   26.7390 C.3   631  TYR631      0.0534
     94  CG        22.8980   56.4780   26.3160 C.ar  631  TYR631     -0.0201
     95  CD1       23.6300   56.1530   25.1870 C.ar  631  TYR631     -0.0009
     96  CD2       23.3130   57.5580   27.0770 C.ar  631  TYR631     -0.0009
     97  CE1       24.7360   56.8890   24.8270 C.ar  631  TYR631      0.0417
     98  CE2       24.4140   58.2980   26.7250 C.ar  631  TYR631      0.0417
     99  CZ        25.1230   57.9630   25.6000 C.ar  631  TYR631      0.1957
    100  OH        26.2080   58.7340   25.2620 O.3   631  TYR631     -0.2866
    101  N         22.8630   54.2000   18.8020 N.3   643  ILE643     -0.1231
    102  CA        22.6950   54.8240   20.1060 C.3   643  ILE643      0.1692
    103  C         21.2410   54.8250   20.5840 C.2   643  ILE643      0.2592
    104  O         20.3400   55.2620   19.8610 O.2   643  ILE643     -0.2718
    105  CB        23.1870   56.2730   20.0510 C.3   643  ILE643      0.0266
    106  CG1       24.5860   56.3450   19.3850 C.3   643  ILE643      0.0019
    107  CG2       23.1910   56.8380   21.4520 C.3   643  ILE643      0.0020
    108  CD1       25.1840   57.7330   19.2180 C.3   643  ILE643      0.0001
    109  N         21.0180   54.3500   21.8030 N.am  644  GLU644     -0.1966
    110  CA        19.6720   54.3350   22.3730 C.3   644  GLU644      0.1733
    111  C         19.2200   55.7510   22.6090 C.2   644  GLU644      0.2616
    112  O         19.9110   56.5140   23.2850 O.2   644  GLU644     -0.2715
    113  CB        19.6830   53.5910   23.7010 C.3   644  GLU644      0.0429
    114  CG        18.3390   53.3900   24.3590 C.3   644  GLU644      0.1163
    115  CD        18.4510   52.7970   25.7640 C.2   644  GLU644      0.3649
    116  OE1       17.4490   52.9260   26.5060 O.co2 644  GLU644     -0.2457
    117  OE2       19.5110   52.2210   26.1570 O.co2 644  GLU644     -0.2457
    118  N         18.0720   56.1230   22.0810 N.am  645  ILE645     -0.1963
    119  CA        17.5020   57.3920   22.4790 C.3   645  ILE645      0.1727
    120  C         16.7970   57.2030   23.8210 C.2   645  ILE645      0.2616
    121  O         16.1360   56.1940   24.0520 O.2   645  ILE645     -0.2715
    122  CB        16.5230   57.9110   21.4430 C.3   645  ILE645      0.0290
    123  CG1       17.2380   58.0410   20.1050 C.3   645  ILE645      0.0022
    124  CG2       16.0080   59.2720   21.8660 C.3   645  ILE645      0.0023
    125  CD1       16.3920   58.5980   18.9810 C.3   645  ILE645      0.0001
    126  N         16.9530   58.1630   24.7120 N.am  646  VAL646     -0.1963
    127  CA        16.2990   58.1100   25.9930 C.3   646  VAL646      0.1727
    128  C         14.9990   58.9020   25.9420 C.2   646  VAL646      0.2616
    129  O         14.9850   60.0370   25.5130 O.2   646  VAL646     -0.2715
    130  CB        17.2290   58.6640   27.0750 C.3   646  VAL646      0.0290
    131  CG1       16.4720   58.9490   28.3710 C.3   646  VAL646      0.0023
    132  CG2       18.3590   57.6820   27.3030 C.3   646  VAL646      0.0023
    133  N         13.9180   58.2950   26.4110 N.am  647  LYS647     -0.1963
    134  CA        12.5840   58.8780   26.3210 C.3   647  LYS647      0.1728
    135  C         12.4890   60.1110   27.1910 C.2   647  LYS647      0.2616
    136  O         13.1100   60.1420   28.2460 O.2   647  LYS647     -0.2715
    137  CB        11.5300   57.8550   26.7690 C.3   647  LYS647      0.0311
    138  CG        11.4790   56.5710   25.9190 C.3   647  LYS647      0.0038
    139  CD        10.6660   56.8020   24.6520 C.3   647  LYS647      0.0206
    140  CE        10.6690   55.6080   23.7070 C.3   647  LYS647      0.1093
    141  NZ         9.8700   55.9170   22.4780 N.3   647  LYS647     -0.1314
    142  N         11.7420   61.1160   26.7180 N.am  648  ASP648     -0.1957
    143  CA        11.3760   62.3380   27.4670 C.3   648  ASP648      0.1840
    144  C         12.5180   63.1110   28.1050 C.2   648  ASP648      0.2622
    145  O         12.5580   63.2800   29.3210 O.2   648  ASP648     -0.2715
    146  CB        10.3450   62.0040   28.5570 C.3   648  ASP648      0.1450
    147  CG         9.1710   61.2220   28.0230 C.2   648  ASP648      0.3671
    148  OD1        8.6800   61.5320   26.9020 O.co2 648  ASP648     -0.2456
    149  OD2        8.7520   60.2800   28.7300 O.co2 648  ASP648     -0.2456
    150  N         13.4310   63.6020   27.2830 N.am  649  ALA649     -0.1963
    151  CA        14.6360   64.2710   27.7800 C.3   649  ALA649      0.1728
    152  C         15.1310   65.3300   26.8050 C.2   649  ALA649      0.2616
    153  O         15.0550   65.1320   25.5990 O.2   649  ALA649     -0.2715
    154  CB        15.7240   63.2400   28.0120 C.3   649  ALA649      0.0334
    155  N         15.6240   66.4550   27.3180 N.am  650  THR650     -0.1951
    156  CA        16.2600   67.4770   26.4580 C.3   650  THR650      0.1897
    157  C         17.6190   67.9050   27.0180 C.2   650  THR650      0.2313
    158  O         18.1160   67.3610   28.0070 O.2   650  THR650     -0.2863
    159  CB        15.3570   68.7200   26.1310 C.3   650  THR650      0.1794
    160  OG1       15.6420   69.8170   27.0100 O.3   650  THR650     -0.2208
    161  CG2       13.8820   68.3680   26.2000 C.3   650  THR650      0.0378
    162  N         22.1490   66.2220   29.3300 N.3   717  MET717     -0.1245
    163  CA        20.7400   66.1280   29.1830 C.3   717  MET717      0.1570
    164  C         20.1050   65.7960   30.5210 C.2   717  MET717      0.2261
    165  O         20.7660   65.2800   31.4340 O.2   717  MET717     -0.2867
    166  CB        20.4300   65.0560   28.1710 C.3   717  MET717      0.0387
    167  CG        21.1150   65.2660   26.8480 C.3   717  MET717      0.0595
    168  SD        20.3840   64.2290   25.5790 S.3   717  MET717     -0.1393
    169  CE        18.8730   65.1190   25.2630 C.3   717  MET717      0.0692
    170  N         21.9240   63.3680   32.7890 N.3   725  PHE725     -0.1241
    171  CA        22.9590   62.4840   32.2330 C.3   725  PHE725      0.1605
    172  C         23.7240   63.1580   31.1230 C.2   725  PHE725      0.2264
    173  O         23.1970   64.0270   30.4200 O.2   725  PHE725     -0.2867
    174  CB        22.3630   61.1870   31.6790 C.3   725  PHE725      0.0534
    175  CG        21.3510   61.4010   30.5820 C.ar  725  PHE725     -0.0203
    176  CD1       20.1100   61.9980   30.8470 C.ar  725  PHE725     -0.0042
    177  CD2       21.6080   61.0050   29.2910 C.ar  725  PHE725     -0.0042
    178  CE1       19.1550   62.1760   29.8400 C.ar  725  PHE725     -0.0003
    179  CE2       20.6560   61.1710   28.2810 C.ar  725  PHE725     -0.0003
    180  CZ        19.4300   61.7570   28.5540 C.ar  725  PHE725     -0.0000
    181  N         26.1580   62.9230   27.5930 N.3   727  ILE727     -0.1231
    182  CA        26.1670   62.2110   26.3150 C.3   727  ILE727      0.1692
    183  C         27.4280   62.4990   25.5120 C.2   727  ILE727      0.2592
    184  O         28.1920   63.3630   25.8440 O.2   727  ILE727     -0.2718
    185  CB        24.9460   62.6250   25.4600 C.3   727  ILE727      0.0266
    186  CG1       24.8920   64.1560   25.2030 C.3   727  ILE727      0.0019
    187  CG2       23.6830   62.1860   26.1570 C.3   727  ILE727      0.0020
    188  CD1       23.9720   64.5790   24.0780 C.3   727  ILE727      0.0001
    189  N         27.6310   61.7490   24.4520 N.am  728  ASP728     -0.1974
    190  CA        28.6110   62.0700   23.4330 C.3   728  ASP728      0.1709
    191  C         30.0360   62.1250   23.9630 C.2   728  ASP728      0.2293
    192  O         30.6760   63.1480   23.8970 O.2   728  ASP728     -0.2864
    193  CB        28.2040   63.3710   22.7010 C.3   728  ASP728      0.1436
    194  CG        28.6410   63.3850   21.2010 C.2   728  ASP728      0.3671
    195  OD1       29.2110   62.3720   20.7280 O.co2 728  ASP728     -0.2456
    196  OD2       28.4140   64.3910   20.4820 O.co2 728  ASP728     -0.2456
@<TRIPOS>BOND
     1    12    11    2
     2    18    17    2
     3     4     3    2
     4    15    16    1
     5    15    21    1
     6    17    16    1
     7     1     2    1
     8    16    19    1
     9    11    10    1
    10    21    20    1
    11    66    67    2
    12    66    65    1
    13    25    24    2
    14     3     2    1
    15     9    10    1
    16    22    23    1
    17     2     5    1
    18    65    64    1
    19    65    68    1
    20    10    13    1
    21    24    23    1
    22    13    14    1
    23    39    38    2
    24    19    20    1
    25    23    26    1
    26    36    37    1
    27     5     6    1
    28    26    27    1
    29    68    69    1
    30    69    70    1
    31    38    37    1
    32    37    40    1
    33    28    27   ar
    34    28    30   ar
    35    58    59    2
    36    58    57    1
    37    27    29   ar
    38     8     7    1
    39     6     7    1
    40    70    71    1
    41    40    41    1
    42    71    72    1
    43    57    56    1
    44    57    60    1
    45    41    42    1
    46    62    60    1
    47    30    31   ar
    48    43    42   ar
    49    80    78    1
    50    29    31   ar
    51    29    32   ar
    52    60    61    1
    53    42    44   ar
    54    61    63    1
    55    31    33   ar
    56    32    34   ar
    57    73    74    1
    58    51    49    1
    59    78    77    1
    60    78    79    1
    61    77    74    1
    62   101   102    1
    63   125   123    1
    64    49    50    1
    65    49    46    1
    66    54    53    1
    67    54    55    2
    68   108   106    1
    69    74    75    1
    70    53    52    1
    71    33    35   ar
    72   106   105    1
    73    34    35   ar
    74   104   103    2
    75   105   102    1
    76   105   107    1
    77   123   122    1
    78   102   103    1
    79    46    47    1
    80    46    45    1
    81    75    76    2
    82   196   194   ar
    83   103   109   am
    84   195   194   ar
    85    47    48    2
    86   194   193    1
    87   122   124    1
    88   122   119    1
    89   109   110    1
    90    87    86   ar
    91   118   119    1
    92   118   111   am
    93   110   111    1
    94   110   113    1
    95   141   140    1
    96   119   120    1
    97    86    88   ar
    98    86    85    1
    99   111   112    2
   100   193   190    1
   101    85    82    1
   102    81    82    1
   103   190   191    1
   104   190   189    1
   105   113   114    1
   106   140   139    1
   107   120   121    2
   108   120   126   am
   109   192   191    2
   110    82    83    1
   111   188   186    1
   112   114   115    1
   113   189   183   am
   114   139   138    1
   115   126   127    1
   116    83    84    2
   117    97    95   ar
   118    97    99   ar
   119    95    94   ar
   120   186   185    1
   121   100    99    1
   122   169   168    1
   123   185   187    1
   124   185   182    1
   125   183   184    2
   126   183   182    1
   127   129   128    2
   128   168   167    1
   129   153   152    2
   130    99    98   ar
   131   115   117   ar
   132   115   116   ar
   133   138   137    1
   134   128   127    1
   135   128   133   am
   136   127   130    1
   137   159   161    1
   138   159   156    1
   139   159   160    1
   140   182   181    1
   141    94    93    1
   142    94    96   ar
   143   134   133    1
   144   134   137    1
   145   134   135    1
   146   156   157    1
   147   156   155    1
   148    92    91    2
   149    91    90    1
   150   142   135   am
   151   142   143    1
   152    98    96   ar
   153    93    90    1
   154   152   155   am
   155   152   151    1
   156   167   166    1
   157   148   147   ar
   158   157   158    2
   159   130   132    1
   160   130   131    1
   161   135   136    2
   162   150   151    1
   163   150   144   am
   164   143   144    1
   165   143   146    1
   166    90    89    1
   167   151   154    1
   168   147   146    1
   169   147   149   ar
   170   144   145    2
   171   166   163    1
   172   179   180   ar
   173   179   177   ar
   174   180   178   ar
   175   163   162    1
   176   163   164    1
   177   177   175   ar
   178   178   176   ar
   179   173   172    2
   180   164   165    2
   181   175   176   ar
   182   175   174    1
   183   172   171    1
   184   174   171    1
   185   171   170    1
