@<TRIPOS>MOLECULE
tmp/4ps7A00.pdb
 156 149 0 0 0
SMALL
GASTEIGER

@<TRIPOS>ATOM
      1  N         19.3230   64.8220   12.6580 N.3   568  MET568     -0.1245
      2  CA        19.6020   65.6840   13.8100 C.3   568  MET568      0.1570
      3  C         20.3760   66.9100   13.3510 C.2   568  MET568      0.2261
      4  O         20.8670   66.9560   12.2230 O.2   568  MET568     -0.2867
      5  CB        20.4360   64.9230   14.8380 C.3   568  MET568      0.0387
      6  CG        19.9310   65.0020   16.2750 C.3   568  MET568      0.0595
      7  SD        20.0730   63.4040   17.1100 S.3   568  MET568     -0.1393
      8  CE        18.9650   62.5010   16.0560 C.3   568  MET568      0.0692
      9  N         17.7190   60.0060   13.3010 N.3   576  TRP576     -0.1241
     10  CA        16.8630   59.8160   14.4590 C.3   576  TRP576      0.1605
     11  C         15.7910   58.8950   13.9490 C.2   576  TRP576      0.2264
     12  O         14.9470   59.3010   13.1560 O.2   576  TRP576     -0.2867
     13  CB        16.2590   61.1460   14.9040 C.3   576  TRP576      0.0550
     14  CG        15.1510   61.0650   15.8870 C.ar  576  TRP576      0.0003
     15  CD1       13.8770   60.6300   15.6500 C.ar  576  TRP576      0.0946
     16  CD2       15.1840   61.4760   17.2460 C.ar  576  TRP576      0.0152
     17  NE1       13.1280   60.7310   16.7740 N.ar  576  TRP576     -0.2442
     18  CE2       13.9030   61.2460   17.7790 C.ar  576  TRP576      0.0810
     19  CE3       16.1690   62.0080   18.0710 C.ar  576  TRP576      0.0012
     20  CZ2       13.5800   61.5230   19.1060 C.ar  576  TRP576      0.0191
     21  CZ3       15.8520   62.2820   19.3920 C.ar  576  TRP576      0.0001
     22  CH2       14.5630   62.0430   19.8960 C.ar  576  TRP576      0.0015
     23  N         19.3560   56.1180   17.3450 N.3   595  ILE595     -0.1245
     24  CA        20.1390   57.1340   16.6790 C.3   595  ILE595      0.1561
     25  C         21.2810   56.4480   15.9180 C.2   595  ILE595      0.2260
     26  O         21.9790   55.6210   16.4780 O.2   595  ILE595     -0.2867
     27  CB        20.7450   58.0930   17.7200 C.3   595  ILE595      0.0252
     28  CG1       19.7900   59.2260   18.0760 C.3   595  ILE595      0.0019
     29  CG2       22.0100   58.7350   17.1980 C.3   595  ILE595      0.0019
     30  CD1       20.2990   60.0970   19.2080 C.3   595  ILE595      0.0001
     31  N         24.8960   57.4090   14.0390 N.3   597  LYS597     -0.1245
     32  CA        25.8390   58.5130   13.9400 C.3   597  LYS597      0.1561
     33  C         27.1490   58.0570   13.3070 C.2   597  LYS597      0.2260
     34  O         27.7190   57.0320   13.7040 O.2   597  LYS597     -0.2867
     35  CB        26.0980   59.0480   15.3410 C.3   597  LYS597      0.0271
     36  CG        27.1160   60.1890   15.4750 C.3   597  LYS597      0.0035
     37  CD        27.3310   60.5350   16.9560 C.3   597  LYS597      0.0206
     38  CE        28.7950   60.4650   17.4040 C.3   597  LYS597      0.1093
     39  NZ        29.5760   61.7110   17.1320 N.3   597  LYS597     -0.1314
     40  N         32.7690   55.2130   18.1100 N.3   602  LEU602     -0.1245
     41  CA        31.8440   54.8300   19.1850 C.3   602  LEU602      0.1561
     42  C         32.3780   53.7670   20.1190 C.2   602  LEU602      0.2260
     43  O         31.7090   53.4040   21.0550 O.2   602  LEU602     -0.2867
     44  CB        30.5000   54.3590   18.6230 C.3   602  LEU602      0.0270
     45  CG        29.3270   55.3290   18.6650 C.3   602  LEU602      0.0019
     46  CD1       29.7570   56.7650   18.7780 C.3   602  LEU602      0.0001
     47  CD2       28.4660   55.1270   17.4380 C.3   602  LEU602      0.0001
     48  N         33.0050   55.4940   23.4490 N.3   605  ASP605     -0.1239
     49  CA        31.7770   55.6740   24.1780 C.3   605  ASP605      0.1674
     50  C         31.3440   54.4080   24.8920 C.2   605  ASP605      0.2266
     51  O         30.9790   54.4800   26.0700 O.2   605  ASP605     -0.2867
     52  CB        30.6740   56.1790   23.2580 C.3   605  ASP605      0.1410
     53  CG        31.0180   57.5290   22.6200 C.2   605  ASP605      0.3668
     54  OD1       31.9970   57.5980   21.8330 O.co2 605  ASP605     -0.2456
     55  OD2       30.3130   58.5130   22.9160 O.co2 605  ASP605     -0.2456
     56  N         22.8080   54.9820   28.6560 N.3   631  TYR631     -0.1241
     57  CA        22.0050   54.5830   27.4990 C.3   631  TYR631      0.1605
     58  C         22.7220   53.5430   26.6700 C.2   631  TYR631      0.2264
     59  O         23.9330   53.4620   26.6920 O.2   631  TYR631     -0.2867
     60  CB        21.7270   55.8340   26.6080 C.3   631  TYR631      0.0534
     61  CG        22.9810   56.6410   26.2910 C.ar  631  TYR631     -0.0201
     62  CD1       23.7800   56.3480   25.1920 C.ar  631  TYR631     -0.0009
     63  CD2       23.3950   57.6570   27.1380 C.ar  631  TYR631     -0.0009
     64  CE1       24.9520   57.0510   24.9510 C.ar  631  TYR631      0.0417
     65  CE2       24.5490   58.3800   26.8930 C.ar  631  TYR631      0.0417
     66  CZ        25.3210   58.0810   25.8030 C.ar  631  TYR631      0.1957
     67  OH        26.4520   58.8280   25.6050 O.3   631  TYR631     -0.2866
     68  N         22.9120   54.3610   18.7790 N.3   643  ILE643     -0.1231
     69  CA        22.6800   54.8820   20.1360 C.3   643  ILE643      0.1692
     70  C         21.2040   54.8400   20.6110 C.2   643  ILE643      0.2592
     71  O         20.2830   55.1600   19.8670 O.2   643  ILE643     -0.2718
     72  CB        23.1330   56.3340   20.2020 C.3   643  ILE643      0.0266
     73  CG1       24.5880   56.4620   19.7390 C.3   643  ILE643      0.0019
     74  CG2       22.9680   56.8740   21.6150 C.3   643  ILE643      0.0020
     75  CD1       24.9500   57.8680   19.2890 C.3   643  ILE643      0.0001
     76  N         20.9780   54.4700   21.8630 N.am  644  GLU644     -0.1966
     77  CA        19.6060   54.4200   22.3890 C.3   644  GLU644      0.1733
     78  C         19.0790   55.8200   22.6270 C.2   644  GLU644      0.2616
     79  O         19.7040   56.5740   23.3620 O.2   644  GLU644     -0.2715
     80  CB        19.5950   53.6700   23.7150 C.3   644  GLU644      0.0429
     81  CG        18.2350   53.4710   24.3640 C.3   644  GLU644      0.1163
     82  CD        18.3580   53.1130   25.8490 C.2   644  GLU644      0.3649
     83  OE1       17.3790   53.2420   26.6090 O.co2 644  GLU644     -0.2457
     84  OE2       19.4490   52.7510   26.2920 O.co2 644  GLU644     -0.2457
     85  N         17.9520   56.1780   22.0240 N.am  645  ILE645     -0.1963
     86  CA        17.2880   57.4390   22.3750 C.3   645  ILE645      0.1727
     87  C         16.5640   57.3300   23.7210 C.2   645  ILE645      0.2616
     88  O         15.6150   56.5570   23.8630 O.2   645  ILE645     -0.2715
     89  CB        16.2450   57.8540   21.3250 C.3   645  ILE645      0.0290
     90  CG1       16.9400   58.2450   20.0240 C.3   645  ILE645      0.0022
     91  CG2       15.4080   59.0070   21.8370 C.3   645  ILE645      0.0023
     92  CD1       15.9960   58.3880   18.8560 C.3   645  ILE645      0.0001
     93  N         17.0070   58.1150   24.6930 N.am  646  VAL646     -0.1963
     94  CA        16.3250   58.2210   25.9730 C.3   646  VAL646      0.1727
     95  C         15.0680   59.0590   25.8230 C.2   646  VAL646      0.2616
     96  O         15.1050   60.1290   25.2290 O.2   646  VAL646     -0.2715
     97  CB        17.2210   58.8550   27.0350 C.3   646  VAL646      0.0290
     98  CG1       16.4340   59.0890   28.3200 C.3   646  VAL646      0.0023
     99  CG2       18.4490   57.9790   27.2760 C.3   646  VAL646      0.0023
    100  N         13.9550   58.5790   26.3690 N.am  647  LYS647     -0.1963
    101  CA        12.6570   59.2000   26.1140 C.3   647  LYS647      0.1728
    102  C         12.3940   60.3200   27.1180 C.2   647  LYS647      0.2616
    103  O         12.8370   60.2440   28.2640 O.2   647  LYS647     -0.2715
    104  CB        11.5430   58.1470   26.1460 C.3   647  LYS647      0.0311
    105  CG        11.6000   57.1160   25.0110 C.3   647  LYS647      0.0038
    106  CD        11.2720   57.7350   23.6440 C.3   647  LYS647      0.0206
    107  CE        10.8970   56.6790   22.5980 C.3   647  LYS647      0.1093
    108  NZ        10.4760   57.2720   21.2880 N.3   647  LYS647     -0.1314
    109  N         11.7110   61.3690   26.6590 N.am  648  ASP648     -0.1957
    110  CA        11.3100   62.4990   27.5080 C.3   648  ASP648      0.1840
    111  C         12.4900   63.2700   28.0600 C.2   648  ASP648      0.2621
    112  O         12.5640   63.4930   29.2700 O.2   648  ASP648     -0.2715
    113  CB        10.4310   62.0450   28.6960 C.3   648  ASP648      0.1450
    114  CG         9.1280   61.3960   28.2650 C.2   648  ASP648      0.3671
    115  OD1        8.6680   61.6000   27.1170 O.co2 648  ASP648     -0.2456
    116  OD2        8.5500   60.6870   29.1140 O.co2 648  ASP648     -0.2456
    117  N         13.4010   63.6780   27.1840 N.am  649  ALA649     -0.1977
    118  CA        14.6260   64.3600   27.6140 C.3   649  ALA649      0.1597
    119  C         15.0740   65.4910   26.6710 C.2   649  ALA649      0.2287
    120  O         14.8360   65.4580   25.4580 O.2   649  ALA649     -0.2864
    121  CB        15.7410   63.3480   27.7670 C.3   649  ALA649      0.0319
    122  N         22.3570   66.2340   29.4560 N.3   717  MET717     -0.1245
    123  CA        20.9240   66.1040   29.2730 C.3   717  MET717      0.1570
    124  C         20.1670   65.8540   30.5780 C.2   717  MET717      0.2261
    125  O         20.7560   65.4150   31.5830 O.2   717  MET717     -0.2867
    126  CB        20.6510   64.9840   28.2770 C.3   717  MET717      0.0387
    127  CG        21.1490   65.3050   26.8690 C.3   717  MET717      0.0595
    128  SD        20.3080   64.3380   25.5970 S.3   717  MET717     -0.1393
    129  CE        18.7030   65.1090   25.5540 C.3   717  MET717      0.0692
    130  N         21.9320   63.3130   32.6850 N.3   725  PHE725     -0.1241
    131  CA        22.9370   62.4260   32.0850 C.3   725  PHE725      0.1605
    132  C         23.8200   63.0700   31.0230 C.2   725  PHE725      0.2264
    133  O         23.3170   63.7240   30.1290 O.2   725  PHE725     -0.2867
    134  CB        22.2850   61.1370   31.5220 C.3   725  PHE725      0.0534
    135  CG        21.2780   61.3560   30.3960 C.ar  725  PHE725     -0.0203
    136  CD1       19.9920   61.8150   30.6530 C.ar  725  PHE725     -0.0042
    137  CD2       21.6000   61.0200   29.0770 C.ar  725  PHE725     -0.0042
    138  CE1       19.0620   61.9770   29.6200 C.ar  725  PHE725     -0.0003
    139  CE2       20.6780   61.1770   28.0390 C.ar  725  PHE725     -0.0003
    140  CZ        19.4060   61.6510   28.3080 C.ar  725  PHE725     -0.0000
    141  N         26.1750   62.9170   27.6620 N.3   727  ILE727     -0.1231
    142  CA        26.2060   62.1150   26.4540 C.3   727  ILE727      0.1692
    143  C         27.5150   62.3530   25.7150 C.2   727  ILE727      0.2592
    144  O         28.4030   62.9860   26.2400 O.2   727  ILE727     -0.2718
    145  CB        25.0040   62.4200   25.5590 C.3   727  ILE727      0.0266
    146  CG1       24.9870   63.9010   25.0930 C.3   727  ILE727      0.0019
    147  CG2       23.7400   62.0660   26.3050 C.3   727  ILE727      0.0020
    148  CD1       23.9550   64.1970   24.0300 C.3   727  ILE727      0.0001
    149  N         27.6470   61.7600   24.5330 N.am  728  ASP728     -0.1974
    150  CA        28.7060   62.0640   23.5440 C.3   728  ASP728      0.1709
    151  C         30.1440   62.0520   24.0520 C.2   728  ASP728      0.2293
    152  O         30.8850   62.9950   23.8660 O.2   728  ASP728     -0.2864
    153  CB        28.4060   63.3670   22.7850 C.3   728  ASP728      0.1436
    154  CG        28.9510   63.3330   21.3580 C.2   728  ASP728      0.3671
    155  OD1       29.5960   62.3190   20.9940 O.co2 728  ASP728     -0.2456
    156  OD2       28.7450   64.2920   20.5920 O.co2 728  ASP728     -0.2456
@<TRIPOS>BOND
     1     4     3    2
     2     1     2    1
     3    12    11    2
     4     9    10    1
     5    33    34    2
     6    33    32    1
     7     3     2    1
     8     2     5    1
     9    32    31    1
    10    32    35    1
    11    11    10    1
    12    10    13    1
    13     5     6    1
    14    13    14    1
    15    35    36    1
    16    36    37    1
    17    15    14   ar
    18    15    17   ar
    19    14    16   ar
    20    25    26    2
    21    25    24    1
    22     8     7    1
    23     6     7    1
    24    24    23    1
    25    24    27    1
    26    17    18   ar
    27    37    38    1
    28    39    38    1
    29    29    27    1
    30    16    18   ar
    31    16    19   ar
    32    47    45    1
    33    27    28    1
    34    18    20   ar
    35    19    21   ar
    36    28    30    1
    37    40    41    1
    38    44    45    1
    39    44    41    1
    40    45    46    1
    41    68    69    1
    42    92    90    1
    43    20    22   ar
    44    41    42    1
    45    75    73    1
    46    21    22   ar
    47    73    72    1
    48    71    70    2
    49    90    89    1
    50    42    43    2
    51    69    72    1
    52    69    70    1
    53    72    74    1
    54   156   154   ar
    55    70    76   am
    56   155   154   ar
    57   108   107    1
    58    89    91    1
    59    89    86    1
    60   154   153    1
    61    54    53   ar
    62    76    77    1
    63    85    86    1
    64    85    78   am
    65    86    87    1
    66    77    78    1
    67    77    80    1
    68   107   106    1
    69    53    55   ar
    70    53    52    1
    71    78    79    2
    72   153   150    1
    73    52    49    1
    74    48    49    1
    75   150   151    1
    76   150   149    1
    77   106   105    1
    78    80    81    1
    79    87    88    2
    80    87    93   am
    81   152   151    2
    82   148   146    1
    83    49    50    1
    84    81    82    1
    85   149   143   am
    86    93    94    1
    87    50    51    2
    88    64    62   ar
    89    64    66   ar
    90   105   104    1
    91   146   145    1
    92    62    61   ar
    93    96    95    2
    94   120   119    2
    95   129   128    1
    96   145   147    1
    97   145   142    1
    98   128   127    1
    99    67    66    1
   100   143   144    2
   101   143   142    1
   102    66    65   ar
   103    95    94    1
   104    95   100   am
   105    82    84   ar
   106    82    83   ar
   107    94    97    1
   108   101   104    1
   109   101   100    1
   110   101   102    1
   111    61    60    1
   112    61    63   ar
   113   142   141    1
   114    60    57    1
   115   109   102   am
   116   109   110    1
   117    58    59    2
   118    58    57    1
   119   119   118    1
   120   127   126    1
   121    65    63   ar
   122    97    99    1
   123    97    98    1
   124   115   114   ar
   125   102   103    2
   126   117   118    1
   127   117   111   am
   128    57    56    1
   129   110   111    1
   130   110   113    1
   131   118   121    1
   132   139   140   ar
   133   139   137   ar
   134   111   112    2
   135   114   113    1
   136   114   116   ar
   137   126   123    1
   138   140   138   ar
   139   137   135   ar
   140   123   122    1
   141   123   124    1
   142   138   136   ar
   143   133   132    2
   144   135   136   ar
   145   135   134    1
   146   124   125    2
   147   132   131    1
   148   134   131    1
   149   131   130    1
