@<TRIPOS>MOLECULE
tmp/4ps8A00.pdb
 192 182 0 0 0
SMALL
GASTEIGER

@<TRIPOS>ATOM
      1  N         19.2680   64.5240   12.4950 N.3   568  MET568     -0.1245
      2  CA        19.5000   65.4980   13.5600 C.3   568  MET568      0.1570
      3  C         20.1360   66.7520   13.0130 C.2   568  MET568      0.2261
      4  O         20.6600   66.7600   11.9150 O.2   568  MET568     -0.2867
      5  CB        20.3690   64.9080   14.6570 C.3   568  MET568      0.0387
      6  CG        19.6480   64.8160   15.9790 C.3   568  MET568      0.0595
      7  SD        19.9580   63.2620   16.8410 S.3   568  MET568     -0.1393
      8  CE        19.1940   62.1190   15.7000 C.3   568  MET568      0.0692
      9  N         23.0380   68.2640   13.2400 N.3   570  SER570     -0.1202
     10  CA        24.4480   68.1700   13.6430 C.3   570  SER570      0.2020
     11  C         25.3970   68.8790   12.6690 C.2   570  SER570      0.2618
     12  O         24.9790   69.4260   11.6440 O.2   570  SER570     -0.2717
     13  CB        24.8630   66.7070   13.7590 C.3   570  SER570      0.2103
     14  OG        24.3190   66.1020   14.9090 O.3   570  SER570     -0.2182
     15  N         26.6740   68.8930   13.0340 N.am  571  LYS571     -0.1979
     16  CA        27.7640   69.1280   12.0780 C.3   571  LYS571      0.1596
     17  C         28.0340   67.7660   11.4140 C.2   571  LYS571      0.2287
     18  O         28.3490   67.6840   10.2150 O.2   571  LYS571     -0.2864
     19  CB        29.0230   69.7370   12.7450 C.3   571  LYS571      0.0298
     20  CG        29.0300   69.8160   14.2820 C.3   571  LYS571      0.0038
     21  CD        29.2590   68.4570   14.9560 C.3   571  LYS571      0.0206
     22  CE        28.5640   68.3120   16.3090 C.3   571  LYS571      0.1093
     23  NZ        28.5290   66.8940   16.7610 N.3   571  LYS571     -0.1314
     24  N         23.4840   62.6090   12.0850 N.3   574  PRO574     -0.2116
     25  CA        22.9340   61.3840   12.6110 C.3   574  PRO574      0.1372
     26  C         21.4830   61.2570   12.2330 C.2   574  PRO574      0.2244
     27  O         20.8700   62.2120   11.7320 O.2   574  PRO574     -0.2868
     28  CB        23.0710   61.5340   14.1270 C.3   574  PRO574      0.0268
     29  CG        23.4340   62.9570   14.3820 C.3   574  PRO574      0.0207
     30  CD        23.4260   63.6900   13.0810 C.3   574  PRO574      0.0892
     31  N         17.6070   60.2350   13.5030 N.3   576  TRP576     -0.1241
     32  CA        16.6330   60.0200   14.5290 C.3   576  TRP576      0.1605
     33  C         15.6180   59.1300   13.8860 C.2   576  TRP576      0.2264
     34  O         14.7920   59.5920   13.1040 O.2   576  TRP576     -0.2867
     35  CB        15.9960   61.3420   14.9160 C.3   576  TRP576      0.0550
     36  CG        15.0430   61.2350   15.9900 C.ar  576  TRP576      0.0003
     37  CD1       13.7990   60.7210   15.9070 C.ar  576  TRP576      0.0946
     38  CD2       15.2210   61.6710   17.3290 C.ar  576  TRP576      0.0152
     39  NE1       13.1840   60.7920   17.1180 N.ar  576  TRP576     -0.2442
     40  CE2       14.0350   61.3740   18.0160 C.ar  576  TRP576      0.0810
     41  CE3       16.2660   62.2850   18.0200 C.ar  576  TRP576      0.0012
     42  CZ2       13.8490   61.6800   19.3630 C.ar  576  TRP576      0.0191
     43  CZ3       16.0930   62.5760   19.3730 C.ar  576  TRP576      0.0001
     44  CH2       14.8850   62.2790   20.0210 C.ar  576  TRP576      0.0015
     45  N         19.0980   56.2000   17.4030 N.3   595  ILE595     -0.1245
     46  CA        19.8800   57.1330   16.6280 C.3   595  ILE595      0.1561
     47  C         20.9370   56.3540   15.9210 C.2   595  ILE595      0.2260
     48  O         21.4720   55.4210   16.4860 O.2   595  ILE595     -0.2867
     49  CB        20.5620   58.1670   17.5130 C.3   595  ILE595      0.0252
     50  CG1       19.5570   59.2050   18.0240 C.3   595  ILE595      0.0019
     51  CG2       21.6110   58.9080   16.7280 C.3   595  ILE595      0.0019
     52  CD1       20.1390   60.1620   19.0480 C.3   595  ILE595      0.0001
     53  N         24.6360   57.2150   14.1050 N.3   597  LYS597     -0.1245
     54  CA        25.6140   58.2840   13.9050 C.3   597  LYS597      0.1561
     55  C         26.7520   57.7430   13.0790 C.2   597  LYS597      0.2260
     56  O         27.1350   56.5790   13.2430 O.2   597  LYS597     -0.2867
     57  CB        26.1090   58.8360   15.2550 C.3   597  LYS597      0.0271
     58  CG        27.1670   59.9260   15.1500 C.3   597  LYS597      0.0035
     59  CD        26.9590   61.0580   16.1550 C.3   597  LYS597      0.0206
     60  CE        28.2580   61.7000   16.6500 C.3   597  LYS597      0.1093
     61  NZ        28.1420   63.0630   17.2940 N.3   597  LYS597     -0.1314
     62  N         31.8670   59.6820   14.6710 N.3   600  ASP600     -0.1239
     63  CA        32.4360   59.5480   16.0120 C.3   600  ASP600      0.1674
     64  C         32.8870   58.0920   16.1340 C.2   600  ASP600      0.2266
     65  O         32.2910   57.2140   15.5020 O.2   600  ASP600     -0.2867
     66  CB        31.4040   59.9570   17.0910 C.3   600  ASP600      0.1410
     67  CG        31.4700   61.4780   17.4690 C.2   600  ASP600      0.3668
     68  OD1       32.3160   62.2540   16.9530 O.co2 600  ASP600     -0.2456
     69  OD2       30.6650   61.9180   18.3160 O.co2 600  ASP600     -0.2456
     70  N         32.6030   55.1870   18.2560 N.3   602  LEU602     -0.1245
     71  CA        31.7040   54.7950   19.3540 C.3   602  LEU602      0.1561
     72  C         32.2900   53.8090   20.3440 C.2   602  LEU602      0.2260
     73  O         31.7950   53.6730   21.4550 O.2   602  LEU602     -0.2867
     74  CB        30.3950   54.2440   18.7930 C.3   602  LEU602      0.0270
     75  CG        29.2360   55.2500   18.6090 C.3   602  LEU602      0.0019
     76  CD1       29.6210   56.7180   18.7330 C.3   602  LEU602      0.0001
     77  CD2       28.5310   55.0010   17.2850 C.3   602  LEU602      0.0001
     78  N         32.8010   55.6910   23.3120 N.3   605  ASP605     -0.1239
     79  CA        31.5020   55.8220   23.9250 C.3   605  ASP605      0.1674
     80  C         31.0930   54.5090   24.6380 C.2   605  ASP605      0.2266
     81  O         30.7760   54.5410   25.8430 O.2   605  ASP605     -0.2867
     82  CB        30.4730   56.2970   22.9040 C.3   605  ASP605      0.1410
     83  CG        30.7460   57.7380   22.4200 C.2   605  ASP605      0.3668
     84  OD1       31.6710   57.9090   21.6030 O.co2 605  ASP605     -0.2456
     85  OD2       30.0460   58.6990   22.8430 O.co2 605  ASP605     -0.2456
     86  N         22.2360   54.9590   28.8070 N.3   631  TYR631     -0.1241
     87  CA        21.5640   54.4940   27.6180 C.3   631  TYR631      0.1605
     88  C         22.4510   53.5400   26.7740 C.2   631  TYR631      0.2264
     89  O         23.6960   53.5980   26.7990 O.2   631  TYR631     -0.2867
     90  CB        21.2180   55.7160   26.7720 C.3   631  TYR631      0.0534
     91  CG        22.4490   56.5090   26.3980 C.ar  631  TYR631     -0.0201
     92  CD1       23.2670   56.1320   25.3270 C.ar  631  TYR631     -0.0009
     93  CD2       22.8100   57.6170   27.1190 C.ar  631  TYR631     -0.0009
     94  CE1       24.4070   56.8650   24.9930 C.ar  631  TYR631      0.0417
     95  CE2       23.9250   58.3690   26.7850 C.ar  631  TYR631      0.0417
     96  CZ        24.7260   57.9960   25.7350 C.ar  631  TYR631      0.1957
     97  OH        25.8320   58.7700   25.4610 O.3   631  TYR631     -0.2866
     98  N         24.3280   52.0390   23.6510 N.3   633  CYS633     -0.1235
     99  CA        25.0930   52.4800   22.4950 C.3   633  CYS633      0.1677
    100  C         25.9430   51.3250   21.9220 C.2   633  CYS633      0.2270
    101  O         26.5940   50.6080   22.6330 O.2   633  CYS633     -0.2867
    102  CB        25.9820   53.6180   22.9010 C.3   633  CYS633      0.0956
    103  SG        27.4080   53.7870   21.8190 S.3   633  CYS633     -0.0801
    104  N         22.4870   54.0820   18.8050 N.3   643  ILE643     -0.1231
    105  CA        22.3540   54.6960   20.1290 C.3   643  ILE643      0.1692
    106  C         20.8910   54.7830   20.5800 C.2   643  ILE643      0.2592
    107  O         19.9860   55.1090   19.8000 O.2   643  ILE643     -0.2718
    108  CB        22.9270   56.1240   20.1150 C.3   643  ILE643      0.0266
    109  CG1       24.3230   56.1760   19.4250 C.3   643  ILE643      0.0019
    110  CG2       22.9200   56.6670   21.5300 C.3   643  ILE643      0.0020
    111  CD1       24.8990   57.5710   19.2240 C.3   643  ILE643      0.0001
    112  N         20.6590   54.5070   21.8490 N.am  644  GLU644     -0.1966
    113  CA        19.2990   54.4990   22.3830 C.3   644  GLU644      0.1733
    114  C         18.8280   55.9180   22.5900 C.2   644  GLU644      0.2616
    115  O         19.5280   56.7470   23.1630 O.2   644  GLU644     -0.2715
    116  CB        19.3000   53.7700   23.7070 C.3   644  GLU644      0.0429
    117  CG        17.9640   53.6040   24.3700 C.3   644  GLU644      0.1163
    118  CD        18.1200   53.0770   25.7880 C.2   644  GLU644      0.3649
    119  OE1       17.1430   53.2450   26.5540 O.co2 644  GLU644     -0.2457
    120  OE2       19.2060   52.5240   26.1510 O.co2 644  GLU644     -0.2457
    121  N         17.6370   56.2210   22.1280 N.am  645  ILE645     -0.1963
    122  CA        17.0450   57.4880   22.4920 C.3   645  ILE645      0.1727
    123  C         16.2730   57.3680   23.8220 C.2   645  ILE645      0.2616
    124  O         15.3920   56.4870   24.0080 O.2   645  ILE645     -0.2715
    125  CB        16.1070   57.9930   21.4230 C.3   645  ILE645      0.0290
    126  CG1       16.8120   57.9460   20.0720 C.3   645  ILE645      0.0022
    127  CG2       15.7020   59.4140   21.7940 C.3   645  ILE645      0.0023
    128  CD1       15.9740   58.3470   18.8840 C.3   645  ILE645      0.0001
    129  N         16.6090   58.2570   24.7450 N.am  646  VAL646     -0.1963
    130  CA        16.0050   58.2060   26.0340 C.3   646  VAL646      0.1727
    131  C         14.7720   59.0520   25.9770 C.2   646  VAL646      0.2616
    132  O         14.8460   60.2120   25.6690 O.2   646  VAL646     -0.2715
    133  CB        16.9770   58.6680   27.1100 C.3   646  VAL646      0.0290
    134  CG1       16.2620   58.9290   28.4410 C.3   646  VAL646      0.0023
    135  CG2       18.0530   57.6020   27.2850 C.3   646  VAL646      0.0023
    136  N         13.6330   58.4530   26.2860 N.am  647  LYS647     -0.1963
    137  CA        12.3390   59.0990   26.0730 C.3   647  LYS647      0.1728
    138  C         12.1570   60.3090   26.9910 C.2   647  LYS647      0.2616
    139  O         12.6720   60.3010   28.1010 O.2   647  LYS647     -0.2715
    140  CB        11.1970   58.0630   26.2300 C.3   647  LYS647      0.0311
    141  CG        11.0980   56.9970   25.1140 C.3   647  LYS647      0.0038
    142  CD        10.9260   57.6890   23.7530 C.3   647  LYS647      0.0206
    143  CE        10.5790   56.7890   22.5740 C.3   647  LYS647      0.1093
    144  NZ        10.6340   57.6230   21.3300 N.3   647  LYS647     -0.1314
    145  N         11.4800   61.3530   26.5080 N.am  648  ASP648     -0.1957
    146  CA        11.1080   62.5110   27.3510 C.3   648  ASP648      0.1840
    147  C         12.2940   63.1830   28.0260 C.2   648  ASP648      0.2621
    148  O         12.3260   63.3200   29.2470 O.2   648  ASP648     -0.2715
    149  CB        10.1080   62.1100   28.4580 C.3   648  ASP648      0.1450
    150  CG         8.8850   61.4040   27.9240 C.2   648  ASP648      0.3671
    151  OD1        8.0530   62.1010   27.2980 O.co2 648  ASP648     -0.2456
    152  OD2        8.7580   60.1640   28.1490 O.co2 648  ASP648     -0.2456
    153  N         13.2670   63.6060   27.2430 N.am  649  ALA649     -0.1977
    154  CA        14.4070   64.3530   27.7810 C.3   649  ALA649      0.1597
    155  C         14.8800   65.4160   26.8010 C.2   649  ALA649      0.2287
    156  O         14.8500   65.1850   25.5860 O.2   649  ALA649     -0.2864
    157  CB        15.5480   63.4040   28.0750 C.3   649  ALA649      0.0319
    158  N         21.9280   66.1810   29.3090 N.3   717  MET717     -0.1245
    159  CA        20.5070   66.1320   29.1300 C.3   717  MET717      0.1570
    160  C         19.8000   65.7500   30.4150 C.2   717  MET717      0.2261
    161  O         20.4150   65.1580   31.3350 O.2   717  MET717     -0.2867
    162  CB        20.1760   65.1160   28.0560 C.3   717  MET717      0.0387
    163  CG        20.7150   65.4430   26.6890 C.3   717  MET717      0.0595
    164  SD        19.9990   64.2560   25.5500 S.3   717  MET717     -0.1393
    165  CE        18.4930   65.1090   25.1150 C.3   717  MET717      0.0692
    166  N         21.5980   63.4160   32.7300 N.3   725  PHE725     -0.1241
    167  CA        22.6320   62.4960   32.2170 C.3   725  PHE725      0.1605
    168  C         23.4010   63.1160   31.1050 C.2   725  PHE725      0.2264
    169  O         22.8100   63.7870   30.2800 O.2   725  PHE725     -0.2867
    170  CB        22.0190   61.2440   31.6380 C.3   725  PHE725      0.0534
    171  CG        21.0080   61.4930   30.5290 C.ar  725  PHE725     -0.0203
    172  CD1       19.7130   61.9500   30.8120 C.ar  725  PHE725     -0.0042
    173  CD2       21.3090   61.1960   29.2190 C.ar  725  PHE725     -0.0042
    174  CE1       18.7750   62.1260   29.7950 C.ar  725  PHE725     -0.0003
    175  CE2       20.3690   61.3570   28.2020 C.ar  725  PHE725     -0.0003
    176  CZ        19.1100   61.8300   28.4810 C.ar  725  PHE725     -0.0000
    177  N         25.9290   62.9740   27.6460 N.3   727  ILE727     -0.1231
    178  CA        26.0010   62.2070   26.4060 C.3   727  ILE727      0.1692
    179  C         27.3070   62.3970   25.6120 C.2   727  ILE727      0.2592
    180  O         28.0520   63.3310   25.8300 O.2   727  ILE727     -0.2718
    181  CB        24.8300   62.6020   25.5090 C.3   727  ILE727      0.0266
    182  CG1       24.8640   64.0920   25.1880 C.3   727  ILE727      0.0019
    183  CG2       23.5330   62.2870   26.2050 C.3   727  ILE727      0.0020
    184  CD1       23.8580   64.4880   24.1350 C.3   727  ILE727      0.0001
    185  N         27.5900   61.5080   24.6800 N.am  728  ASP728     -0.1974
    186  CA        28.5560   61.8250   23.6330 C.3   728  ASP728      0.1709
    187  C         29.9500   62.0320   24.1950 C.2   728  ASP728      0.2293
    188  O         30.4120   63.1440   24.2730 O.2   728  ASP728     -0.2864
    189  CB        28.0960   63.0930   22.8810 C.3   728  ASP728      0.1436
    190  CG        28.5950   63.1350   21.4580 C.2   728  ASP728      0.3671
    191  OD1       29.3200   62.1930   21.0930 O.co2 728  ASP728     -0.2456
    192  OD2       28.2760   64.0960   20.7020 O.co2 728  ASP728     -0.2456
@<TRIPOS>BOND
     1    18    17    2
     2    17    16    1
     3    12    11    2
     4    27    26    2
     5     4     3    2
     6    16    19    1
     7    16    15    1
     8    24    25    1
     9    24    30    1
    10    26    25    1
    11     1     2    1
    12    25    28    1
    13    11    15   am
    14    11    10    1
    15    19    20    1
    16     3     2    1
    17    55    56    2
    18    55    54    1
    19    30    29    1
    20    34    33    2
    21     9    10    1
    22    31    32    1
    23     2     5    1
    24    10    13    1
    25    13    14    1
    26    33    32    1
    27    54    53    1
    28    54    57    1
    29    28    29    1
    30    20    21    1
    31    32    35    1
    32     5     6    1
    33    62    63    1
    34    35    36    1
    35    21    22    1
    36    58    57    1
    37    58    59    1
    38    65    64    2
    39     8     7    1
    40    37    36   ar
    41    37    39   ar
    42    47    48    2
    43    47    46    1
    44     6     7    1
    45    36    38   ar
    46    63    64    1
    47    63    66    1
    48    59    60    1
    49    22    23    1
    50    46    45    1
    51    46    49    1
    52    60    61    1
    53    51    49    1
    54    68    67   ar
    55    66    67    1
    56    39    40   ar
    57    77    75    1
    58    38    40   ar
    59    38    41   ar
    60    67    69   ar
    61    49    50    1
    62    40    42   ar
    63    41    43   ar
    64    50    52    1
    65    70    71    1
    66    75    76    1
    67    75    74    1
    68    74    71    1
    69   104   105    1
    70   128   126    1
    71   111   109    1
    72    71    72    1
    73    42    44   ar
    74    43    44   ar
    75   109   108    1
    76   107   106    2
    77   126   125    1
    78   108   105    1
    79   108   110    1
    80   105   106    1
    81    72    73    2
    82   106   112   am
    83   192   190   ar
    84   191   190   ar
    85   144   143    1
    86   125   127    1
    87   125   122    1
    88   190   189    1
    89    84    83   ar
    90   103   102    1
    91   112   113    1
    92   100    99    1
    93   100   101    2
    94   121   122    1
    95   121   114   am
    96   113   114    1
    97   113   116    1
    98    83    85   ar
    99    83    82    1
   100   122   123    1
   101    99   102    1
   102    99    98    1
   103   143   142    1
   104   114   115    2
   105   189   186    1
   106    82    79    1
   107    78    79    1
   108   186   187    1
   109   186   185    1
   110   116   117    1
   111   142   141    1
   112   123   124    2
   113   123   129   am
   114    79    80    1
   115   184   182    1
   116   187   188    2
   117   117   118    1
   118    80    81    2
   119   185   179   am
   120   129   130    1
   121    94    92   ar
   122    94    96   ar
   123   141   140    1
   124   165   164    1
   125   182   181    1
   126    92    91   ar
   127    97    96    1
   128   181   183    1
   129   181   178    1
   130   164   163    1
   131   156   155    2
   132   179   180    2
   133   179   178    1
   134   132   131    2
   135    96    95   ar
   136   118   120   ar
   137   118   119   ar
   138   131   130    1
   139   131   136   am
   140   130   133    1
   141   137   140    1
   142   137   136    1
   143   137   138    1
   144    91    90    1
   145    91    93   ar
   146   178   177    1
   147   145   138   am
   148   145   146    1
   149   163   162    1
   150    90    87    1
   151    88    89    2
   152    88    87    1
   153    95    93   ar
   154   155   154    1
   155   138   139    2
   156   133   135    1
   157   133   134    1
   158   153   154    1
   159   153   147   am
   160   151   150   ar
   161   146   147    1
   162   146   149    1
   163    87    86    1
   164   154   157    1
   165   150   152   ar
   166   150   149    1
   167   147   148    2
   168   162   159    1
   169   175   176   ar
   170   175   173   ar
   171   176   174   ar
   172   159   158    1
   173   159   160    1
   174   173   171   ar
   175   174   172   ar
   176   169   168    2
   177   160   161    2
   178   171   172   ar
   179   171   170    1
   180   168   167    1
   181   170   167    1
   182   167   166    1
