@<TRIPOS>MOLECULE
tmp/4psbA00.pdb
 179 169 0 0 0
SMALL
GASTEIGER

@<TRIPOS>ATOM
      1  N         15.1720   -1.9850    9.5090 N.3    22  LEU22      -0.1245
      2  CA        14.3430   -2.5030   10.5810 C.3    22  LEU22       0.1561
      3  C         14.8000   -3.8070   11.1360 C.2    22  LEU22       0.2260
      4  O         14.5890   -4.0700   12.3120 O.2    22  LEU22      -0.2867
      5  CB        12.9120   -2.6610   10.1030 C.3    22  LEU22       0.0270
      6  CG        12.2260   -1.3210   10.0270 C.3    22  LEU22       0.0019
      7  CD1       10.8710   -1.6790    9.4230 C.3    22  LEU22       0.0001
      8  CD2       12.0650   -0.6660   11.3240 C.3    22  LEU22       0.0001
      9  N         19.5290   -1.6140   12.5140 N.3    26  PHE26      -0.1241
     10  CA        18.9020   -0.7460   13.4960 C.3    26  PHE26       0.1605
     11  C         19.9300   -0.5270   14.6210 C.2    26  PHE26       0.2264
     12  O         19.8220    0.4620   15.3700 O.2    26  PHE26      -0.2867
     13  CB        17.5700   -1.2990   13.9760 C.3    26  PHE26       0.0534
     14  CG        17.6740   -2.6060   14.6560 C.ar   26  PHE26      -0.0203
     15  CD1       17.8640   -2.6520   16.0000 C.ar   26  PHE26      -0.0042
     16  CD2       17.5620   -3.7850   13.9540 C.ar   26  PHE26      -0.0042
     17  CE1       17.9270   -3.8530   16.6340 C.ar   26  PHE26      -0.0003
     18  CE2       17.6170   -5.0040   14.5780 C.ar   26  PHE26      -0.0003
     19  CZ        17.8070   -5.0410   15.9230 C.ar   26  PHE26      -0.0000
     20  N         19.3850    3.3100   14.8450 N.3    30  VAL30      -0.1245
     21  CA        18.4760    3.7830   15.8770 C.3    30  VAL30       0.1561
     22  C         19.0080    5.0410   16.6360 C.2    30  VAL30       0.2260
     23  O         18.2880    6.0330   16.8120 O.2    30  VAL30      -0.2867
     24  CB        18.0450    2.6680   16.8470 C.3    30  VAL30       0.0252
     25  CG1       17.3310    3.2470   18.0740 C.3    30  VAL30       0.0019
     26  CG2       17.0670    1.7600   16.1340 C.3    30  VAL30       0.0019
     27  N         16.8690    8.4800   16.3930 N.3    34  LEU34      -0.1245
     28  CA        16.2450    8.8440   17.6910 C.3    34  LEU34       0.1561
     29  C         17.3150    9.3840   18.6620 C.2    34  LEU34       0.2260
     30  O         17.4650    8.9100   19.7860 O.2    34  LEU34      -0.2867
     31  CB        15.5870    7.6280   18.3150 C.3    34  LEU34       0.0270
     32  CG        14.3560    7.0880   17.5480 C.3    34  LEU34       0.0019
     33  CD1       13.8130    5.9040   18.2710 C.3    34  LEU34       0.0001
     34  CD2       13.2920    8.1130   17.2710 C.3    34  LEU34       0.0001
     35  N         16.5770   10.2320   22.3250 N.3    37  ILE37      -0.1231
     36  CA        16.0710    9.1480   23.1530 C.3    37  ILE37       0.1692
     37  C         17.1330    8.0870   23.4300 C.2    37  ILE37       0.2591
     38  O         17.4070    7.7610   24.6190 O.2    37  ILE37      -0.2718
     39  CB        14.7700    8.4930   22.5520 C.3    37  ILE37       0.0266
     40  CG1       13.7150    9.5620   22.4280 C.3    37  ILE37       0.0019
     41  CG2       14.2970    7.3260   23.4180 C.3    37  ILE37       0.0020
     42  CD1       12.5510    9.1110   21.5820 C.3    37  ILE37       0.0001
     43  N         17.7430    7.6090   22.3610 N.am   38  VAL38      -0.1980
     44  CA        18.6410    6.4520   22.4070 C.3    38  VAL38       0.1595
     45  C         20.1090    6.8280   22.3020 C.2    38  VAL38       0.2287
     46  O         20.5530    7.4770   21.3610 O.2    38  VAL38      -0.2864
     47  CB        18.2980    5.3920   21.2870 C.3    38  VAL38       0.0276
     48  CG1       19.2460    4.1660   21.4250 C.3    38  VAL38       0.0022
     49  CG2       16.8020    4.9850   21.3110 C.3    38  VAL38       0.0022
     50  N         19.2550   -1.6790   24.5370 N.3    56  PHE56      -0.1241
     51  CA        19.1820   -0.2810   24.1970 C.3    56  PHE56       0.1605
     52  C         19.4620    0.5040   25.4590 C.2    56  PHE56       0.2264
     53  O         18.7520    0.3380   26.4360 O.2    56  PHE56      -0.2867
     54  CB        17.7570    0.0360   23.7360 C.3    56  PHE56       0.0534
     55  CG        17.4040   -0.5530   22.4110 C.ar   56  PHE56      -0.0203
     56  CD1       17.1110   -1.9010   22.3120 C.ar   56  PHE56      -0.0042
     57  CD2       17.4170    0.2290   21.2440 C.ar   56  PHE56      -0.0042
     58  CE1       16.8120   -2.4650   21.0930 C.ar   56  PHE56      -0.0003
     59  CE2       17.0630   -0.3560   20.0100 C.ar   56  PHE56      -0.0003
     60  CZ        16.7370   -1.7020   19.9520 C.ar   56  PHE56      -0.0000
     61  N         19.2390    4.2340   26.8590 N.3    58  PHE58      -0.1241
     62  CA        18.7140    5.5540   26.5830 C.3    58  PHE58       0.1605
     63  C         19.5440    6.6730   27.1950 C.2    58  PHE58       0.2264
     64  O         20.4730    6.4150   27.9730 O.2    58  PHE58      -0.2867
     65  CB        17.2350    5.6030   27.0290 C.3    58  PHE58       0.0534
     66  CG        16.3970    4.4970   26.4450 C.ar   58  PHE58      -0.0203
     67  CD1       16.4680    4.1720   25.0960 C.ar   58  PHE58      -0.0042
     68  CD2       15.5400    3.8120   27.2260 C.ar   58  PHE58      -0.0042
     69  CE1       15.6940    3.1310   24.5670 C.ar   58  PHE58      -0.0003
     70  CE2       14.7270    2.7810   26.7040 C.ar   58  PHE58      -0.0003
     71  CZ        14.8070    2.4610   25.3780 C.ar   58  PHE58      -0.0000
     72  N         16.2020   -0.7800   27.6700 N.3    67  GLN67      -0.1245
     73  CA        15.4010   -1.9840   27.4810 C.3    67  GLN67       0.1566
     74  C         16.2140   -3.0870   26.8860 C.2    67  GLN67       0.2260
     75  O         17.1470   -2.8170   26.0570 O.2    67  GLN67      -0.2867
     76  CB        14.0840   -1.7840   26.6610 C.3    67  GLN67       0.0367
     77  CG        14.2110   -1.4090   25.1810 C.3    67  GLN67       0.0905
     78  CD        12.9250   -0.9060   24.6590 C.2    67  GLN67       0.2608
     79  OE1       12.3480    0.0400   25.2250 O.2    67  GLN67      -0.2717
     80  NE2       12.4540   -1.5330   23.5890 N.am   67  GLN67      -0.0878
     81  N         15.9820   -6.3930   24.5790 N.3    69  GLU69      -0.1245
     82  CA        15.0750   -6.7650   23.4730 C.3    69  GLU69       0.1567
     83  C         15.5460   -8.0690   22.9220 C.2    69  GLU69       0.2260
     84  O         16.8010   -8.3060   22.8930 O.2    69  GLU69      -0.2867
     85  CB        15.1290   -5.7100   22.3890 C.3    69  GLU69       0.0388
     86  CG        13.8890   -5.7110   21.4150 C.3    69  GLU69       0.1160
     87  CD        12.6000   -5.0680   21.9610 C.2    69  GLU69       0.3649
     88  OE1       11.5650   -5.1610   21.2240 O.co2  69  GLU69      -0.2457
     89  OE2       12.7200   -4.4810   23.0460 O.co2  69  GLU69      -0.2457
     90  N         10.1700   -8.2210   17.6850 N.3    83  LEU83      -0.1245
     91  CA        11.1010   -7.7470   18.6560 C.3    83  LEU83       0.1561
     92  C         10.3460   -7.6810   20.0130 C.2    83  LEU83       0.2260
     93  O          9.3900   -6.8960   20.1560 O.2    83  LEU83      -0.2867
     94  CB        11.6300   -6.3760   18.2380 C.3    83  LEU83       0.0270
     95  CG        12.1900   -6.2680   16.8270 C.3    83  LEU83       0.0019
     96  CD1       12.0930   -4.8740   16.1730 C.3    83  LEU83       0.0001
     97  CD2       13.6070   -6.6670   17.0210 C.3    83  LEU83       0.0001
     98  N          8.8860   -0.7930   28.4350 N.3    90  TYR90      -0.1241
     99  CA         7.4920   -0.7470   28.9170 C.3    90  TYR90       0.1605
    100  C          7.2390   -1.7380   30.0340 C.2    90  TYR90       0.2264
    101  O          6.2490   -1.6040   30.8040 O.2    90  TYR90      -0.2867
    102  CB         6.5100   -0.9330   27.7480 C.3    90  TYR90       0.0534
    103  CG         6.5130    0.1430   26.6940 C.ar   90  TYR90      -0.0201
    104  CD1        6.5060    1.4790   27.0250 C.ar   90  TYR90      -0.0009
    105  CD2        6.5940   -0.1770   25.3250 C.ar   90  TYR90      -0.0009
    106  CE1        6.5350    2.4690   26.0590 C.ar   90  TYR90       0.0417
    107  CE2        6.6720    0.8050   24.3670 C.ar   90  TYR90       0.0417
    108  CZ         6.6060    2.1360   24.7230 C.ar   90  TYR90       0.1957
    109  OH         6.6730    3.1520   23.7980 O.3    90  TYR90      -0.2866
    110  N          5.2580   -7.3660   26.2360 N.3    98  TYR98      -0.1241
    111  CA         5.3330   -6.3730   25.1860 C.3    98  TYR98       0.1605
    112  C          6.1250   -6.8350   24.0100 C.2    98  TYR98       0.2264
    113  O          7.3030   -7.2330   24.1940 O.2    98  TYR98      -0.2867
    114  CB         5.8320   -5.0140   25.6480 C.3    98  TYR98       0.0534
    115  CG         5.5200   -3.9330   24.6530 C.ar   98  TYR98      -0.0201
    116  CD1        6.3560   -3.6230   23.5740 C.ar   98  TYR98      -0.0009
    117  CD2        4.2930   -3.2480   24.7860 C.ar   98  TYR98      -0.0009
    118  CE1        6.0500   -2.6080   22.7110 C.ar   98  TYR98       0.0417
    119  CE2        3.9250   -2.3080   23.9430 C.ar   98  TYR98       0.0417
    120  CZ         4.7790   -1.9730   22.8680 C.ar   98  TYR98       0.1957
    121  OH         4.4120   -0.9770   22.0080 O.3    98  TYR98      -0.2866
    122  N          6.7100   -6.0280   19.5030 N.3   100  THR100     -0.1218
    123  CA         6.4660   -5.2020   18.3530 C.3   100  THR100      0.1862
    124  C          6.8390   -6.0080   17.1590 C.2   100  THR100      0.2287
    125  O          7.9700   -6.5010   17.0890 O.2   100  THR100     -0.2866
    126  CB         7.4360   -3.9280   18.3280 C.3   100  THR100      0.1770
    127  OG1        7.3750   -3.2400   19.5840 O.3   100  THR100     -0.2211
    128  CG2        7.1250   -2.9560   17.2310 C.3   100  THR100      0.0375
    129  N          6.9220   -5.9220   12.9440 N.3   102  PHE102     -0.1241
    130  CA         6.8140   -5.1530   11.7050 C.3   102  PHE102      0.1605
    131  C          6.7210   -6.1310   10.5370 C.2   102  PHE102      0.2264
    132  O          7.4110   -7.1120   10.4820 O.2   102  PHE102     -0.2867
    133  CB         8.1220   -4.3200   11.4800 C.3   102  PHE102      0.0534
    134  CG         8.4230   -3.2970   12.5470 C.ar  102  PHE102     -0.0203
    135  CD1        7.6680   -2.1590   12.6720 C.ar  102  PHE102     -0.0042
    136  CD2        9.4860   -3.4510   13.3920 C.ar  102  PHE102     -0.0042
    137  CE1        7.9210   -1.2020   13.5890 C.ar  102  PHE102     -0.0003
    138  CE2        9.7480   -2.4410   14.3530 C.ar  102  PHE102     -0.0003
    139  CZ         8.9750   -1.3340   14.4440 C.ar  102  PHE102     -0.0000
    140  N          1.7510    3.6090   22.8950 N.3   135  THR135     -0.1218
    141  CA         3.0270    2.9910   22.5280 C.3   135  THR135      0.1862
    142  C          3.0850    2.8650   20.9890 C.2   135  THR135      0.2287
    143  O          4.1180    3.0820   20.3580 O.2   135  THR135     -0.2866
    144  CB         3.2370    1.6690   23.1870 C.3   135  THR135      0.1770
    145  OG1        2.3380    0.6990   22.6690 O.3   135  THR135     -0.2211
    146  CG2        3.1100    1.7610   24.6570 C.3   135  THR135      0.0375
    147  N          4.4570    5.9810   19.4240 N.3   138  SER138     -0.1202
    148  CA         5.8940    6.1330   19.5440 C.3   138  SER138      0.2020
    149  C          6.5280    5.3590   18.4380 C.2   138  SER138      0.2619
    150  O          7.4790    5.8510   17.7910 O.2   138  SER138     -0.2717
    151  CB         6.4220    5.6680   20.9020 C.3   138  SER138      0.2103
    152  OG         6.0970    6.5960   21.8890 O.3   138  SER138     -0.2182
    153  N          6.0140    4.1580   18.1690 N.am  139  THR139     -0.1952
    154  CA         6.5800    3.3860   17.0840 C.3   139  THR139      0.1897
    155  C          6.4000    4.0550   15.7220 C.2   139  THR139      0.2313
    156  O          7.2930    4.0500   14.8720 O.2   139  THR139     -0.2863
    157  CB         5.9490    1.9540   17.0110 C.3   139  THR139      0.1794
    158  OG1        6.1300    1.2650   18.2490 O.3   139  THR139     -0.2208
    159  CG2        6.4090    1.1660   15.8060 C.3   139  THR139      0.0378
    160  N          6.1090    7.3000   15.1440 N.3   141  MET141     -0.1230
    161  CA         7.0090    8.4450   15.1290 C.3   141  MET141      0.1702
    162  C          8.3960    7.9600   14.7060 C.2   141  MET141      0.2592
    163  O          9.0150    8.5240   13.8060 O.2   141  MET141     -0.2718
    164  CB         6.9780    9.0930   16.5250 C.3   141  MET141      0.0401
    165  CG         7.9150   10.2430   16.7530 C.3   141  MET141      0.0596
    166  SD         9.5840    9.7180   17.0310 S.3   141  MET141     -0.1393
    167  CE         9.4610    8.9110   18.6480 C.3   141  MET141      0.0692
    168  N          8.8610    6.8680   15.3150 N.am  142  TYR142     -0.1976
    169  CA        10.1320    6.2740   14.9100 C.3   142  TYR142      0.1639
    170  C         10.1330    5.9350   13.4010 C.2   142  TYR142      0.2290
    171  O         11.1320    6.2340   12.7020 O.2   142  TYR142     -0.2864
    172  CB        10.4290    5.0320   15.7470 C.3   142  TYR142      0.0560
    173  CG        11.4750    4.0490   15.2150 C.ar  142  TYR142     -0.0198
    174  CD1       12.7730    4.4210   14.8990 C.ar  142  TYR142     -0.0009
    175  CD2       11.1770    2.7040   15.1260 C.ar  142  TYR142     -0.0009
    176  CE1       13.7160    3.4590   14.4510 C.ar  142  TYR142      0.0417
    177  CE2       12.0810    1.7930   14.6610 C.ar  142  TYR142      0.0417
    178  CZ        13.3360    2.1440   14.3480 C.ar  142  TYR142      0.1957
    179  OH        14.1500    1.1010   13.9360 O.3   142  TYR142     -0.2866
@<TRIPOS>BOND
     1     7     6    1
     2     1     2    1
     3     6     5    1
     4     6     8    1
     5     5     2    1
     6   132   131    2
     7   131   130    1
     8     2     3    1
     9     3     4    2
    10   133   130    1
    11   133   134    1
    12   130   129    1
    13     9    10    1
    14   134   135   ar
    15   134   136   ar
    16   135   137   ar
    17   171   170    2
    18   136   138   ar
    19   170   169    1
    20    10    13    1
    21    10    11    1
    22   137   139   ar
    23   163   162    2
    24   179   178    1
    25    16    18   ar
    26    16    14   ar
    27    13    14    1
    28   178   176   ar
    29   178   177   ar
    30   138   139   ar
    31   176   174   ar
    32    18    19   ar
    33    11    12    2
    34    14    15   ar
    35   177   175   ar
    36   162   161    1
    37   162   168   am
    38    20    21    1
    39   156   155    2
    40   174   173   ar
    41   169   168    1
    42   169   172    1
    43   175   173   ar
    44   161   160    1
    45   161   164    1
    46   173   172    1
    47   155   154    1
    48   159   157    1
    49    21    22    1
    50    21    24    1
    51    19    17   ar
    52    15    17   ar
    53    26    24    1
    54    96    95    1
    55    27    28    1
    56   164   165    1
    57    22    23    2
    58   165   166    1
    59    95    97    1
    60    95    94    1
    61    24    25    1
    62   157   154    1
    63   157   158    1
    64   166   167    1
    65   154   153    1
    66   125   124    2
    67   124   123    1
    68   128   126    1
    69    34    32    1
    70    32    33    1
    71    32    31    1
    72    90    91    1
    73    28    31    1
    74    28    29    1
    75   150   149    2
    76   153   149   am
    77    94    91    1
    78   126   123    1
    79   126   127    1
    80   123   122    1
    81   149   148    1
    82    91    92    1
    83    29    30    2
    84   147   148    1
    85   148   151    1
    86    60    59   ar
    87    60    58   ar
    88    59    57   ar
    89    92    93    2
    90   143   142    2
    91   151   152    1
    92   142   141    1
    93    58    56   ar
    94    88    87   ar
    95    57    55   ar
    96    47    49    1
    97    47    48    1
    98    47    44    1
    99    46    45    2
   100    86    87    1
   101    86    85    1
   102    42    40    1
   103    87    89   ar
   104   121   120    1
   105    45    44    1
   106    56    55   ar
   107    35    36    1
   108    43    44    1
   109    43    37   am
   110    85    82    1
   111    55    54    1
   112    40    39    1
   113   141   140    1
   114   141   144    1
   115    39    36    1
   116    39    41    1
   117   145   144    1
   118   118   120   ar
   119   118   116   ar
   120   120   119   ar
   121    84    83    2
   122    83    82    1
   123    36    37    1
   124   144   146    1
   125    37    38    2
   126    82    81    1
   127   116   115   ar
   128    80    78   am
   129    54    51    1
   130   109   108    1
   131   119   117   ar
   132   112   113    2
   133   112   111    1
   134    51    50    1
   135    51    52    1
   136   107   108   ar
   137   107   105   ar
   138    69    67   ar
   139    69    71   ar
   140   115   117   ar
   141   115   114    1
   142    78    77    1
   143    78    79    2
   144   108   106   ar
   145    67    66   ar
   146    77    76    1
   147   111   114    1
   148   111   110    1
   149   105   103   ar
   150    71    70   ar
   151    52    53    2
   152    75    74    2
   153   106   104   ar
   154    66    65    1
   155    66    68   ar
   156    62    61    1
   157    62    65    1
   158    62    63    1
   159    76    73    1
   160   103   104   ar
   161   103   102    1
   162    70    68   ar
   163    74    73    1
   164    63    64    2
   165    73    72    1
   166   102    99    1
   167    98    99    1
   168    99   100    1
   169   100   101    2
