@<TRIPOS>MOLECULE
tmp/4pseA02.pdb
 78 73 0 0 0
SMALL
GASTEIGER

@<TRIPOS>ATOM
      1  N         -2.6090    6.0630   46.1260 N.3    69  LEU69      -0.1245
      2  CA        -2.6350    4.8380   45.3330 C.3    69  LEU69       0.1561
      3  C         -2.8450    3.5470   46.0950 C.2    69  LEU69       0.2260
      4  O         -3.4700    2.6270   45.5660 O.2    69  LEU69      -0.2867
      5  CB        -1.3590    4.7010   44.4760 C.3    69  LEU69       0.0270
      6  CG        -1.1840    5.6700   43.3150 C.3    69  LEU69       0.0019
      7  CD1        0.2880    5.7580   42.9090 C.3    69  LEU69       0.0001
      8  CD2       -2.0340    5.2650   42.1220 C.3    69  LEU69       0.0001
      9  N         -6.6010    2.3890   50.6590 N.3    73  TRP73      -0.1241
     10  CA        -7.3890    1.1960   50.2940 C.3    73  TRP73       0.1605
     11  C         -7.1100    0.0430   51.2340 C.2    73  TRP73       0.2264
     12  O         -8.0270   -0.6560   51.6620 O.2    73  TRP73      -0.2867
     13  CB        -7.1480    0.8490   48.8200 C.3    73  TRP73       0.0550
     14  CG        -7.2350    2.0820   47.9800 C.ar   73  TRP73       0.0003
     15  CD1       -6.1900    2.8250   47.5130 C.ar   73  TRP73       0.0946
     16  CD2       -8.4130    2.8670   47.7600 C.ar   73  TRP73       0.0152
     17  NE1       -6.6520    3.9760   46.9240 N.ar   73  TRP73      -0.2442
     18  CE2       -8.0130    4.0400   47.0810 C.ar   73  TRP73       0.0810
     19  CE3       -9.7780    2.6850   48.0500 C.ar   73  TRP73       0.0012
     20  CZ2       -8.9310    5.0040   46.6490 C.ar   73  TRP73       0.0191
     21  CZ3      -10.6800    3.6550   47.6410 C.ar   73  TRP73       0.0001
     22  CH2      -10.2530    4.7960   46.9480 C.ar   73  TRP73       0.0015
     23  N         -9.7920   -1.6770   53.8100 N.3    77  SER77      -0.1217
     24  CA       -10.0180   -3.1270   53.7870 C.3    77  SER77       0.1889
     25  C         -9.6960   -3.7480   55.1510 C.2    77  SER77       0.2288
     26  O        -10.4160   -4.6330   55.6170 O.2    77  SER77      -0.2866
     27  CB        -9.2000   -3.8030   52.6920 C.3    77  SER77       0.2089
     28  OG        -9.6290   -3.4080   51.3990 O.3    77  SER77      -0.2183
     29  N          2.2920    0.3480   34.6170 N.3   197  LEU197     -0.1245
     30  CA         0.9390    0.1250   35.1380 C.3   197  LEU197      0.1561
     31  C          0.8510   -0.9580   36.2310 C.2   197  LEU197      0.2260
     32  O          0.1820   -0.6800   37.2340 O.2   197  LEU197     -0.2867
     33  CB        -0.1020   -0.0960   34.0260 C.3   197  LEU197      0.0270
     34  CG        -1.5400   -0.2890   34.5170 C.3   197  LEU197      0.0019
     35  CD1       -2.1040    0.9660   35.1890 C.3   197  LEU197      0.0001
     36  CD2       -2.4540   -0.7040   33.3960 C.3   197  LEU197      0.0001
     37  N          1.1430    0.4210   39.7620 N.3   200  LEU200     -0.1231
     38  CA         0.1680    1.4020   40.2220 C.3   200  LEU200      0.1693
     39  C         -1.1580    0.8310   40.6740 C.2   200  LEU200      0.2592
     40  O         -1.9980    1.5780   41.1590 O.2   200  LEU200     -0.2718
     41  CB        -0.0670    2.4390   39.1040 C.3   200  LEU200      0.0284
     42  CG         1.1660    3.1730   38.5380 C.3   200  LEU200      0.0019
     43  CD1        0.7710    4.0670   37.3590 C.3   200  LEU200      0.0001
     44  CD2        1.8660    4.0090   39.5870 C.3   200  LEU200      0.0001
     45  N         -1.3250   -0.4850   40.5610 N.am  201  THR201     -0.1953
     46  CA        -2.5800   -1.1910   40.8110 C.3   201  THR201      0.1897
     47  C         -2.6710   -1.9410   42.1280 C.2   201  THR201      0.2313
     48  O         -3.6220   -2.7140   42.2950 O.2   201  THR201     -0.2863
     49  CB        -2.8780   -2.1210   39.6230 C.3   201  THR201      0.1794
     50  OG1       -1.7880   -3.0300   39.5010 O.3   201  THR201     -0.2208
     51  CG2       -3.0260   -1.3620   38.3000 C.3   201  THR201      0.0378
     52  N         -3.8260   -1.2370   44.9120 N.3   203  ALA203     -0.1231
     53  CA        -5.0880   -1.0560   45.6320 C.3   203  ALA203      0.1694
     54  C         -5.9710   -2.3050   45.4390 C.2   203  ALA203      0.2595
     55  O         -6.7780   -2.6170   46.3150 O.2   203  ALA203     -0.2718
     56  CB        -5.8220    0.1730   45.1160 C.3   203  ALA203      0.0304
     57  N         -5.7890   -3.0390   44.3150 N.am  204  GLU204     -0.1934
     58  CA        -6.5610   -4.2610   44.0440 C.3   204  GLU204      0.1818
     59  C         -6.2520   -5.3980   45.0270 C.2   204  GLU204      0.2332
     60  O         -7.0520   -6.3270   45.1790 O.2   204  GLU204     -0.2860
     61  CB        -6.3810   -4.7110   42.5910 C.2   204  GLU204      0.0097
     62  CG        -5.0710   -5.3900   42.2680 C.2   204  GLU204      0.0837
     63  CD        -4.8500   -5.7360   40.8010 C.2   204  GLU204      0.3877
     64  OE1       -5.6710   -5.3290   39.9480 O.co2 204  GLU204     -0.2406
     65  OE2       -3.8130   -6.3680   40.4990 O.co2 204  GLU204     -0.2406
     66  N         -5.7030   -4.8740   48.3450 N.3   206  ALA206     -0.1231
     67  CA        -6.0760   -4.3870   49.6690 C.3   206  ALA206      0.1694
     68  C         -6.8500   -5.4170   50.4870 C.2   206  ALA206      0.2592
     69  O         -6.5540   -5.5990   51.6670 O.2   206  ALA206     -0.2718
     70  CB        -6.8730   -3.1010   49.5480 C.3   206  ALA206      0.0304
     71  N         -7.8380   -6.1020   49.8650 N.am  207  ASP207     -0.1974
     72  CA        -8.6310   -7.1250   50.5640 C.3   207  ASP207      0.1709
     73  C         -7.7670   -8.3140   50.9510 C.2   207  ASP207      0.2293
     74  O         -7.8270   -8.7520   52.1020 O.2   207  ASP207     -0.2864
     75  CB        -9.8400   -7.5800   49.7190 C.3   207  ASP207      0.1436
     76  CG       -10.9950   -6.5910   49.6460 C.2   207  ASP207      0.3671
     77  OD1      -10.9410   -5.5530   50.3510 O.co2 207  ASP207     -0.2456
     78  OD2      -11.9650   -6.8660   48.9020 O.co2 207  ASP207     -0.2456
@<TRIPOS>BOND
     1    36    34    1
     2    33    34    1
     3    33    30    1
     4    34    35    1
     5    29    30    1
     6    30    31    1
     7    31    32    2
     8    43    42    1
     9    51    49    1
    10    42    41    1
    11    42    44    1
    12    41    38    1
    13    50    49    1
    14    49    46    1
    15    37    38    1
    16    64    63   ar
    17    38    39    1
    18    65    63   ar
    19    45    39   am
    20    45    46    1
    21    39    40    2
    22    63    62    1
    23    46    47    1
    24     8     6    1
    25    47    48    2
    26    62    61    2
    27    61    58    1
    28     7     6    1
    29     6     5    1
    30    58    57    1
    31    58    59    1
    32    57    54   am
    33     5     2    1
    34    52    53    1
    35    59    60    2
    36    56    53    1
    37     2     3    1
    38     2     1    1
    39    54    53    1
    40    54    55    2
    41     4     3    2
    42    20    22   ar
    43    20    18   ar
    44    17    18   ar
    45    17    15   ar
    46    22    21   ar
    47    18    16   ar
    48    15    14   ar
    49    21    19   ar
    50    16    14   ar
    51    16    19   ar
    52    14    13    1
    53    66    67    1
    54    13    10    1
    55    78    76   ar
    56    70    67    1
    57    76    75    1
    58    76    77   ar
    59    67    68    1
    60    75    72    1
    61    71    68   am
    62    71    72    1
    63    10     9    1
    64    10    11    1
    65    68    69    2
    66    72    73    1
    67    73    74    2
    68    11    12    2
    69    28    27    1
    70    27    24    1
    71    24    23    1
    72    24    25    1
    73    25    26    2
