@<TRIPOS>MOLECULE
tmp/4pseA00.pdb
 145 137 0 0 0
SMALL
GASTEIGER

@<TRIPOS>ATOM
      1  N          3.7890   15.7410   40.3570 N.3    28  ILE28      -0.1245
      2  CA         3.1210   14.4330   40.4420 C.3    28  ILE28       0.1561
      3  C          2.3410   14.3770   41.7640 C.2    28  ILE28       0.2260
      4  O          1.1540   14.0580   41.7530 O.2    28  ILE28      -0.2867
      5  CB         4.1350   13.2650   40.2700 C.3    28  ILE28       0.0252
      6  CG1        4.6290   13.1600   38.8000 C.3    28  ILE28       0.0019
      7  CG2        3.5500   11.9240   40.7490 C.3    28  ILE28       0.0019
      8  CD1        6.0090   12.4550   38.6300 C.3    28  ILE28       0.0001
      9  N         -1.7190   14.1030   42.3260 N.3    32  GLU32      -0.1245
     10  CA        -2.2720   13.0190   43.1370 C.3    32  GLU32       0.1567
     11  C         -3.1190   13.5940   44.2760 C.2    32  GLU32       0.2260
     12  O         -4.1810   13.0500   44.5750 O.2    32  GLU32      -0.2867
     13  CB        -1.1520   12.1450   43.6980 C.3    32  GLU32       0.0388
     14  CG        -0.4640   11.2800   42.6590 C.3    32  GLU32       0.1160
     15  CD         0.4620   10.2370   43.2450 C.2    32  GLU32       0.3649
     16  OE1        0.1100    9.6500   44.2950 O.co2  32  GLU32      -0.2457
     17  OE2        1.5310    9.9950   42.6430 O.co2  32  GLU32      -0.2457
     18  N          4.6780    5.7460   48.9400 N.3    59  GLY59      -0.1210
     19  CA         5.5830    5.6800   47.8070 C.3    59  GLY59       0.1956
     20  C          6.1850    7.0250   47.4290 C.2    59  GLY59       0.2613
     21  O          5.7140    8.0790   47.8720 O.2    59  GLY59      -0.2717
     22  N          7.1550    7.0020   46.5360 N.am   60  THR60      -0.1938
     23  CA         7.8070    8.2190   46.0460 C.3    60  THR60       0.2028
     24  C          6.7510    9.1090   45.3920 C.2    60  THR60       0.2642
     25  O          5.8960    8.6120   44.6530 O.2    60  THR60      -0.2714
     26  CB         8.9150    7.8800   45.0600 C.3    60  THR60       0.1808
     27  OG1        9.7770    6.9010   45.6170 O.3    60  THR60      -0.2208
     28  CG2        9.7750    9.0960   44.6970 C.3    60  THR60       0.0379
     29  N          6.7960   10.4300   45.6890 N.am   61  CYS61      -0.1953
     30  CA         5.8450   11.4340   45.1750 C.3    61  CYS61       0.1843
     31  C          4.4130   11.2410   45.6810 C.2    61  CYS61       0.2625
     32  O          3.5290   11.9440   45.2150 O.2    61  CYS61      -0.2714
     33  CB         5.9150   11.5760   43.6480 C.3    61  CYS61       0.0997
     34  SG         7.5870   11.6020   42.9700 S.3    61  CYS61      -0.0797
     35  N          4.1530   10.2990   46.6210 N.am   62  ASP62      -0.1971
     36  CA         2.8040   10.1160   47.1760 C.3    62  ASP62       0.1709
     37  C          2.5150   11.3630   48.0530 C.2    62  ASP62       0.2293
     38  O          3.3980   11.7850   48.8020 O.2    62  ASP62      -0.2864
     39  CB         2.7140    8.8310   48.0500 C.3    62  ASP62       0.1436
     40  CG         2.3790    7.4910   47.3820 C.2    62  ASP62       0.3671
     41  OD1        2.3760    7.4300   46.1360 O.co2  62  ASP62      -0.2456
     42  OD2        2.0730    6.5070   48.1230 O.co2  62  ASP62      -0.2456
     43  N         -2.6090    6.0630   46.1260 N.3    69  LEU69      -0.1245
     44  CA        -2.6350    4.8380   45.3330 C.3    69  LEU69       0.1561
     45  C         -2.8450    3.5470   46.0950 C.2    69  LEU69       0.2260
     46  O         -3.4700    2.6270   45.5660 O.2    69  LEU69      -0.2867
     47  CB        -1.3590    4.7010   44.4760 C.3    69  LEU69       0.0270
     48  CG        -1.1840    5.6700   43.3150 C.3    69  LEU69       0.0019
     49  CD1        0.2880    5.7580   42.9090 C.3    69  LEU69       0.0001
     50  CD2       -2.0340    5.2650   42.1220 C.3    69  LEU69       0.0001
     51  N         12.5760   11.2370   45.0810 N.3    98  VAL98      -0.1245
     52  CA        13.2630   10.3980   44.0980 C.3    98  VAL98       0.1561
     53  C         14.7180   10.1940   44.5430 C.2    98  VAL98       0.2260
     54  O         15.2360    9.0820   44.4610 O.2    98  VAL98      -0.2867
     55  CB        13.1830   11.0100   42.6630 C.3    98  VAL98       0.0252
     56  CG1       14.0570   10.2350   41.6770 C.3    98  VAL98       0.0019
     57  CG2       11.7340   11.0720   42.1690 C.3    98  VAL98       0.0019
     58  N         15.0460    7.5600   47.0750 N.3   101  PHE101     -0.1227
     59  CA        14.8310    6.2440   46.4720 C.3   101  PHE101      0.1736
     60  C         16.1320    5.7750   45.8300 C.2   101  PHE101      0.2595
     61  O         16.5310    4.6300   46.0050 O.2   101  PHE101     -0.2718
     62  CB        13.7000    6.2590   45.4250 C.3   101  PHE101      0.0547
     63  CG        13.6690    4.9840   44.5990 C.ar  101  PHE101     -0.0202
     64  CD1       13.1240    3.8190   45.1140 C.ar  101  PHE101     -0.0042
     65  CD2       14.2530    4.9370   43.3380 C.ar  101  PHE101     -0.0042
     66  CE1       13.1550    2.6310   44.3810 C.ar  101  PHE101     -0.0003
     67  CE2       14.2820    3.7500   42.6070 C.ar  101  PHE101     -0.0003
     68  CZ        13.7250    2.6100   43.1280 C.ar  101  PHE101     -0.0000
     69  N         16.7790    6.6600   45.0740 N.am  102  LEU102     -0.1980
     70  CA        18.0080    6.3300   44.3670 C.3   102  LEU102      0.1596
     71  C         19.1580    5.9630   45.3070 C.2   102  LEU102      0.2287
     72  O         19.9500    5.0850   44.9750 O.2   102  LEU102     -0.2864
     73  CB        18.3910    7.4890   43.4060 C.3   102  LEU102      0.0297
     74  CG        17.4200    7.7890   42.2450 C.3   102  LEU102      0.0022
     75  CD1       17.8200    9.0700   41.5300 C.3   102  LEU102      0.0001
     76  CD2       17.3270    6.6150   41.2590 C.3   102  LEU102      0.0001
     77  N          4.6920    0.9210   50.5740 N.3   133  TYR133     -0.1227
     78  CA         4.4910    0.8470   49.1310 C.3   133  TYR133      0.1736
     79  C          5.7200    1.4390   48.4450 C.2   133  TYR133      0.2596
     80  O          6.0810    2.5830   48.7340 O.2   133  TYR133     -0.2718
     81  CB         3.2180    1.6180   48.7210 C.3   133  TYR133      0.0548
     82  CG         3.0950    1.8620   47.2290 C.ar  133  TYR133     -0.0200
     83  CD1        3.1940    0.8100   46.3180 C.ar  133  TYR133     -0.0009
     84  CD2        2.8350    3.1350   46.7290 C.ar  133  TYR133     -0.0009
     85  CE1        3.0720    1.0300   44.9410 C.ar  133  TYR133      0.0417
     86  CE2        2.7000    3.3620   45.3580 C.ar  133  TYR133      0.0417
     87  CZ         2.8180    2.3070   44.4730 C.ar  133  TYR133      0.1957
     88  OH         2.6620    2.5240   43.1280 O.3   133  TYR133     -0.2866
     89  N          6.3260    0.6720   47.5170 N.am  134  SER134     -0.1938
     90  CA         7.4410    1.1290   46.6850 C.3   134  SER134      0.2055
     91  C          8.5900    1.6590   47.5550 C.2   134  SER134      0.2642
     92  O          9.0610    0.9010   48.4020 O.2   134  SER134     -0.2714
     93  CB         6.9310    2.1770   45.7000 C.3   134  SER134      0.2130
     94  OG         7.8380    2.3320   44.6280 O.3   134  SER134     -0.2179
     95  N          8.9790    2.9560   47.4630 N.am  135  GLN135     -0.1976
     96  CA        10.0440    3.4380   48.3640 C.3   135  GLN135      0.1601
     97  C          9.7120    3.1650   49.8530 C.2   135  GLN135      0.2287
     98  O         10.6130    2.9210   50.6610 O.2   135  GLN135     -0.2864
     99  CB        10.3370    4.9250   48.1670 C.3   135  GLN135      0.0394
    100  CG        11.6100    5.3330   48.9170 C.3   135  GLN135      0.0908
    101  CD        11.9310    6.8020   48.9090 C.2   135  GLN135      0.2608
    102  OE1       12.6590    7.2680   49.7910 O.2   135  GLN135     -0.2717
    103  NE2       11.4560    7.5530   47.9080 N.am  135  GLN135     -0.0878
    104  N          9.8100   -2.3090   39.4050 N.3   188  ILE188     -0.1245
    105  CA        10.2590   -1.8830   40.7400 C.3   188  ILE188      0.1561
    106  C         10.5910   -3.1130   41.5670 C.2   188  ILE188      0.2260
    107  O         11.6340   -3.1370   42.2190 O.2   188  ILE188     -0.2867
    108  CB         9.2380   -0.9380   41.4350 C.3   188  ILE188      0.0252
    109  CG1        8.9150    0.3080   40.5630 C.3   188  ILE188      0.0019
    110  CG2        9.6790   -0.5300   42.8510 C.3   188  ILE188      0.0019
    111  CD1       10.1520    1.1060   39.9900 C.3   188  ILE188      0.0001
    112  N         13.9780    0.7890   38.0950 N.3   193  ASP193     -0.1239
    113  CA        13.4770    2.1500   38.3420 C.3   193  ASP193      0.1674
    114  C         12.2650    2.5240   37.5100 C.2   193  ASP193      0.2266
    115  O         11.7610    3.6410   37.6460 O.2   193  ASP193     -0.2867
    116  CB        14.5820    3.1880   38.0300 C.3   193  ASP193      0.1410
    117  CG        15.7150    3.2370   39.0270 C.2   193  ASP193      0.3668
    118  OD1       15.7260    2.4040   39.9710 O.co2 193  ASP193     -0.2456
    119  OD2       16.6490    4.0130   38.8060 O.co2 193  ASP193     -0.2456
    120  N          8.5550    2.8010   36.3550 N.3   195  ILE195     -0.1245
    121  CA         7.1810    2.7550   36.8560 C.3   195  ILE195      0.1561
    122  C          6.2730    2.3520   35.6920 C.2   195  ILE195      0.2260
    123  O          6.1680    3.0780   34.7020 O.2   195  ILE195     -0.2867
    124  CB         6.7100    4.0940   37.4960 C.3   195  ILE195      0.0252
    125  CG1        7.6930    4.6640   38.5540 C.3   195  ILE195      0.0019
    126  CG2        5.2440    4.0050   38.0020 C.3   195  ILE195      0.0019
    127  CD1        7.8260    3.9460   39.7750 C.3   195  ILE195      0.0001
    128  N          2.6940   -1.5350   38.6280 N.3   199  HIS199     -0.1226
    129  CA         3.1750   -0.9640   39.8870 C.3   199  HIS199      0.1752
    130  C          2.1380   -0.0400   40.5420 C.2   199  HIS199      0.2595
    131  O          2.2530    0.2650   41.7320 O.2   199  HIS199     -0.2718
    132  CB         4.4790   -0.1780   39.6390 C.3   199  HIS199      0.0759
    133  CG         5.1070    0.3040   40.9060 C.ar  199  HIS199      0.0818
    134  ND1        5.6520   -0.5780   41.8200 N.ar  199  HIS199     -0.2268
    135  CD2        5.2190    1.5610   41.3860 C.ar  199  HIS199      0.1154
    136  CE1        6.0820    0.1670   42.8250 C.ar  199  HIS199      0.1986
    137  NE2        5.8470    1.4610   42.6060 N.ar  199  HIS199     -0.2212
    138  N          1.1430    0.4210   39.7620 N.am  200  LEU200     -0.1980
    139  CA         0.1680    1.4020   40.2220 C.3   200  LEU200      0.1596
    140  C         -1.1580    0.8310   40.6740 C.2   200  LEU200      0.2287
    141  O         -1.9980    1.5780   41.1590 O.2   200  LEU200     -0.2864
    142  CB        -0.0670    2.4390   39.1040 C.3   200  LEU200      0.0297
    143  CG         1.1660    3.1730   38.5380 C.3   200  LEU200      0.0022
    144  CD1        0.7710    4.0670   37.3590 C.3   200  LEU200      0.0001
    145  CD2        1.8660    4.0090   39.5870 C.3   200  LEU200      0.0001
@<TRIPOS>BOND
     1   123   122    2
     2   122   121    1
     3   120   121    1
     4   121   124    1
     5   144   143    1
     6   124   126    1
     7   124   125    1
     8   114   115    2
     9   114   113    1
    10   116   113    1
    11   116   117    1
    12   112   113    1
    13   143   142    1
    14   143   145    1
    15   125   127    1
    16   128   129    1
    17     8     6    1
    18     6     5    1
    19   119   117   ar
    20   117   118   ar
    21   142   139    1
    22   104   105    1
    23   132   129    1
    24   132   133    1
    25   138   139    1
    26   138   130   am
    27   129   130    1
    28   111   109    1
    29   139   140    1
    30     5     2    1
    31     5     7    1
    32     1     2    1
    33     2     3    1
    34   130   131    2
    35   109   108    1
    36   140   141    2
    37   105   108    1
    38   105   106    1
    39   133   135   ar
    40   133   134   ar
    41    76    74    1
    42   135   137   ar
    43   108   110    1
    44    75    74    1
    45   106   107    2
    46    56    55    1
    47     4     3    2
    48   134   136   ar
    49    50    48    1
    50    57    55    1
    51    74    73    1
    52     9    10    1
    53   137   136   ar
    54    67    68   ar
    55    67    65   ar
    56    17    15   ar
    57    14    15    1
    58    14    13    1
    59    55    52    1
    60    49    48    1
    61    34    33    1
    62    88    87    1
    63    68    66   ar
    64    10    13    1
    65    10    11    1
    66    15    16   ar
    67    48    47    1
    68    65    63   ar
    69    73    70    1
    70    33    30    1
    71    52    53    1
    72    52    51    1
    73    11    12    2
    74    70    69    1
    75    70    71    1
    76    66    64   ar
    77    54    53    2
    78    87    85   ar
    79    87    86   ar
    80    47    44    1
    81    63    64   ar
    82    63    62    1
    83    94    93    1
    84    25    24    2
    85    28    26    1
    86    85    83   ar
    87    72    71    2
    88    26    27    1
    89    26    23    1
    90    69    60   am
    91    30    31    1
    92    30    29    1
    93    32    31    2
    94    44    45    1
    95    44    43    1
    96    86    84   ar
    97    24    29   am
    98    24    23    1
    99    62    59    1
   100    46    45    2
   101    31    35   am
   102    93    90    1
   103    60    61    2
   104    60    59    1
   105    23    22    1
   106    41    40   ar
   107    83    82   ar
   108    59    58    1
   109    22    20   am
   110    35    36    1
   111    90    89    1
   112    90    91    1
   113    84    82   ar
   114    36    39    1
   115    36    37    1
   116    82    81    1
   117    40    39    1
   118    40    42   ar
   119    20    19    1
   120    20    21    2
   121    95    91   am
   122    95    96    1
   123    89    79   am
   124    91    92    2
   125    19    18    1
   126   103   101   am
   127    37    38    2
   128    99    96    1
   129    99   100    1
   130    96    97    1
   131    79    80    2
   132    79    78    1
   133    81    78    1
   134   101   100    1
   135   101   102    2
   136    78    77    1
   137    97    98    2
