@<TRIPOS>MOLECULE
tmp/4psgB00.pdb
 149 147 0 0 0
SMALL
GASTEIGER

@<TRIPOS>ATOM
      1  N          0.9550   18.8130   28.7000 N.3    66  GLU66      -0.1245
      2  CA         0.7600   17.5110   29.3070 C.3    66  GLU66       0.1567
      3  C          2.0290   16.6680   29.3620 C.2    66  GLU66       0.2260
      4  O          2.2030   15.9230   30.3030 O.2    66  GLU66      -0.2867
      5  CB        -0.3510   16.7390   28.6080 C.3    66  GLU66       0.0388
      6  CG        -0.6330   15.3840   29.2270 C.3    66  GLU66       0.1160
      7  CD        -1.0690   14.3630   28.1990 C.2    66  GLU66       0.3649
      8  OE1       -0.3880   14.2300   27.1600 O.co2  66  GLU66      -0.2457
      9  OE2       -2.0880   13.6840   28.4340 O.co2  66  GLU66      -0.2457
     10  N         -7.6540   16.3560   30.6380 N.3    88  TRP88      -0.1241
     11  CA        -7.8770   15.4500   31.7540 C.3    88  TRP88       0.1605
     12  C         -9.0270   15.8710   32.6540 C.2    88  TRP88       0.2264
     13  O         -9.2290   15.2650   33.7000 O.2    88  TRP88      -0.2867
     14  CB        -6.6060   15.3030   32.5910 C.3    88  TRP88       0.0550
     15  CG        -5.6170   14.3550   32.0120 C.ar   88  TRP88       0.0003
     16  CD1       -4.6510   14.6440   31.1010 C.ar   88  TRP88       0.0946
     17  CD2       -5.4930   12.9620   32.3030 C.ar   88  TRP88       0.0152
     18  NE1       -3.9270   13.5180   30.8040 N.ar   88  TRP88      -0.2442
     19  CE2       -4.4240   12.4700   31.5290 C.ar   88  TRP88       0.0810
     20  CE3       -6.1820   12.0800   33.1410 C.ar   88  TRP88       0.0012
     21  CZ2       -4.0290   11.1390   31.5650 C.ar   88  TRP88       0.0191
     22  CZ3       -5.7830   10.7600   33.1820 C.ar   88  TRP88       0.0001
     23  CH2       -4.7180   10.3010   32.3970 C.ar   88  TRP88       0.0015
     24  N          0.2670    8.0460   34.6840 N.3   114  TYR114     -0.1241
     25  CA         1.5940    8.0730   34.0670 C.3   114  TYR114      0.1605
     26  C          2.7700    8.6520   34.7960 C.2   114  TYR114      0.2264
     27  O          3.8480    8.1080   34.6880 O.2   114  TYR114     -0.2867
     28  CB         1.5570    8.8540   32.7960 C.3   114  TYR114      0.0534
     29  CG         0.6680    8.2840   31.7990 C.ar  114  TYR114     -0.0201
     30  CD1        1.1210    7.3090   30.9380 C.ar  114  TYR114     -0.0009
     31  CD2       -0.6340    8.7170   31.7140 C.ar  114  TYR114     -0.0009
     32  CE1        0.2880    6.7830   30.0010 C.ar  114  TYR114      0.0417
     33  CE2       -1.4750    8.2060   30.7800 C.ar  114  TYR114      0.0417
     34  CZ        -1.0000    7.2440   29.9350 C.ar  114  TYR114      0.1957
     35  OH        -1.8300    6.7400   29.0010 O.3   114  TYR114     -0.2866
     36  N         -7.8780    6.3170   34.5090 N.3   171  LEU171     -0.1231
     37  CA        -7.9020    5.6460   33.2380 C.3   171  LEU171      0.1678
     38  C         -6.7320    4.7160   33.1690 C.2   171  LEU171      0.2434
     39  O         -5.6870    5.0130   33.7380 O.2   171  LEU171     -0.2733
     40  CB        -7.8390    6.6340   32.0790 C.3   171  LEU171      0.0284
     41  CG        -9.1080    7.3940   31.6870 C.3   171  LEU171      0.0019
     42  CD1       -8.7480    8.5030   30.7140 C.3   171  LEU171      0.0001
     43  CD2      -10.1720    6.4860   31.0820 C.3   171  LEU171      0.0001
     44  N         -6.8970    3.5790   32.4660 N.am  172  PRO172     -0.2729
     45  CA        -5.7760    2.6990   32.1450 C.3   172  PRO172      0.1401
     46  C         -4.8620    3.4330   31.1900 C.2   172  PRO172      0.2269
     47  O         -5.3360    4.2830   30.4400 O.2   172  PRO172     -0.2865
     48  CB        -6.4330    1.5300   31.4040 C.3   172  PRO172      0.0296
     49  CG        -7.8790    1.6120   31.7460 C.3   172  PRO172      0.0237
     50  CD        -8.1660    3.0670   31.9250 C.3   172  PRO172      0.0939
     51  N         -2.7960    4.1940   28.0060 N.3   174  CYS174     -0.1221
     52  CA        -3.0640    3.8110   26.6540 C.3   174  CYS174      0.1808
     53  C         -1.7270    3.5940   26.0140 C.2   174  CYS174      0.2601
     54  O         -1.5260    2.6300   25.2820 O.2   174  CYS174     -0.2717
     55  CB        -3.8040    4.9150   25.9450 C.3   174  CYS174      0.0970
     56  SG        -5.0420    4.2830   24.8140 S.3   174  CYS174     -0.0800
     57  N         -0.8130    4.5140   26.2860 N.am  175  HIS175     -0.1975
     58  CA         0.5510    4.3300   25.8420 C.3   175  HIS175      0.1656
     59  C          1.3130    3.5820   26.9240 C.2   175  HIS175      0.2291
     60  O          1.7040    4.1590   27.9330 O.2   175  HIS175     -0.2864
     61  CB         1.2340    5.6300   25.3560 C.3   175  HIS175      0.0771
     62  CG         1.0000    6.8550   26.2000 C.ar  175  HIS175      0.0820
     63  ND1        2.0140    7.4610   26.9120 N.ar  175  HIS175     -0.2267
     64  CD2       -0.0870    7.6520   26.3500 C.ar  175  HIS175      0.1154
     65  CE1        1.5530    8.5490   27.4990 C.ar  175  HIS175      0.1986
     66  NE2        0.2790    8.6870   27.1780 N.ar  175  HIS175     -0.2212
     67  N          1.4240    1.3390   22.0460 N.3   193  GLN193     -0.1231
     68  CA         0.0850    1.8020   22.3730 C.3   193  GLN193      0.1698
     69  C         -0.9350    0.6750   22.2510 C.2   193  GLN193      0.2592
     70  O         -1.2070    0.1710   21.1540 O.2   193  GLN193     -0.2718
     71  CB        -0.3020    2.9650   21.4750 C.3   193  GLN193      0.0381
     72  CG        -1.1900    3.9750   22.1570 C.3   193  GLN193      0.0905
     73  CD        -1.6850    5.0240   21.1940 C.2   193  GLN193      0.2608
     74  OE1       -0.9950    5.3760   20.2380 O.2   193  GLN193     -0.2717
     75  NE2       -2.8910    5.5230   21.4310 N.am  193  GLN193     -0.0878
     76  N         -1.5100    0.2990   23.3870 N.am  194  ARG194     -0.1966
     77  CA        -2.4830   -0.7840   23.4370 C.3   194  ARG194      0.1729
     78  C         -3.6910   -0.5400   22.5450 C.2   194  ARG194      0.2617
     79  O         -4.2330   -1.4770   21.9760 O.2   194  ARG194     -0.2715
     80  CB        -2.9380   -1.0480   24.8750 C.3   194  ARG194      0.0348
     81  CG        -3.7490    0.0550   25.5310 C.3   194  ARG194      0.0492
     82  CD        -4.0890   -0.3550   26.9550 C.3   194  ARG194      0.2205
     83  NE        -4.9780    0.5950   27.6150 N.pl3 194  ARG194     -0.0865
     84  CZ        -6.1700    0.9430   27.1460 C.cat 194  ARG194      0.5346
     85  NH1       -6.6070    0.4300   26.0010 N.pl3 194  ARG194      0.1354
     86  NH2       -6.9160    1.8130   27.8100 N.pl3 194  ARG194      0.1354
     87  N         -4.0890    0.7220   22.4270 N.am  195  SER195     -0.1936
     88  CA        -5.3290    1.1070   21.7850 C.3   195  SER195      0.2058
     89  C         -5.1660    2.5410   21.2840 C.2   195  SER195      0.2683
     90  O         -4.4170    3.3070   21.8860 O.2   195  SER195     -0.2710
     91  CB        -6.4470    1.0350   22.8240 C.3   195  SER195      0.2130
     92  OG        -7.6860    1.4390   22.2830 O.3   195  SER195     -0.2179
     93  N         -5.8440    2.9140   20.1970 N.am  196  GLY196     -0.1715
     94  CA        -5.7710    4.3020   19.7180 C.2   196  GLY196      0.1480
     95  C         -6.6940    4.7680   18.5980 C.2   196  GLY196      0.2820
     96  O         -6.8940    4.0720   17.6070 O.2   196  GLY196     -0.2669
     97  N         -7.2370    5.9740   18.7480 N.am  197  ASP197     -0.1937
     98  CA        -8.0910    6.6390   17.7650 C.3   197  ASP197      0.1712
     99  C         -7.2520    7.3300   16.7020 C.2   197  ASP197      0.2293
    100  O         -6.4260    8.0960   16.9950 O.2   197  ASP197     -0.2864
    101  CB        -8.9620    7.6200   18.5340 C.3   197  ASP197      0.1436
    102  CG        -9.9970    8.3110   17.6900 C.2   197  ASP197      0.3671
    103  OD1      -10.2130    8.0160   16.5080 O.co2 197  ASP197     -0.2456
    104  OD2      -10.6280    9.1990   18.2460 O.co2 197  ASP197     -0.2456
    105  N         -6.2990   10.5720   18.9430 N.3   201  GLY201     -0.1225
    106  CA        -5.2790   10.2430   19.8940 C.3   201  GLY201      0.1811
    107  C         -3.9680    9.7220   19.4030 C.2   201  GLY201      0.2280
    108  O         -2.9910    9.8290   20.0560 O.2   201  GLY201     -0.2866
    109  N         -1.9650   12.8510   18.5590 N.3   204  PHE204     -0.1227
    110  CA        -1.5380   13.5420   19.7680 C.3   204  PHE204      0.1736
    111  C         -0.4280   12.7660   20.4470 C.2   204  PHE204      0.2595
    112  O          0.4730   13.3210   21.0720 O.2   204  PHE204     -0.2718
    113  CB        -2.7100   13.5350   20.7180 C.3   204  PHE204      0.0547
    114  CG        -2.5400   14.4110   21.9010 C.ar  204  PHE204     -0.0202
    115  CD1       -3.1280   15.6590   21.9150 C.ar  204  PHE204     -0.0042
    116  CD2       -1.8280   13.9870   23.0130 C.ar  204  PHE204     -0.0042
    117  CE1       -2.9970   16.4880   23.0080 C.ar  204  PHE204     -0.0003
    118  CE2       -1.6850   14.8130   24.1080 C.ar  204  PHE204     -0.0003
    119  CZ        -2.2730   16.0670   24.1070 C.ar  204  PHE204     -0.0000
    120  N         -0.5640   11.4580   20.3830 N.am  205  ASN205     -0.1974
    121  CA         0.3980   10.5790   20.9610 C.3   205  ASN205      0.1688
    122  C          1.6910   10.5730   20.2320 C.2   205  ASN205      0.2292
    123  O          2.7310   10.4520   20.8430 O.2   205  ASN205     -0.2864
    124  CB        -0.1620    9.1920   20.9490 C.3   205  ASN205      0.1181
    125  CG        -0.8970    8.9040   22.2050 C.2   205  ASN205      0.2629
    126  OD1       -2.1110    8.7370   22.2160 O.2   205  ASN205     -0.2716
    127  ND2       -0.1700    8.9280   23.2980 N.am  205  ASN205     -0.0877
    128  N         -7.8070    1.9650   15.3500 N.3   235  HIS235     -0.1241
    129  CA        -9.2120    2.0410   14.9980 C.3   235  HIS235      0.1621
    130  C         -9.6750    3.4080   14.5530 C.2   235  HIS235      0.2264
    131  O         -9.0840    4.4230   14.8870 O.2   235  HIS235     -0.2867
    132  CB       -10.0980    1.5290   16.1420 C.3   235  HIS235      0.0745
    133  CG       -10.0110    2.3260   17.4110 C.ar  235  HIS235      0.0817
    134  ND1       -9.2200    1.9470   18.4740 N.ar  235  HIS235     -0.2268
    135  CD2      -10.6690    3.4390   17.8130 C.ar  235  HIS235      0.1154
    136  CE1       -9.3700    2.8090   19.4630 C.ar  235  HIS235      0.1986
    137  NE2      -10.2430    3.7250   19.0880 N.ar  235  HIS235     -0.2212
    138  N        -13.2570    5.6760   14.2050 N.3   237  TYR237     -0.1241
    139  CA       -14.6700    5.7230   14.5480 C.3   237  TYR237      0.1605
    140  C        -15.5250    5.7700   13.2950 C.2   237  TYR237      0.2264
    141  O        -15.1750    6.4460   12.3330 O.2   237  TYR237     -0.2867
    142  CB       -14.9750    6.8960   15.4570 C.3   237  TYR237      0.0534
    143  CG       -14.6130    6.6020   16.8760 C.ar  237  TYR237     -0.0201
    144  CD1      -15.3940    5.7460   17.6410 C.ar  237  TYR237     -0.0009
    145  CD2      -13.4800    7.1600   17.4480 C.ar  237  TYR237     -0.0009
    146  CE1      -15.0600    5.4620   18.9490 C.ar  237  TYR237      0.0417
    147  CE2      -13.1330    6.8860   18.7540 C.ar  237  TYR237      0.0417
    148  CZ       -13.9280    6.0370   19.4990 C.ar  237  TYR237      0.1957
    149  OH       -13.5880    5.7620   20.7960 O.3   237  TYR237     -0.2866
@<TRIPOS>BOND
     1   141   140    2
     2   140   139    1
     3   138   139    1
     4   139   142    1
     5   130   131    2
     6   130   129    1
     7   129   128    1
     8   129   132    1
     9   142   143    1
    10   132   133    1
    11   103   102   ar
    12    99   100    2
    13    99    98    1
    14   143   145   ar
    15   143   144   ar
    16   133   135   ar
    17   133   134   ar
    18   145   147   ar
    19    96    95    2
    20   144   146   ar
    21   102   104   ar
    22   102   101    1
    23    98   101    1
    24    98    97    1
    25   135   137   ar
    26   134   136   ar
    27   109   110    1
    28    95    97   am
    29    95    94    1
    30   147   148   ar
    31   105   106    1
    32   146   148   ar
    33   137   136   ar
    34   107   106    1
    35   107   108    2
    36   148   149    1
    37    94    93    2
    38   110   111    1
    39   110   113    1
    40    93    89    1
    41   122   123    2
    42   122   121    1
    43    74    73    2
    44   120   111   am
    45   120   121    1
    46   111   112    2
    47   113   114    1
    48   124   121    1
    49   124   125    1
    50    70    69    2
    51    73    75   am
    52    73    72    1
    53    89    88    1
    54    89    90    2
    55    71    72    1
    56    71    68    1
    57    88    87    1
    58    88    91    1
    59   114   115   ar
    60   114   116   ar
    61   115   117   ar
    62    79    78    2
    63    67    68    1
    64   125   126    2
    65   125   127   am
    66    69    68    1
    67    69    76   am
    68    92    91    1
    69    87    78   am
    70    78    77    1
    71   117   119   ar
    72   116   118   ar
    73    76    77    1
    74    77    80    1
    75   119   118   ar
    76    56    55    1
    77    80    81    1
    78    54    53    2
    79    61    58    1
    80    61    62    1
    81    81    82    1
    82    58    57    1
    83    58    59    1
    84    55    52    1
    85    85    84    1
    86    53    57   am
    87    53    52    1
    88    62    64   ar
    89    62    63   ar
    90    64    66   ar
    91    52    51    1
    92    63    65   ar
    93    59    60    2
    94    82    83    1
    95    84    83    2
    96    84    86    1
    97     8     7   ar
    98    66    65   ar
    99     7     9   ar
   100     7     6    1
   101     5     6    1
   102     5     2    1
   103     1     2    1
   104    35    34    1
   105     2     3    1
   106     3     4    2
   107    34    32   ar
   108    34    33   ar
   109    32    30   ar
   110    47    46    2
   111    10    11    1
   112    42    41    1
   113    33    31   ar
   114    18    16   ar
   115    18    19   ar
   116    30    29   ar
   117    43    41    1
   118    16    15   ar
   119    46    45    1
   120    48    49    1
   121    48    45    1
   122    19    21   ar
   123    19    17   ar
   124    21    23   ar
   125    41    40    1
   126    31    29   ar
   127    49    50    1
   128    11    14    1
   129    11    12    1
   130    29    28    1
   131    50    44    1
   132    15    17   ar
   133    15    14    1
   134    40    37    1
   135    45    44    1
   136    17    20   ar
   137    23    22   ar
   138    44    38   am
   139    12    13    2
   140    28    25    1
   141    20    22   ar
   142    38    37    1
   143    38    39    2
   144    37    36    1
   145    25    24    1
   146    25    26    1
   147    27    26    2
