@<TRIPOS>MOLECULE
tmp/4pshB00.pdb
 135 128 0 0 0
SMALL
GASTEIGER

@<TRIPOS>ATOM
      1  N         19.5960  -15.0340  125.1820 N.3    16  SER16      -0.1217
      2  CA        18.7140  -16.1400  125.4570 C.3    16  SER16       0.1889
      3  C         18.0740  -16.6350  124.1720 C.2    16  SER16       0.2288
      4  O         17.3360  -15.9290  123.5650 O.2    16  SER16      -0.2866
      5  CB        17.6910  -15.7270  126.4880 C.3    16  SER16       0.2089
      6  OG        16.7570  -16.7200  126.6780 O.3    16  SER16      -0.2183
      7  N         15.5770  -18.1470  122.8980 N.3    18  ASP18      -0.1225
      8  CA        14.1740  -18.4590  122.8470 C.3    18  ASP18       0.1805
      9  C         13.3760  -17.3220  122.2470 C.2    18  ASP18       0.2597
     10  O         12.2520  -17.1310  122.5890 O.2    18  ASP18      -0.2718
     11  CB        13.6670  -18.7270  124.2520 C.3    18  ASP18       0.1424
     12  CG        13.8880  -17.5790  125.1710 C.2    18  ASP18       0.3668
     13  OD1       14.7290  -16.7560  124.8890 O.co2  18  ASP18      -0.2456
     14  OD2       13.2360  -17.4810  126.1880 O.co2  18  ASP18      -0.2456
     15  N         13.9530  -16.5920  121.3170 N.am   19  PHE19      -0.1976
     16  CA        13.3920  -15.3350  120.8430 C.3    19  PHE19       0.1639
     17  C         13.5080  -15.1790  119.3400 C.2    19  PHE19       0.2290
     18  O         14.2050  -14.3390  118.8670 O.2    19  PHE19      -0.2864
     19  CB        14.0970  -14.1910  121.5570 C.3    19  PHE19       0.0560
     20  CG        13.3000  -12.9410  121.7170 C.ar   19  PHE19      -0.0200
     21  CD1       12.2030  -12.9150  122.4530 C.ar   19  PHE19      -0.0042
     22  CD2       13.7400  -11.7640  121.2180 C.ar   19  PHE19      -0.0042
     23  CE1       11.5320  -11.7880  122.6250 C.ar   19  PHE19      -0.0003
     24  CE2       13.0560  -10.6560  121.4050 C.ar   19  PHE19      -0.0003
     25  CZ        11.9510  -10.6790  122.1100 C.ar   19  PHE19      -0.0000
     26  N         17.1530  -14.5870  118.0930 N.3    23  GLU23      -0.1245
     27  CA        18.0200  -15.6710  118.4930 C.3    23  GLU23       0.1567
     28  C         17.1670  -16.8440  118.8530 C.2    23  GLU23       0.2260
     29  O         16.2300  -16.6980  119.6280 O.2    23  GLU23      -0.2867
     30  CB        18.9210  -15.2940  119.6880 C.3    23  GLU23       0.0388
     31  CG        18.1990  -14.7150  120.9020 C.3    23  GLU23       0.1160
     32  CD        18.1870  -13.1910  120.8830 C.2    23  GLU23       0.3649
     33  OE1       19.0960  -12.5930  120.2460 O.co2  23  GLU23      -0.2457
     34  OE2       17.2710  -12.5820  121.4910 O.co2  23  GLU23      -0.2457
     35  N         17.1810  -15.2790  130.1820 N.3    57  PHE57      -0.1241
     36  CA        17.1170  -13.8580  129.8410 C.3    57  PHE57       0.1605
     37  C         17.3980  -12.9190  131.0330 C.2    57  PHE57       0.2264
     38  O         18.1820  -11.9790  130.9160 O.2    57  PHE57      -0.2867
     39  CB        15.8090  -13.4910  129.1450 C.3    57  PHE57       0.0534
     40  CG        15.6850  -12.0240  128.8780 C.ar   57  PHE57      -0.0203
     41  CD1       16.2380  -11.4700  127.7230 C.ar   57  PHE57      -0.0042
     42  CD2       15.0600  -11.1710  129.8220 C.ar   57  PHE57      -0.0042
     43  CE1       16.1560  -10.0680  127.4900 C.ar   57  PHE57      -0.0003
     44  CE2       14.9820   -9.7620  129.6210 C.ar   57  PHE57      -0.0003
     45  CZ        15.5100   -9.2110  128.4430 C.ar   57  PHE57      -0.0000
     46  N         20.5260   -9.5890  122.6080 N.3    74  SER74      -0.1202
     47  CA        19.4860  -10.5150  122.9440 C.3    74  SER74       0.2020
     48  C         18.1040   -9.9050  122.9080 C.2    74  SER74       0.2619
     49  O         17.3430  -10.0680  123.7860 O.2    74  SER74      -0.2717
     50  CB        19.7750  -11.1090  124.3110 C.3    74  SER74       0.2103
     51  OG        18.9770  -12.2010  124.5820 O.3    74  SER74      -0.2182
     52  N         17.7960   -9.1900  121.8620 N.am   75  GLY75      -0.1942
     53  CA        16.5430   -8.4860  121.7480 C.3    75  GLY75       0.2014
     54  C         16.1560   -7.6250  122.9120 C.2    75  GLY75       0.2642
     55  O         15.0090   -7.4910  123.1880 O.2    75  GLY75      -0.2714
     56  N         17.1350   -7.0370  123.5810 N.am   76  MET76      -0.1917
     57  CA        16.9460   -6.3190  124.8300 C.3    76  MET76       0.1952
     58  C         16.5120   -4.8960  124.6310 C.2    76  MET76       0.2659
     59  O         17.1610   -4.1190  124.0220 O.2    76  MET76      -0.2711
     60  CB        18.1980   -6.4070  125.7120 C.2    76  MET76       0.0110
     61  CG        18.1620   -5.6680  127.0590 C.2    76  MET76       0.0285
     62  SD        19.4740   -5.7840  128.2020 S.3    76  MET76      -0.1125
     63  CE        19.2270   -7.3570  128.6640 C.3    76  MET76       0.0742
     64  N         15.3620   -4.5810  125.1690 N.am   77  THR77      -0.1948
     65  CA        14.8670   -3.2220  125.1530 C.3    77  THR77       0.1897
     66  C         15.7190   -2.3050  126.0170 C.2    77  THR77       0.2313
     67  O         16.0350   -2.6540  127.1750 O.2    77  THR77      -0.2863
     68  CB        13.4430   -3.1990  125.6280 C.3    77  THR77       0.1794
     69  OG1       12.6700   -4.0480  124.7610 O.3    77  THR77      -0.2208
     70  CG2       12.8870   -1.7730  125.6090 C.3    77  THR77       0.0378
     71  N         17.0210   -0.1520  133.1660 N.3    82  ARG82      -0.1245
     72  CA        18.2640   -0.8800  132.9200 C.3    82  ARG82       0.1563
     73  C         19.4840    0.0680  132.8240 C.2    82  ARG82       0.2260
     74  O         20.6080   -0.3110  133.1910 O.2    82  ARG82      -0.2867
     75  CB        18.1400   -1.8170  131.7210 C.3    82  ARG82       0.0307
     76  CG        17.1150   -2.8890  131.9470 C.3    82  ARG82       0.0489
     77  CD        16.7220   -3.6090  130.6860 C.3    82  ARG82       0.2205
     78  NE        15.6440   -4.5840  130.9170 N.pl3  82  ARG82      -0.0865
     79  CZ        14.9520   -5.1950  129.9520 C.cat  82  ARG82       0.5346
     80  NH1       15.2170   -4.9470  128.6860 N.pl3  82  ARG82       0.1354
     81  NH2       13.9880   -6.0640  130.2490 N.pl3  82  ARG82       0.1354
     82  N          7.8090  -13.9550  130.3000 N.3   123  GLN123     -0.1245
     83  CA         9.1980  -14.2680  130.5920 C.3   123  GLN123      0.1566
     84  C          9.6280  -13.3180  131.6720 C.2   123  GLN123      0.2260
     85  O          9.5020  -12.0950  131.5020 O.2   123  GLN123     -0.2867
     86  CB        10.0910  -14.0970  129.3630 C.3   123  GLN123      0.0367
     87  CG        11.6290  -14.1610  129.6520 C.3   123  GLN123      0.0905
     88  CD        12.3870  -14.4860  128.3850 C.2   123  GLN123      0.2608
     89  OE1       12.6340  -13.6240  127.5300 O.2   123  GLN123     -0.2717
     90  NE2       12.7240  -15.7510  128.2280 N.am  123  GLN123     -0.0878
     91  N         11.4500   -9.4670  131.5880 N.3   126  THR126     -0.1203
     92  CA        11.1900   -8.7360  130.3170 C.3   126  THR126      0.1994
     93  C         10.2840   -7.5030  130.5130 C.2   126  THR126      0.2618
     94  O          9.6470   -7.3420  131.5490 O.2   126  THR126     -0.2717
     95  CB        10.5000   -9.5980  129.2890 C.3   126  THR126      0.1784
     96  OG1        9.2270   -9.9720  129.8260 O.3   126  THR126     -0.2211
     97  CG2       11.3440  -10.8650  128.9320 C.3   126  THR126      0.0376
     98  N         10.2230   -6.6390  129.5110 N.am  127  THR127     -0.1952
     99  CA         9.3700   -5.4540  129.5770 C.3   127  THR127      0.1897
    100  C          7.9090   -5.8820  129.6090 C.2   127  THR127      0.2313
    101  O          7.0780   -5.1700  130.1510 O.2   127  THR127     -0.2863
    102  CB         9.6130   -4.5050  128.3930 C.3   127  THR127      0.1794
    103  OG1        9.6400   -5.2760  127.1750 O.3   127  THR127     -0.2208
    104  CG2       10.9360   -3.7330  128.5610 C.3   127  THR127      0.0378
    105  N         10.5560  -18.5030  127.1010 N.3   146  PHE146     -0.1241
    106  CA         9.2920  -18.2550  126.4280 C.3   146  PHE146      0.1605
    107  C          8.6130  -19.5470  126.0480 C.2   146  PHE146      0.2264
    108  O          7.3710  -19.6290  126.0360 O.2   146  PHE146     -0.2867
    109  CB         9.4480  -17.3700  125.1940 C.3   146  PHE146      0.0534
    110  CG         9.2420  -15.9490  125.4900 C.ar  146  PHE146     -0.0203
    111  CD1        7.9860  -15.5070  125.9800 C.ar  146  PHE146     -0.0042
    112  CD2       10.2980  -15.0320  125.3380 C.ar  146  PHE146     -0.0042
    113  CE1        7.7830  -14.1450  126.3190 C.ar  146  PHE146     -0.0003
    114  CE2       10.1310  -13.6790  125.6350 C.ar  146  PHE146     -0.0003
    115  CZ         8.8690  -13.2220  126.1370 C.ar  146  PHE146     -0.0000
    116  N          6.9020   -9.3620  122.8800 N.3   164  ASP164     -0.1239
    117  CA         7.2360   -8.4120  121.8150 C.3   164  ASP164      0.1674
    118  C          6.6100   -8.8680  120.5290 C.2   164  ASP164      0.2266
    119  O          6.6370  -10.0620  120.2140 O.2   164  ASP164     -0.2867
    120  CB         8.7380   -8.3340  121.6050 C.3   164  ASP164      0.1410
    121  CG         9.4890   -7.8320  122.8430 C.2   164  ASP164      0.3668
    122  OD1        9.1040   -8.2280  123.9740 O.co2 164  ASP164     -0.2456
    123  OD2       10.4870   -7.0530  122.6760 O.co2 164  ASP164     -0.2456
    124  N         15.3270   -1.8360  120.6630 N.3   190  TYR190     -0.1241
    125  CA        16.3930   -2.7370  121.1160 C.3   190  TYR190      0.1605
    126  C         17.8000   -2.1120  121.0210 C.2   190  TYR190      0.2264
    127  O         18.1050   -1.4240  120.0510 O.2   190  TYR190     -0.2867
    128  CB        16.4260   -4.0760  120.3700 C.3   190  TYR190      0.0534
    129  CG        15.1720   -4.9030  120.3710 C.ar  190  TYR190     -0.0201
    130  CD1       14.0800   -4.5960  121.1880 C.ar  190  TYR190     -0.0009
    131  CD2       15.0780   -6.0260  119.5440 C.ar  190  TYR190     -0.0009
    132  CE1       12.9260   -5.3510  121.1540 C.ar  190  TYR190      0.0417
    133  CE2       13.9290   -6.7930  119.4940 C.ar  190  TYR190      0.0417
    134  CZ        12.8560   -6.4550  120.3120 C.ar  190  TYR190      0.1957
    135  OH        11.7220   -7.2480  120.2810 O.3   190  TYR190     -0.2866
@<TRIPOS>BOND
     1    26    27    1
     2    27    28    1
     3    27    30    1
     4    28    29    2
     5    18    17    2
     6    17    16    1
     7   133   131   ar
     8   133   134   ar
     9   131   129   ar
    10    30    31    1
    11   127   126    2
    12   119   118    2
    13    33    32   ar
    14   135   134    1
    15   134   132   ar
    16   128   129    1
    17   128   125    1
    18   129   130   ar
    19   118   117    1
    20   124   125    1
    21    16    15    1
    22    16    19    1
    23    32    31    1
    24    32    34   ar
    25   126   125    1
    26   132   130   ar
    27    22    24   ar
    28    22    20   ar
    29    15     9   am
    30    24    25   ar
    31    19    20    1
    32   120   117    1
    33   120   121    1
    34    20    21   ar
    35    53    52    1
    36    53    54    1
    37   117   116    1
    38    52    48   am
    39    25    23   ar
    40     9    10    2
    41     9     8    1
    42    21    23   ar
    43    46    47    1
    44   123   121   ar
    45   121   122   ar
    46     8     7    1
    47     8    11    1
    48    48    47    1
    49    48    49    2
    50    54    55    2
    51    54    56   am
    52    47    50    1
    53     4     3    2
    54    56    57    1
    55    59    58    2
    56     3     2    1
    57    11    12    1
    58    50    51    1
    59    58    57    1
    60    58    64   am
    61    69    68    1
    62    57    60    1
    63    13    12   ar
    64    65    64    1
    65    65    68    1
    66    65    66    1
    67    12    14   ar
    68     1     2    1
    69   109   110    1
    70   109   106    1
    71   112   110   ar
    72   112   114   ar
    73     2     5    1
    74   110   111   ar
    75    70    68    1
    76   114   115   ar
    77    60    61    2
    78   111   113   ar
    79    66    67    2
    80   108   107    2
    81   107   106    1
    82   115   113   ar
    83   106   105    1
    84     5     6    1
    85    61    62    1
    86   103   102    1
    87    43    41   ar
    88    43    45   ar
    89    89    88    2
    90    41    40   ar
    91    62    63    1
    92    90    88   am
    93    88    87    1
    94   102   104    1
    95   102    99    1
    96    45    44   ar
    97    80    79    1
    98    40    39    1
    99    40    42   ar
   100    97    95    1
   101    39    36    1
   102    95    96    1
   103    95    92    1
   104    86    87    1
   105    86    83    1
   106    98    99    1
   107    98    93   am
   108    99   100    1
   109   100   101    2
   110    44    42   ar
   111    36    35    1
   112    36    37    1
   113    79    81    1
   114    79    78    2
   115    82    83    1
   116    92    93    1
   117    92    91    1
   118    93    94    2
   119    83    84    1
   120    77    78    1
   121    77    76    1
   122    38    37    2
   123    85    84    2
   124    75    76    1
   125    75    72    1
   126    73    72    1
   127    73    74    2
   128    72    71    1
