@<TRIPOS>MOLECULE
tmp/4psiB00.pdb
 142 138 0 0 0
SMALL
GASTEIGER

@<TRIPOS>ATOM
      1  N         10.4520   23.5110   -5.1190 N.3    13  GLN13      -0.1231
      2  CA         9.0060   23.6280   -4.9530 C.3    13  GLN13       0.1683
      3  C          8.6380   23.6690   -3.4760 C.2    13  GLN13       0.2434
      4  O          9.0160   22.7790   -2.7160 O.2    13  GLN13      -0.2733
      5  CB         8.2830   22.4720   -5.6450 C.3    13  GLN13       0.0380
      6  CG         6.7710   22.5120   -5.4970 C.3    13  GLN13       0.0905
      7  CD         6.0630   21.6560   -6.5290 C.2    13  GLN13       0.2608
      8  OE1        6.6470   21.2820   -7.5470 O.2    13  GLN13      -0.2717
      9  NE2        4.7990   21.3420   -6.2720 N.am   13  GLN13      -0.0878
     10  N          7.8950   24.7080   -3.0670 N.am   14  PRO14      -0.2729
     11  CA         7.4960   24.9000   -1.6690 C.3    14  PRO14       0.1401
     12  C          6.6770   23.7320   -1.1360 C.2    14  PRO14       0.2269
     13  O          5.9130   23.1150   -1.8780 O.2    14  PRO14      -0.2865
     14  CB         6.6280   26.1620   -1.7260 C.3    14  PRO14       0.0296
     15  CG         7.0930   26.8810   -2.9430 C.3    14  PRO14       0.0237
     16  CD         7.4190   25.8030   -3.9280 C.3    14  PRO14       0.0939
     17  N          8.4350   28.1350   11.6390 N.3    19  LYS19      -0.1245
     18  CA         8.8440   29.3580   12.3200 C.3    19  LYS19       0.1561
     19  C          9.6010   29.0720   13.6130 C.2    19  LYS19       0.2260
     20  O          9.0950   28.4020   14.5120 O.2    19  LYS19      -0.2867
     21  CB         7.6450   30.2650   12.6040 C.3    19  LYS19       0.0271
     22  CG         8.0060   31.5110   13.4030 C.3    19  LYS19       0.0035
     23  CD         6.8210   32.4450   13.5710 C.3    19  LYS19       0.0206
     24  CE         7.1950   33.6520   14.4190 C.3    19  LYS19       0.1093
     25  NZ         6.0580   34.6000   14.5840 N.3    19  LYS19      -0.1314
     26  N         13.5990   36.4230   14.3220 N.3    26  LYS26      -0.1245
     27  CA        12.8300   35.3420   13.7160 C.3    26  LYS26       0.1561
     28  C         13.5940   34.6240   12.6110 C.2    26  LYS26       0.2260
     29  O         14.2710   35.2520   11.7970 O.2    26  LYS26      -0.2867
     30  CB        11.5180   35.8790   13.1400 C.3    26  LYS26       0.0271
     31  CG        10.5870   36.5170   14.1530 C.3    26  LYS26       0.0035
     32  CD         9.3390   37.0390   13.4610 C.3    26  LYS26       0.0206
     33  CE         8.4180   37.7540   14.4320 C.3    26  LYS26       0.1093
     34  NZ         7.2000   38.2700   13.7490 N.3    26  LYS26      -0.1314
     35  N         12.8600   31.5750    9.6110 N.3    28  PHE28      -0.1241
     36  CA        11.9090   30.7010    8.9400 C.3    28  PHE28       0.1605
     37  C         12.6160   29.6580    8.0900 C.2    28  PHE28       0.2264
     38  O         13.4500   29.9870    7.2480 O.2    28  PHE28      -0.2867
     39  CB        10.9400   31.5110    8.0780 C.3    28  PHE28       0.0534
     40  CG        10.0140   32.3840    8.8700 C.ar   28  PHE28      -0.0203
     41  CD1        8.7830   31.9080    9.2900 C.ar   28  PHE28      -0.0042
     42  CD2       10.3750   33.6780    9.1990 C.ar   28  PHE28      -0.0042
     43  CE1        7.9290   32.7090   10.0210 C.ar   28  PHE28      -0.0003
     44  CE2        9.5270   34.4840    9.9310 C.ar   28  PHE28      -0.0003
     45  CZ         8.3010   33.9980   10.3430 C.ar   28  PHE28      -0.0000
     46  N          8.4390   40.3280    7.7360 N.3    59  ASP59      -0.1225
     47  CA         7.3430   39.6750    8.4430 C.3    59  ASP59       0.1805
     48  C          6.0340   40.4180    8.1860 C.2    59  ASP59       0.2598
     49  O          5.9970   41.3700    7.4050 O.2    59  ASP59      -0.2718
     50  CB         7.6310   39.5310    9.9480 C.3    59  ASP59       0.1424
     51  CG         7.7550   40.8690   10.6710 C.2    59  ASP59       0.3668
     52  OD1        7.4710   41.9270   10.0730 O.co2  59  ASP59      -0.2456
     53  OD2        8.1320   40.8560   11.8630 O.co2  59  ASP59      -0.2456
     54  N          4.9660   39.9880    8.8460 N.am   60  ALA60      -0.1966
     55  CA         3.6630   40.6160    8.6660 C.3    60  ALA60       0.1728
     56  C          3.6500   42.0580    9.1720 C.2    60  ALA60       0.2616
     57  O          2.8540   42.8760    8.7130 O.2    60  ALA60      -0.2715
     58  CB         2.5800   39.7990    9.3520 C.3    60  ALA60       0.0334
     59  N          4.5370   42.3630   10.1140 N.am   61  LYS61      -0.1977
     60  CA         4.6100   43.7010   10.6910 C.3    61  LYS61       0.1596
     61  C          5.5890   44.5960    9.9370 C.2    61  LYS61       0.2287
     62  O          5.8700   45.7180   10.3580 O.2    61  LYS61      -0.2864
     63  CB         4.9940   43.6280   12.1700 C.3    61  LYS61       0.0298
     64  CG         3.9850   42.8930   13.0320 C.3    61  LYS61       0.0038
     65  CD         4.4350   42.8300   14.4800 C.3    61  LYS61       0.0206
     66  CE         3.4340   42.0700   15.3350 C.3    61  LYS61       0.1093
     67  NZ         3.9050   41.9160   16.7380 N.3    61  LYS61      -0.1314
     68  N          7.6120   26.2550   15.4560 N.3   110  ARG110     -0.1245
     69  CA         6.1680   26.3000   15.2600 C.3   110  ARG110      0.1563
     70  C          5.8250   26.1950   13.7780 C.2   110  ARG110      0.2260
     71  O          6.3810   26.9150   12.9500 O.2   110  ARG110     -0.2867
     72  CB         5.5900   27.5870   15.8470 C.3   110  ARG110      0.0307
     73  CG         4.0720   27.6170   15.9120 C.3   110  ARG110      0.0489
     74  CD         3.5930   28.9100   16.5420 C.3   110  ARG110      0.2205
     75  NE         4.2230   29.1410   17.8390 N.pl3 110  ARG110     -0.0865
     76  CZ         4.3470   30.3360   18.4070 C.cat 110  ARG110      0.5346
     77  NH1        3.8890   31.4160   17.7910 N.pl3 110  ARG110      0.1354
     78  NH2        4.9360   30.4510   19.5900 N.pl3 110  ARG110      0.1354
     79  N          0.5360   26.9980    9.3880 N.3   111  LYS111     -0.1231
     80  CA        -0.5690   26.2160    8.8340 C.3   111  LYS111      0.1693
     81  C         -1.1500   26.8300    7.5580 C.2   111  LYS111      0.2592
     82  O         -1.7840   26.1380    6.7610 O.2   111  LYS111     -0.2718
     83  CB        -1.6750   26.0520    9.8800 C.3   111  LYS111      0.0285
     84  CG        -1.2210   25.3770   11.1660 C.3   111  LYS111      0.0035
     85  CD        -0.6830   23.9810   10.9050 C.3   111  LYS111      0.0206
     86  CE        -0.2810   23.2990   12.2010 C.3   111  LYS111      0.1093
     87  NZ         0.2620   21.9370   11.9570 N.3   111  LYS111     -0.1314
     88  N         -0.9230   28.1280    7.3720 N.am  112  ASN112     -0.1960
     89  CA        -1.4600   28.8530    6.2290 C.3   112  ASN112      0.1819
     90  C         -0.3850   29.2560    5.2180 C.2   112  ASN112      0.2621
     91  O         -0.5710   29.1000    4.0110 O.2   112  ASN112     -0.2715
     92  CB        -2.2410   30.0930    6.6970 C.3   112  ASN112      0.1195
     93  CG        -3.4520   29.7470    7.5510 C.2   112  ASN112      0.2630
     94  OD1       -4.2550   28.8900    7.1950 O.2   112  ASN112     -0.2716
     95  ND2       -3.5790   30.4170    8.6910 N.am  112  ASN112     -0.0877
     96  N          0.7330   29.7780    5.7150 N.am  113  ARG113     -0.1964
     97  CA         1.8500   30.1540    4.8520 C.3   113  ARG113      0.1714
     98  C          2.7360   28.9510    4.5390 C.2   113  ARG113      0.2458
     99  O          3.3230   28.3570    5.4430 O.2   113  ARG113     -0.2730
    100  CB         2.6920   31.2590    5.4970 C.3   113  ARG113      0.0347
    101  CG         3.8630   31.7320    4.6470 C.3   113  ARG113      0.0492
    102  CD         4.7320   32.7110    5.4180 C.3   113  ARG113      0.2205
    103  NE         4.0440   33.9750    5.6610 N.pl3 113  ARG113     -0.0865
    104  CZ         4.1790   35.0530    4.8970 C.cat 113  ARG113      0.5346
    105  NH1        4.9840   35.0220    3.8440 N.pl3 113  ARG113      0.1354
    106  NH2        3.5150   36.1640    5.1870 N.pl3 113  ARG113      0.1354
    107  N          2.8310   28.5860    3.2520 N.am  114  PRO114     -0.2716
    108  CA         3.6460   27.4490    2.8140 C.3   114  PRO114      0.1536
    109  C          5.1080   27.8340    2.6120 C.2   114  PRO114      0.2598
    110  O          5.9770   26.9620    2.5850 O.2   114  PRO114     -0.2715
    111  CB         3.0170   27.0810    1.4700 C.3   114  PRO114      0.0310
    112  CG         2.5170   28.3810    0.9400 C.3   114  PRO114      0.0237
    113  CD         2.0720   29.1830    2.1380 C.3   114  PRO114      0.0939
    114  N          5.3720   29.1300    2.4800 N.am  115  PHE115     -0.1974
    115  CA         6.7080   29.6070    2.1520 C.3   115  PHE115      0.1639
    116  C          6.8960   31.0620    2.5750 C.2   115  PHE115      0.2290
    117  O          6.0380   31.9060    2.3210 O.2   115  PHE115     -0.2864
    118  CB         6.9450   29.4690    0.6450 C.3   115  PHE115      0.0560
    119  CG         8.3720   29.6830    0.2260 C.ar  115  PHE115     -0.0200
    120  CD1        9.2260   28.6060    0.0610 C.ar  115  PHE115     -0.0042
    121  CD2        8.8560   30.9580   -0.0190 C.ar  115  PHE115     -0.0042
    122  CE1       10.5380   28.7970   -0.3310 C.ar  115  PHE115     -0.0003
    123  CE2       10.1660   31.1560   -0.4090 C.ar  115  PHE115     -0.0003
    124  CZ        11.0080   30.0740   -0.5650 C.ar  115  PHE115     -0.0000
    125  N          8.7960   34.2020    1.7040 N.3   116  GLY116     -0.1210
    126  CA         9.5770   34.8090    0.6440 C.3   116  GLY116      0.1956
    127  C          8.9420   34.6030   -0.7170 C.2   116  GLY116      0.2613
    128  O          7.7670   34.2530   -0.8160 O.2   116  GLY116     -0.2717
    129  N          9.7240   34.8190   -1.7690 N.am  117  SER117     -0.1938
    130  CA         9.2340   34.6630   -3.1330 C.3   117  SER117      0.2055
    131  C          9.9890   33.5670   -3.8770 C.2   117  SER117      0.2642
    132  O         11.0570   33.1340   -3.4420 O.2   117  SER117     -0.2714
    133  CB         9.3410   35.9860   -3.8930 C.3   117  SER117      0.2130
    134  OG         9.4540   35.7610   -5.2880 O.3   117  SER117     -0.2179
    135  N          9.4200   33.1310   -5.0000 N.am  118  ILE118     -0.1977
    136  CA         9.9880   32.0600   -5.8190 C.3   118  ILE118      0.1596
    137  C         10.1620   30.7630   -5.0320 C.2   118  ILE118      0.2287
    138  O          9.4580   29.7810   -5.2710 O.2   118  ILE118     -0.2864
    139  CB        11.3110   32.4950   -6.4480 C.3   118  ILE118      0.0276
    140  CG1       11.0150   33.5540   -7.5300 C.3   118  ILE118      0.0022
    141  CG2       12.0730   31.3150   -6.9980 C.3   118  ILE118      0.0022
    142  CD1       12.2390   34.2630   -8.0410 C.3   118  ILE118      0.0001
@<TRIPOS>BOND
     1   142   140    1
     2     8     7    2
     3   140   139    1
     4   141   139    1
     5     7     9   am
     6     7     6    1
     7   139   136    1
     8   136   137    1
     9   136   135    1
    10     5     6    1
    11     5     2    1
    12   134   133    1
    13   138   137    2
    14     1     2    1
    15   135   131   am
    16     2     3    1
    17    16    10    1
    18    16    15    1
    19   133   130    1
    20   131   132    2
    21   131   130    1
    22     3    10   am
    23     3     4    2
    24   130   129    1
    25    10    11    1
    26    15    14    1
    27    13    12    2
    28   129   127   am
    29    14    11    1
    30    11    12    1
    31   128   127    2
    32   127   126    1
    33   124   123   ar
    34   124   122   ar
    35   123   121   ar
    36   122   120   ar
    37   121   119   ar
    38   120   119   ar
    39   119   118    1
    40   126   125    1
    41   118   115    1
    42   112   111    1
    43   112   113    1
    44   111   108    1
    45   113   107    1
    46   115   114    1
    47   115   116    1
    48   117   116    2
    49   114   109   am
    50   110   109    2
    51   109   108    1
    52   108   107    1
    53   107    98   am
    54   105   104    1
    55    91    90    2
    56    98    97    1
    57    98    99    2
    58   101   102    1
    59   101   100    1
    60    97   100    1
    61    97    96    1
    62   104   106    1
    63   104   103    2
    64    90    96   am
    65    90    89    1
    66   102   103    1
    67    89    92    1
    68    89    88    1
    69    92    93    1
    70    82    81    2
    71    94    93    2
    72    38    37    2
    73    88    81   am
    74    49    48    2
    75    93    95   am
    76    81    80    1
    77    46    47    1
    78    39    40    1
    79    39    36    1
    80    37    36    1
    81    48    47    1
    82    48    54   am
    83    47    50    1
    84    55    54    1
    85    55    56    1
    86    55    58    1
    87    57    56    2
    88    80    79    1
    89    80    83    1
    90    40    42   ar
    91    40    41   ar
    92    36    35    1
    93    56    59   am
    94    42    44   ar
    95    41    43   ar
    96    83    84    1
    97    44    45   ar
    98    61    62    2
    99    61    60    1
   100    50    51    1
   101    43    45   ar
   102    52    51   ar
   103    59    60    1
   104    51    53   ar
   105    60    63    1
   106    85    84    1
   107    85    86    1
   108    17    18    1
   109    29    28    2
   110    87    86    1
   111    63    64    1
   112    18    21    1
   113    18    19    1
   114    21    22    1
   115    28    27    1
   116    71    70    2
   117    64    65    1
   118    30    27    1
   119    30    31    1
   120    22    23    1
   121    32    31    1
   122    32    33    1
   123    23    24    1
   124    19    20    2
   125    27    26    1
   126    34    33    1
   127    70    69    1
   128    24    25    1
   129    65    66    1
   130    69    68    1
   131    69    72    1
   132    66    67    1
   133    72    73    1
   134    73    74    1
   135    74    75    1
   136    77    76    1
   137    75    76    2
   138    76    78    1
