@<TRIPOS>MOLECULE
tmp/4psqB00.pdb
 236 228 0 0 0
SMALL
GASTEIGER

@<TRIPOS>ATOM
      1  N         79.5990   -1.2650   23.6260 N.3    35  LEU35      -0.1231
      2  CA        78.9900   -2.5440   23.2970 C.3    35  LEU35       0.1693
      3  C         77.5980   -2.3270   22.7030 C.2    35  LEU35       0.2592
      4  O         76.8450   -1.4700   23.1540 O.2    35  LEU35      -0.2718
      5  CB        78.9200   -3.4400   24.5370 C.3    35  LEU35       0.0284
      6  CG        78.6920   -4.9350   24.2830 C.3    35  LEU35       0.0019
      7  CD1       79.8510   -5.5610   23.5140 C.3    35  LEU35       0.0001
      8  CD2       78.4720   -5.6680   25.5990 C.3    35  LEU35       0.0001
      9  N         77.2690   -3.1170   21.6900 N.am   36  PHE36      -0.1962
     10  CA        76.0850   -2.8820   20.8750 C.3    36  PHE36       0.1771
     11  C         75.6790   -4.1860   20.1910 C.2    36  PHE36       0.2619
     12  O         76.5320   -5.0270   19.9050 O.2    36  PHE36      -0.2715
     13  CB        76.4160   -1.8070   19.8310 C.3    36  PHE36       0.0574
     14  CG        75.2170   -1.1030   19.2670 C.ar   36  PHE36      -0.0200
     15  CD1       74.5030   -0.1960   20.0360 C.ar   36  PHE36      -0.0042
     16  CD2       74.8180   -1.3230   17.9540 C.ar   36  PHE36      -0.0042
     17  CE1       73.4010    0.4610   19.5160 C.ar   36  PHE36      -0.0003
     18  CE2       73.7160   -0.6690   17.4280 C.ar   36  PHE36      -0.0003
     19  CZ        73.0060    0.2250   18.2100 C.ar   36  PHE36      -0.0000
     20  N         74.3840   -4.3630   19.9470 N.am   37  LEU37      -0.1977
     21  CA        73.9010   -5.5000   19.1570 C.3    37  LEU37       0.1596
     22  C         74.6710   -5.5860   17.8420 C.2    37  LEU37       0.2287
     23  O         74.9770   -4.5620   17.2310 O.2    37  LEU37      -0.2864
     24  CB        72.3990   -5.3750   18.8800 C.3    37  LEU37       0.0297
     25  CG        71.4330   -6.0730   19.8410 C.3    37  LEU37       0.0022
     26  CD1       71.8720   -5.9770   21.2920 C.3    37  LEU37       0.0001
     27  CD2       70.0290   -5.5120   19.6680 C.3    37  LEU37       0.0001
     28  N         69.2150   -8.8890   14.2450 N.3    41  ILE41      -0.1245
     29  CA        68.4880   -7.9140   15.0350 C.3    41  ILE41       0.1561
     30  C         67.0570   -7.7950   14.5250 C.2    41  ILE41       0.2260
     31  O         66.8200   -7.3230   13.4130 O.2    41  ILE41      -0.2867
     32  CB        69.1910   -6.5360   15.0050 C.3    41  ILE41       0.0252
     33  CG1       70.6020   -6.6580   15.5960 C.3    41  ILE41       0.0019
     34  CG2       68.3790   -5.5020   15.7780 C.3    41  ILE41       0.0019
     35  CD1       71.5300   -5.5180   15.2460 C.3    41  ILE41       0.0001
     36  N         63.2650   -6.3460   15.7450 N.3    43  ALA43      -0.1245
     37  CA        62.4880   -5.5470   16.6810 C.3    43  ALA43       0.1562
     38  C         61.0040   -5.8620   16.5250 C.2    43  ALA43       0.2260
     39  O         60.5180   -6.0630   15.4120 O.2    43  ALA43      -0.2867
     40  CB        62.7430   -4.0670   16.4510 C.3    43  ALA43       0.0290
     41  N         57.5820   -4.0530   17.6590 N.3    45  PHE45      -0.1241
     42  CA        56.9470   -2.8790   18.2490 C.3    45  PHE45       0.1605
     43  C         55.4790   -3.1490   18.5790 C.2    45  PHE45       0.2264
     44  O         54.7740   -3.8180   17.8160 O.2    45  PHE45      -0.2867
     45  CB        57.0650   -1.6800   17.3090 C.3    45  PHE45       0.0534
     46  CG        58.4280   -1.0490   17.2990 C.ar   45  PHE45      -0.0203
     47  CD1       59.4970   -1.6820   16.6790 C.ar   45  PHE45      -0.0042
     48  CD2       58.6440    0.1810   17.9060 C.ar   45  PHE45      -0.0042
     49  CE1       60.7530   -1.1010   16.6640 C.ar   45  PHE45      -0.0003
     50  CE2       59.9000    0.7670   17.8950 C.ar   45  PHE45      -0.0003
     51  CZ        60.9550    0.1260   17.2720 C.ar   45  PHE45      -0.0000
     52  N         58.6280   -1.7980   22.8170 N.3    55  ALA55      -0.1231
     53  CA        59.2740   -2.6810   21.8490 C.3    55  ALA55       0.1694
     54  C         60.2190   -3.6790   22.5040 C.2    55  ALA55       0.2593
     55  O         60.7860   -3.4130   23.5640 O.2    55  ALA55      -0.2718
     56  CB        60.0290   -1.8590   20.8130 C.3    55  ALA55       0.0304
     57  N         60.3720   -4.8310   21.8580 N.am   56  THR56      -0.1939
     58  CA        61.4020   -5.7960   22.2110 C.3    56  THR56       0.2028
     59  C         62.4100   -5.8420   21.0780 C.2    56  THR56       0.2642
     60  O         62.0790   -5.5210   19.9390 O.2    56  THR56      -0.2714
     61  CB        60.8230   -7.2060   22.4100 C.3    56  THR56       0.1808
     62  OG1       60.2500   -7.6700   21.1810 O.3    56  THR56      -0.2208
     63  CG2       59.7590   -7.2000   23.5010 C.3    56  THR56       0.0379
     64  N         63.6380   -6.2370   21.3950 N.am   57  ALA57      -0.1977
     65  CA        64.6910   -6.3770   20.3950 C.3    57  ALA57       0.1597
     66  C         65.5610   -7.5800   20.7220 C.2    57  ALA57       0.2287
     67  O         66.1760   -7.6310   21.7840 O.2    57  ALA57      -0.2864
     68  CB        65.5360   -5.1160   20.3330 C.3    57  ALA57       0.0319
     69  N         66.3620   -7.7680   24.5410 N.3    73  MET73      -0.1230
     70  CA        66.2210   -6.4440   25.1230 C.3    73  MET73       0.1702
     71  C         64.7700   -5.9880   25.0480 C.2    73  MET73       0.2592
     72  O         64.0040   -6.4530   24.2020 O.2    73  MET73      -0.2718
     73  CB        67.1360   -5.4510   24.4040 C.3    73  MET73       0.0401
     74  CG        68.5850   -5.9130   24.3240 C.3    73  MET73       0.0596
     75  SD        69.7540   -4.5970   23.9290 S.3    73  MET73      -0.1393
     76  CE        69.7980   -3.6970   25.4760 C.3    73  MET73       0.0692
     77  N         64.4050   -5.0900   25.9570 N.am   74  VAL74      -0.1966
     78  CA        63.0610   -4.5310   26.0260 C.3    74  VAL74       0.1727
     79  C         63.1900   -3.0210   26.0960 C.2    74  VAL74       0.2616
     80  O         64.1460   -2.5060   26.6750 O.2    74  VAL74      -0.2715
     81  CB        62.3040   -5.0190   27.2790 C.3    74  VAL74       0.0290
     82  CG1       60.8990   -4.4300   27.3260 C.3    74  VAL74       0.0023
     83  CG2       62.2540   -6.5400   27.3210 C.3    74  VAL74       0.0023
     84  N         62.2290   -2.3200   25.5010 N.am   75  GLY75      -0.1955
     85  CA        62.2110   -0.8600   25.5080 C.3    75  GLY75       0.1869
     86  C         60.8100   -0.3060   25.6870 C.2    75  GLY75       0.2309
     87  O         59.8360   -0.8990   25.2200 O.2    75  GLY75      -0.2863
     88  N         58.7190    3.5810   25.4920 N.3    77  PHE77      -0.1241
     89  CA        58.9050    4.9070   24.9120 C.3    77  PHE77       0.1605
     90  C         58.0710    5.9760   25.6070 C.2    77  PHE77       0.2264
     91  O         56.9580    5.7130   26.0650 O.2    77  PHE77      -0.2867
     92  CB        58.5690    4.8670   23.4220 C.3    77  PHE77       0.0534
     93  CG        59.4320    3.9190   22.6390 C.ar   77  PHE77      -0.0203
     94  CD1       60.6920    4.3040   22.2070 C.ar   77  PHE77      -0.0042
     95  CD2       58.9920    2.6360   22.3450 C.ar   77  PHE77      -0.0042
     96  CE1       61.4910    3.4300   21.4910 C.ar   77  PHE77      -0.0003
     97  CE2       59.7880    1.7570   21.6290 C.ar   77  PHE77      -0.0003
     98  CZ        61.0400    2.1560   21.2020 C.ar   77  PHE77      -0.0000
     99  N         63.4950    6.5420   24.8260 N.3    88  MET88      -0.1245
    100  CA        63.4500    5.0970   25.0110 C.3    88  MET88       0.1570
    101  C         64.2100    4.6950   26.2650 C.2    88  MET88       0.2261
    102  O         65.4260    4.8580   26.3500 O.2    88  MET88      -0.2867
    103  CB        64.0390    4.3640   23.7970 C.3    88  MET88       0.0387
    104  CG        63.8940    2.8470   23.8780 C.3    88  MET88       0.0595
    105  SD        64.5500    1.9250   22.4700 S.3    88  MET88      -0.1393
    106  CE        66.3060    2.2550   22.5970 C.3    88  MET88       0.0692
    107  N         65.4240    1.5340   28.0550 N.3    90  TYR90      -0.1227
    108  CA        65.6910    0.1760   27.5610 C.3    90  TYR90       0.1736
    109  C         66.5730   -0.6320   28.5100 C.2    90  TYR90       0.2595
    110  O         67.3150   -0.0690   29.3120 O.2    90  TYR90      -0.2718
    111  CB        66.3420    0.2350   26.1720 C.3    90  TYR90       0.0548
    112  CG        67.7720    0.7360   26.1790 C.ar   90  TYR90      -0.0200
    113  CD1       68.0530    2.0950   26.1840 C.ar   90  TYR90      -0.0009
    114  CD2       68.8420   -0.1550   26.1850 C.ar   90  TYR90      -0.0009
    115  CE1       69.3590    2.5560   26.1950 C.ar   90  TYR90       0.0417
    116  CE2       70.1490    0.2940   26.1960 C.ar   90  TYR90       0.0417
    117  CZ        70.4020    1.6480   26.2020 C.ar   90  TYR90       0.1957
    118  OH        71.7020    2.0940   26.2110 O.3    90  TYR90      -0.2866
    119  N         66.4940   -1.9560   28.3950 N.am   91  TRP91      -0.1962
    120  CA        67.2560   -2.8550   29.2570 C.3    91  TRP91       0.1771
    121  C         67.2850   -4.2760   28.7150 C.2    91  TRP91       0.2620
    122  O         66.4460   -4.6550   27.9010 O.2    91  TRP91      -0.2715
    123  CB        66.6450   -2.8830   30.6600 C.3    91  TRP91       0.0590
    124  CG        65.2360   -3.4330   30.7100 C.ar   91  TRP91       0.0006
    125  CD1       64.8710   -4.7330   30.9100 C.ar   91  TRP91       0.0946
    126  CD2       64.0170   -2.6960   30.5610 C.ar   91  TRP91       0.0152
    127  NE1       63.5050   -4.8520   30.8960 N.ar   91  TRP91      -0.2442
    128  CE2       62.9550   -3.6160   30.6860 C.ar   91  TRP91       0.0810
    129  CE3       63.7190   -1.3470   30.3370 C.ar   91  TRP91       0.0012
    130  CZ2       61.6170   -3.2320   30.5900 C.ar   91  TRP91       0.0191
    131  CZ3       62.3850   -0.9650   30.2440 C.ar   91  TRP91       0.0001
    132  CH2       61.3530   -1.9060   30.3700 C.ar   91  TRP91       0.0015
    133  N         68.2510   -5.0590   29.1860 N.am   92  GLY92      -0.1954
    134  CA        68.2780   -6.4960   28.9250 C.3    92  GLY92       0.1869
    135  C         67.3910   -7.1790   29.9460 C.2    92  GLY92       0.2309
    136  O         67.4200   -6.8250   31.1230 O.2    92  GLY92      -0.2863
    137  N         68.9820   -8.1640   33.2130 N.3    95  SER95      -0.1217
    138  CA        69.3880   -7.0040   34.0010 C.3    95  SER95       0.1889
    139  C         68.3450   -5.8830   33.9780 C.2    95  SER95       0.2288
    140  O         68.6790   -4.7170   33.7670 O.2    95  SER95      -0.2866
    141  CB        70.7370   -6.4890   33.4890 C.3    95  SER95       0.2089
    142  OG        70.6920   -6.2240   32.0950 O.3    95  SER95      -0.2183
    143  N         68.7770   -2.5710   35.9580 N.3    98  GLN98      -0.1231
    144  CA        69.6030   -1.4980   35.4050 C.3    98  GLN98       0.1698
    145  C         69.2150   -1.2110   33.9530 C.2    98  GLN98       0.2592
    146  O         69.2240   -2.1020   33.1070 O.2    98  GLN98      -0.2718
    147  CB        71.1000   -1.8210   35.5450 C.3    98  GLN98       0.0381
    148  CG        71.5140   -3.2600   35.2580 C.3    98  GLN98       0.0905
    149  CD        72.9180   -3.5780   35.7520 C.2    98  GLN98       0.2608
    150  OE1       73.4110   -2.9630   36.7010 O.2    98  GLN98      -0.2717
    151  NE2       73.5640   -4.5550   35.1190 N.am   98  GLN98      -0.0878
    152  N         68.8720    0.0460   33.6830 N.am   99  LYS99      -0.1966
    153  CA        68.2840    0.4470   32.4120 C.3    99  LYS99       0.1728
    154  C         69.0700    1.5880   31.7780 C.2    99  LYS99       0.2616
    155  O         69.6530    2.4140   32.4780 O.2    99  LYS99      -0.2715
    156  CB        66.8480    0.9220   32.6390 C.3    99  LYS99       0.0311
    157  CG        65.8850   -0.1300   33.1740 C.3    99  LYS99       0.0038
    158  CD        64.6950    0.5210   33.8730 C.3    99  LYS99       0.0206
    159  CE        63.4140   -0.2830   33.7090 C.3    99  LYS99       0.1093
    160  NZ        63.5530   -1.7130   34.1040 N.3    99  LYS99      -0.1314
    161  N         69.0730    1.6280   30.4500 N.am  100  GLY100     -0.1955
    162  CA        69.6330    2.7510   29.7050 C.3   100  GLY100      0.1869
    163  C         68.5280    3.6950   29.2700 C.2   100  GLY100      0.2309
    164  O         67.3480    3.3980   29.4440 O.2   100  GLY100     -0.2863
    165  N         67.8120    6.3540   25.9220 N.3   102  ASP102     -0.1239
    166  CA        68.2120    6.9820   24.6550 C.3   102  ASP102      0.1674
    167  C         67.0950    7.7880   24.0060 C.2   102  ASP102      0.2266
    168  O         65.9130    7.5390   24.2410 O.2   102  ASP102     -0.2867
    169  CB        68.6370    5.9080   23.6450 C.3   102  ASP102      0.1410
    170  CG        70.0200    5.3440   23.9110 C.2   102  ASP102      0.3668
    171  OD1       70.8750    6.0440   24.4940 O.co2 102  ASP102     -0.2456
    172  OD2       70.2600    4.1900   23.4970 O.co2 102  ASP102     -0.2456
    173  N         65.0160    8.2150   20.6970 N.3   104  HIS104     -0.1241
    174  CA        64.5920    7.2800   19.6620 C.3   104  HIS104      0.1621
    175  C         63.7220    8.0410   18.6720 C.2   104  HIS104      0.2264
    176  O         62.5670    8.3610   18.9590 O.2   104  HIS104     -0.2867
    177  CB        63.8350    6.1050   20.2800 C.3   104  HIS104      0.0745
    178  CG        63.5250    5.0060   19.3120 C.ar  104  HIS104      0.0817
    179  ND1       64.2390    3.8290   19.2700 N.ar  104  HIS104     -0.2268
    180  CD2       62.5640    4.8970   18.3630 C.ar  104  HIS104      0.1154
    181  CE1       63.7370    3.0430   18.3340 C.ar  104  HIS104      0.1986
    182  NE2       62.7210    3.6690   17.7670 N.ar  104  HIS104     -0.2212
    183  N         65.5720    4.7080   11.6340 N.3   117  GLN117     -0.1245
    184  CA        65.5980    5.1520   13.0200 C.3   117  GLN117      0.1566
    185  C         66.9290    5.8760   13.2680 C.2   117  GLN117      0.2260
    186  O         67.8940    5.6580   12.5350 O.2   117  GLN117     -0.2867
    187  CB        65.4040    3.9380   13.9390 C.3   117  GLN117      0.0367
    188  CG        65.6460    4.1710   15.4250 C.3   117  GLN117      0.0905
    189  CD        67.1170    4.1210   15.8030 C.2   117  GLN117      0.2608
    190  OE1       67.9620    3.6750   15.0200 O.2   117  GLN117     -0.2717
    191  NE2       67.4320    4.5820   17.0090 N.am  117  GLN117     -0.0878
    192  N         73.4550   10.2250   21.2260 N.3   121  ARG121     -0.1245
    193  CA        73.7800   10.0790   22.6420 C.3   121  ARG121      0.1563
    194  C         74.5860   11.2600   23.1820 C.2   121  ARG121      0.2260
    195  O         74.6310   11.4750   24.3920 O.2   121  ARG121     -0.2867
    196  CB        74.5500    8.7750   22.8770 C.3   121  ARG121      0.0307
    197  CG        73.6450    7.5740   23.0620 C.3   121  ARG121      0.0489
    198  CD        74.3720    6.2510   22.8700 C.3   121  ARG121      0.2205
    199  NE        73.4510    5.1370   23.0830 N.pl3 121  ARG121     -0.0865
    200  CZ        73.7610    3.8490   22.9730 C.cat 121  ARG121      0.5346
    201  NH1       74.9940    3.4630   22.6440 N.pl3 121  ARG121      0.1354
    202  NH2       72.8220    2.9390   23.1950 N.pl3 121  ARG121      0.1354
    203  N         73.7150    6.2980   16.7520 N.3   133  TYR133     -0.1241
    204  CA        73.4140    5.0460   16.0670 C.3   133  TYR133      0.1605
    205  C         72.1220    5.1550   15.2670 C.2   133  TYR133      0.2264
    206  O         71.2610    5.9900   15.5560 O.2   133  TYR133     -0.2867
    207  CB        73.4050    3.8550   17.0280 C.3   133  TYR133      0.0534
    208  CG        72.2810    3.7980   18.0360 C.ar  133  TYR133     -0.0201
    209  CD1       71.0810    3.1630   17.7370 C.ar  133  TYR133     -0.0009
    210  CD2       72.4370    4.3350   19.3120 C.ar  133  TYR133     -0.0009
    211  CE1       70.0600    3.0880   18.6670 C.ar  133  TYR133      0.0417
    212  CE2       71.4230    4.2650   20.2480 C.ar  133  TYR133      0.0417
    213  CZ        70.2360    3.6400   19.9230 C.ar  133  TYR133      0.1957
    214  OH        69.2250    3.5590   20.8600 O.3   133  TYR133     -0.2866
    215  N         69.3730    2.5660   12.7260 N.3   135  PHE135     -0.1241
    216  CA        68.9650    1.3190   12.0890 C.3   135  PHE135      0.1605
    217  C         68.2110    1.5930   10.7960 C.2   135  PHE135      0.2264
    218  O         67.4510    2.5610   10.7030 O.2   135  PHE135     -0.2867
    219  CB        68.0660    0.5120   13.0200 C.3   135  PHE135      0.0534
    220  CG        68.7950   -0.1340   14.1640 C.ar  135  PHE135     -0.0203
    221  CD1       69.6940   -1.1630   13.9350 C.ar  135  PHE135     -0.0042
    222  CD2       68.5660    0.2720   15.4740 C.ar  135  PHE135     -0.0042
    223  CE1       70.3610   -1.7720   14.9840 C.ar  135  PHE135     -0.0003
    224  CE2       69.2270   -0.3370   16.5300 C.ar  135  PHE135     -0.0003
    225  CZ        70.1270   -1.3580   16.2840 C.ar  135  PHE135     -0.0000
    226  N         65.4370   -0.4020    9.0100 N.3   137  PHE137     -0.1241
    227  CA        64.5160   -1.5190    9.1830 C.3   137  PHE137      0.1605
    228  C         63.7900   -1.8560    7.8830 C.2   137  PHE137      0.2264
    229  O         63.6400   -1.0160    6.9980 O.2   137  PHE137     -0.2867
    230  CB        63.4790   -1.2100   10.2650 C.3   137  PHE137      0.0534
    231  CG        64.0430   -1.1280   11.6560 C.ar  137  PHE137     -0.0203
    232  CD1       64.4960   -2.2690   12.3030 C.ar  137  PHE137     -0.0042
    233  CD2       64.0870    0.0830   12.3330 C.ar  137  PHE137     -0.0042
    234  CE1       64.9970   -2.2010   13.5930 C.ar  137  PHE137     -0.0003
    235  CE2       64.5870    0.1580   13.6230 C.ar  137  PHE137     -0.0003
    236  CZ        65.0450   -0.9850   14.2540 C.ar  137  PHE137     -0.0000
@<TRIPOS>BOND
     1   229   228    2
     2   228   227    1
     3   226   227    1
     4   227   230    1
     5   230   231    1
     6   218   217    2
     7   217   216    1
     8   183   184    1
     9   231   232   ar
    10   231   233   ar
    11   216   215    1
    12   216   219    1
    13   232   234   ar
    14   233   235   ar
    15   186   185    2
    16   219   220    1
    17   184   185    1
    18   184   187    1
    19    31    30    2
    20   234   236   ar
    21   235   236   ar
    22   221   220   ar
    23   221   223   ar
    24   187   188    1
    25   220   222   ar
    26    28    29    1
    27    30    29    1
    28   223   225   ar
    29    32    29    1
    30    32    33    1
    31    32    34    1
    32   190   189    2
    33    35    33    1
    34   205   206    2
    35   205   204    1
    36    39    38    2
    37   188   189    1
    38   222   224   ar
    39    36    37    1
    40   189   191   am
    41   204   203    1
    42   204   207    1
    43   225   224   ar
    44    40    37    1
    45    38    37    1
    46    49    47   ar
    47    49    51   ar
    48    47    46   ar
    49   207   208    1
    50    23    22    2
    51    51    50   ar
    52    46    45    1
    53    46    48   ar
    54    45    42    1
    55    18    16   ar
    56    18    19   ar
    57    41    42    1
    58   209   208   ar
    59   209   211   ar
    60   182   181   ar
    61   182   180   ar
    62    44    43    2
    63    22    21    1
    64    50    48   ar
    65    16    14   ar
    66   208   210   ar
    67    19    17   ar
    68    42    43    1
    69   181   179   ar
    70   180   178   ar
    71   211   213   ar
    72   175   176    2
    73   175   174    1
    74    24    21    1
    75    24    25    1
    76    21    20    1
    77    14    13    1
    78    14    15   ar
    79   179   178   ar
    80   178   177    1
    81   210   212   ar
    82    17    15   ar
    83   174   177    1
    84   174   173    1
    85    27    25    1
    86    13    10    1
    87    25    26    1
    88    12    11    2
    89   213   212   ar
    90   213   214    1
    91    60    59    2
    92    20    11   am
    93    11    10    1
    94    68    65    1
    95    65    66    1
    96    65    64    1
    97    66    67    2
    98    56    53    1
    99    10     9    1
   100    59    64   am
   101    59    58    1
   102    62    61    1
   103    98    96   ar
   104    98    97   ar
   105   192   193    1
   106    96    94   ar
   107    97    95   ar
   108     9     3   am
   109    53    54    1
   110    53    52    1
   111    57    58    1
   112    57    54   am
   113    94    93   ar
   114    58    61    1
   115    95    93   ar
   116    61    63    1
   117   105   106    1
   118   105   104    1
   119    54    55    2
   120    93    92    1
   121   193   196    1
   122   193   194    1
   123   201   200    1
   124     3     4    2
   125     3     2    1
   126   198   197    1
   127   198   199    1
   128   196   197    1
   129   200   199    2
   130   200   202    1
   131   194   195    2
   132     2     1    1
   133     2     5    1
   134    92    89    1
   135   172   170   ar
   136     7     6    1
   137   169   170    1
   138   169   166    1
   139   103   104    1
   140   103   100    1
   141   170   171   ar
   142    75    74    1
   143    75    76    1
   144   167   168    2
   145   167   166    1
   146    72    71    2
   147     6     5    1
   148     6     8    1
   149    74    73    1
   150    73    70    1
   151    69    70    1
   152   166   165    1
   153    99   100    1
   154    89    88    1
   155    89    90    1
   156   100   101    1
   157    71    70    1
   158    71    77   am
   159    87    86    2
   160    84    85    1
   161    84    79   am
   162    85    86    1
   163    90    91    2
   164    77    78    1
   165    78    79    1
   166    78    81    1
   167    79    80    2
   168   111   112    1
   169   111   108    1
   170   112   113   ar
   171   112   114   ar
   172   113   115   ar
   173   114   116   ar
   174   115   117   ar
   175   116   117   ar
   176   117   118    1
   177   101   102    2
   178    81    83    1
   179    81    82    1
   180   108   107    1
   181   108   109    1
   182   122   121    2
   183   119   109   am
   184   119   120    1
   185   109   110    2
   186   121   133   am
   187   121   120    1
   188   134   133    1
   189   134   135    1
   190   120   123    1
   191   163   164    2
   192   163   162    1
   193   162   161    1
   194   135   136    2
   195   131   129   ar
   196   131   132   ar
   197   129   126   ar
   198   132   130   ar
   199   161   154   am
   200   126   128   ar
   201   126   124   ar
   202   130   128   ar
   203   123   124    1
   204   128   127   ar
   205   124   125   ar
   206   127   125   ar
   207   154   153    1
   208   154   155    2
   209   142   141    1
   210   153   156    1
   211   153   152    1
   212   156   157    1
   213   146   145    2
   214   157   158    1
   215   137   138    1
   216   141   138    1
   217   152   145   am
   218   159   158    1
   219   159   160    1
   220   140   139    2
   221   145   144    1
   222   139   138    1
   223   151   149   am
   224   148   147    1
   225   148   149    1
   226   144   147    1
   227   144   143    1
   228   149   150    2
