@<TRIPOS>MOLECULE
tmp/4psrA00.pdb
 185 176 0 0 0
SMALL
GASTEIGER

@<TRIPOS>ATOM
      1  N          7.9640   12.3030   24.7720 N.3   269  HIS269     -0.1241
      2  CA         8.9480   11.3570   24.2420 C.3   269  HIS269      0.1621
      3  C          9.5610   11.7830   22.9170 C.2   269  HIS269      0.2264
      4  O         10.7590   11.6590   22.7230 O.2   269  HIS269     -0.2867
      5  CB         8.3020    9.9600   24.1170 C.3   269  HIS269      0.0745
      6  CG         9.1320    8.9630   23.3590 C.ar  269  HIS269      0.0817
      7  ND1        8.7110    8.3830   22.1820 N.ar  269  HIS269     -0.2268
      8  CD2       10.3500    8.4380   23.6250 C.ar  269  HIS269      0.1154
      9  CE1        9.6380    7.5440   21.7500 C.ar  269  HIS269      0.1986
     10  NE2       10.6440    7.5590   22.6030 N.ar  269  HIS269     -0.2212
     11  N         12.6180   16.8990   21.4760 N.3   272  HIS272     -0.1241
     12  CA        14.0600   16.8840   21.6520 C.3   272  HIS272      0.1621
     13  C         14.5130   17.9360   22.6690 C.2   272  HIS272      0.2264
     14  O         15.6990   18.1610   22.8660 O.2   272  HIS272     -0.2867
     15  CB        14.7510   17.1270   20.2970 C.3   272  HIS272      0.0745
     16  CG        14.4300   16.0900   19.2680 C.ar  272  HIS272      0.0817
     17  ND1       14.9340   14.8100   19.3210 N.ar  272  HIS272     -0.2268
     18  CD2       13.6410   16.1410   18.1720 C.ar  272  HIS272      0.1154
     19  CE1       14.4780   14.1170   18.2920 C.ar  272  HIS272      0.1986
     20  NE2       13.6850   14.8990   17.5830 N.ar  272  HIS272     -0.2212
     21  N         16.8550   16.1110   27.6300 N.3   275  ARG275     -0.1231
     22  CA        17.6010   14.8700   27.4160 C.3   275  ARG275      0.1694
     23  C         17.0780   13.7880   28.3740 C.2   275  ARG275      0.2592
     24  O         16.5930   14.0870   29.4720 O.2   275  ARG275     -0.2718
     25  CB        19.1060   15.1050   27.6440 C.3   275  ARG275      0.0321
     26  CG        19.7150   16.2620   26.8390 C.3   275  ARG275      0.0489
     27  CD        20.0810   15.8490   25.4290 C.3   275  ARG275      0.2205
     28  NE        20.5880   16.9650   24.6270 N.pl3 275  ARG275     -0.0865
     29  CZ        21.8700   17.3010   24.5080 C.cat 275  ARG275      0.5346
     30  NH1       22.2090   18.3210   23.7380 N.pl3 275  ARG275      0.1354
     31  NH2       22.8180   16.6340   25.1500 N.pl3 275  ARG275      0.1354
     32  N         17.1880   12.5270   27.9640 N.am  276  ASN276     -0.1974
     33  CA        16.7540   11.3930   28.7730 C.3   276  ASN276      0.1688
     34  C         17.8110   10.9920   29.7890 C.2   276  ASN276      0.2292
     35  O         17.6040   10.0320   30.5400 O.2   276  ASN276     -0.2864
     36  CB        16.3390   10.2380   27.8570 C.3   276  ASN276      0.1181
     37  CG        17.4530    9.7570   26.9730 C.2   276  ASN276      0.2629
     38  OD1       18.5850    9.7060   27.3690 O.2   276  ASN276     -0.2716
     39  ND2       17.1070    9.3870   25.7560 N.am  276  ASN276     -0.0877
     40  N         11.1320   10.5820   29.9190 N.3   281  ASP281     -0.1239
     41  CA        10.3300   10.5740   28.6920 C.3   281  ASP281      0.1674
     42  C          8.8840   10.2330   29.0000 C.2   281  ASP281      0.2266
     43  O          8.6030    9.2450   29.7100 O.2   281  ASP281     -0.2867
     44  CB        10.8330    9.5000   27.6930 C.3   281  ASP281      0.1410
     45  CG        12.1600    9.8240   27.0390 C.2   281  ASP281      0.3668
     46  OD1       12.9110   10.6860   27.5190 O.co2 281  ASP281     -0.2456
     47  OD2       12.4530    9.1030   26.0550 O.co2 281  ASP281     -0.2456
     48  N          5.5950    9.1340   27.1980 N.3   283  TRP283     -0.1241
     49  CA         5.0980    8.5750   25.9550 C.3   283  TRP283      0.1605
     50  C          3.6810    8.9540   25.6650 C.2   283  TRP283      0.2264
     51  O          2.8820    9.1860   26.5850 O.2   283  TRP283     -0.2867
     52  CB         5.1790    7.0530   26.0260 C.3   283  TRP283      0.0550
     53  CG         6.5520    6.5380   25.7630 C.ar  283  TRP283      0.0003
     54  CD1        7.6460    6.7040   26.5420 C.ar  283  TRP283      0.0946
     55  CD2        6.9820    5.7900   24.6250 C.ar  283  TRP283      0.0152
     56  NE1        8.7390    6.1010   25.9720 N.ar  283  TRP283     -0.2442
     57  CE2        8.3540    5.5380   24.7860 C.ar  283  TRP283      0.0810
     58  CE3        6.3370    5.3070   23.4810 C.ar  283  TRP283      0.0012
     59  CZ2        9.1010    4.8140   23.8480 C.ar  283  TRP283      0.0191
     60  CZ3        7.0880    4.6090   22.5420 C.ar  283  TRP283      0.0001
     61  CH2        8.4420    4.3570   22.7390 C.ar  283  TRP283      0.0015
     62  N         10.5140   -0.7030   27.6800 N.3   292  VAL292     -0.1231
     63  CA        11.4750    0.3550   27.3810 C.3   292  VAL292      0.1692
     64  C         12.3170    0.7060   28.5980 C.2   292  VAL292      0.2592
     65  O         11.8010    0.7820   29.7200 O.2   292  VAL292     -0.2718
     66  CB        10.6840    1.5970   26.9050 C.3   292  VAL292      0.0266
     67  CG1       11.5280    2.8650   26.8350 C.3   292  VAL292      0.0020
     68  CG2       10.0250    1.3230   25.5460 C.3   292  VAL292      0.0020
     69  N         13.6080    0.9300   28.3720 N.am  293  ARG293     -0.1966
     70  CA        14.5120    1.4280   29.4060 C.3   293  ARG293      0.1714
     71  C         15.2730    2.6080   28.8020 C.2   293  ARG293      0.2458
     72  O         15.6160    2.5730   27.6080 O.2   293  ARG293     -0.2730
     73  CB        15.4950    0.3420   29.8540 C.3   293  ARG293      0.0347
     74  CG        14.7880   -0.9150   30.3850 C.3   293  ARG293      0.0492
     75  CD        15.7570   -1.9540   30.9090 C.3   293  ARG293      0.2205
     76  NE        15.0730   -3.0950   31.5140 N.pl3 293  ARG293     -0.0865
     77  CZ        14.5560   -3.0850   32.7340 C.cat 293  ARG293      0.5346
     78  NH1       14.6470   -2.0050   33.5060 N.pl3 293  ARG293      0.1354
     79  NH2       13.9380   -4.1640   33.1850 N.pl3 293  ARG293      0.1354
     80  N         15.5650    3.6450   29.6010 N.am  294  PRO294     -0.2727
     81  CA        15.3360    3.6980   31.0470 C.3   294  PRO294      0.1402
     82  C         13.8970    4.0190   31.4190 C.2   294  PRO294      0.2269
     83  O         13.0200    4.2190   30.5600 O.2   294  PRO294     -0.2865
     84  CB        16.2800    4.8130   31.5020 C.3   294  PRO294      0.0296
     85  CG        16.3120    5.7280   30.3260 C.3   294  PRO294      0.0237
     86  CD        16.2910    4.8320   29.1340 C.3   294  PRO294      0.0939
     87  N         16.8070   -3.5590   19.9940 N.3   519  THR519     -0.1218
     88  CA        18.1070   -2.9310   20.1860 C.3   519  THR519      0.1862
     89  C         18.2730   -2.5350   21.6550 C.2   519  THR519      0.2287
     90  O         17.3680   -1.9740   22.2790 O.2   519  THR519     -0.2866
     91  CB        18.2840   -1.7170   19.2690 C.3   519  THR519      0.1770
     92  OG1       17.4310   -0.6490   19.7050 O.3   519  THR519     -0.2211
     93  CG2       17.9610   -2.0790   17.8250 C.3   519  THR519      0.0375
     94  N         20.9610   -0.8470   24.3470 N.3   521  ASP521     -0.1239
     95  CA        22.1830   -0.0740   24.5420 C.3   521  ASP521      0.1674
     96  C         22.7410   -0.2460   25.9490 C.2   521  ASP521      0.2266
     97  O         22.1860   -0.9800   26.7690 O.2   521  ASP521     -0.2867
     98  CB        21.9830    1.4020   24.1590 C.3   521  ASP521      0.1410
     99  CG        21.0300    2.1600   25.0510 C.2   521  ASP521      0.3668
    100  OD1       20.4850    1.6090   26.0220 O.co2 521  ASP521     -0.2456
    101  OD2       20.7950    3.3630   24.7600 O.co2 521  ASP521     -0.2456
    102  N         19.4590  -14.2060   15.5440 N.3   545  LYS545     -0.1245
    103  CA        20.8710  -13.8730   15.6370 C.3   545  LYS545      0.1561
    104  C         21.0430  -12.6810   16.5620 C.2   545  LYS545      0.2260
    105  O         20.1020  -11.8950   16.7740 O.2   545  LYS545     -0.2867
    106  CB        21.4840  -13.5940   14.2650 C.3   545  LYS545      0.0271
    107  CG        20.9080  -12.4000   13.5320 C.3   545  LYS545      0.0035
    108  CD        21.6630  -12.1720   12.2370 C.3   545  LYS545      0.0206
    109  CE        21.0030  -11.0980   11.3840 C.3   545  LYS545      0.1093
    110  NZ        21.7290  -10.8900   10.1080 N.3   545  LYS545     -0.1314
    111  N         23.8080   -9.4320   17.3360 N.3   547  THR547     -0.1218
    112  CA        24.9750   -8.6850   16.9160 C.3   547  THR547      0.1862
    113  C         25.4700   -7.8770   18.0980 C.2   547  THR547      0.2287
    114  O         24.7240   -7.0710   18.6690 O.2   547  THR547     -0.2866
    115  CB        24.6240   -7.7980   15.7160 C.3   547  THR547      0.1770
    116  OG1       24.0800   -8.6240   14.6880 O.3   547  THR547     -0.2211
    117  CG2       25.8320   -7.0800   15.1860 C.3   547  THR547      0.0375
    118  N         28.0000   -5.1510   19.7620 N.3   549  PHE549     -0.1241
    119  CA        28.7810   -3.9690   19.4220 C.3   549  PHE549      0.1605
    120  C         29.6700   -3.5520   20.5800 C.2   549  PHE549      0.2264
    121  O         29.2510   -3.6110   21.7330 O.2   549  PHE549     -0.2867
    122  CB        27.8560   -2.7860   19.1080 C.3   549  PHE549      0.0534
    123  CG        27.1370   -2.9060   17.8060 C.ar  549  PHE549     -0.0203
    124  CD1       25.9360   -3.5860   17.7240 C.ar  549  PHE549     -0.0042
    125  CD2       27.6450   -2.3110   16.6670 C.ar  549  PHE549     -0.0042
    126  CE1       25.2670   -3.6840   16.5250 C.ar  549  PHE549     -0.0003
    127  CE2       26.9710   -2.4110   15.4650 C.ar  549  PHE549     -0.0003
    128  CZ        25.7890   -3.1000   15.3990 C.ar  549  PHE549     -0.0000
    129  N         26.2360    2.5310   22.0180 N.3   553  ARG553     -0.1231
    130  CA        24.9710    2.6260   21.2950 C.3   553  ARG553      0.1694
    131  C         25.1480    2.2690   19.8140 C.2   553  ARG553      0.2592
    132  O         25.0220    3.1330   18.9280 O.2   553  ARG553     -0.2718
    133  CB        24.4040    4.0350   21.4920 C.3   553  ARG553      0.0321
    134  CG        22.9040    4.1600   21.2890 C.3   553  ARG553      0.0489
    135  CD        22.3710    5.4650   21.8780 C.3   553  ARG553      0.2205
    136  NE        22.0550    5.3940   23.3080 N.pl3 553  ARG553     -0.0865
    137  CZ        22.2100    6.3900   24.1830 C.cat 553  ARG553      0.5346
    138  NH1       22.7220    7.5620   23.8160 N.pl3 553  ARG553      0.1354
    139  NH2       21.8710    6.2260   25.4520 N.pl3 553  ARG553      0.1354
    140  N         25.5030    1.0100   19.5570 N.am  554  PHE554     -0.1962
    141  CA        25.5220    0.4320   18.2130 C.3   554  PHE554      0.1771
    142  C         26.5570    1.0400   17.2680 C.2   554  PHE554      0.2620
    143  O         26.3060    1.2030   16.0830 O.2   554  PHE554     -0.2715
    144  CB        24.1040    0.4510   17.6130 C.3   554  PHE554      0.0574
    145  CG        23.0410    0.1910   18.6350 C.ar  554  PHE554     -0.0200
    146  CD1       22.9290   -1.0630   19.2330 C.ar  554  PHE554     -0.0042
    147  CD2       22.2140    1.2210   19.0860 C.ar  554  PHE554     -0.0042
    148  CE1       21.9790   -1.3150   20.2160 C.ar  554  PHE554     -0.0003
    149  CE2       21.2750    0.9810   20.0810 C.ar  554  PHE554     -0.0003
    150  CZ        21.1760   -0.2930   20.6670 C.ar  554  PHE554     -0.0000
    151  N         27.7310    1.3250   17.8240 N.am  555  THR555     -0.1951
    152  CA        28.9140    1.7650   17.0710 C.3   555  THR555      0.1897
    153  C         30.0890    0.8420   17.4190 C.2   555  THR555      0.2313
    154  O         29.9840   -0.0150   18.2980 O.2   555  THR555     -0.2863
    155  CB        29.2890    3.2290   17.4080 C.3   555  THR555      0.1794
    156  OG1       29.6030    3.3330   18.7990 O.3   555  THR555     -0.2208
    157  CG2       28.1430    4.1830   17.0750 C.3   555  THR555      0.0378
    158  N         31.8210   -4.9390   15.6290 N.3   558  SER558     -0.1217
    159  CA        30.6380   -5.7790   15.7860 C.3   558  SER558      0.1889
    160  C         30.9100   -7.2340   15.4530 C.2   558  SER558      0.2288
    161  O         31.7770   -7.5380   14.6370 O.2   558  SER558     -0.2866
    162  CB        29.4810   -5.2620   14.9260 C.3   558  SER558      0.2089
    163  OG        29.7700   -5.3710   13.5390 O.3   558  SER558     -0.2183
    164  N         28.6250  -11.0170   14.8790 N.3   560  GLU560     -0.1245
    165  CA        27.3230  -11.6540   14.7330 C.3   560  GLU560      0.1567
    166  C         27.3720  -13.0680   15.2830 C.2   560  GLU560      0.2260
    167  O         28.3090  -13.8230   14.9940 O.2   560  GLU560     -0.2867
    168  CB        26.9000  -11.6730   13.2670 C.3   560  GLU560      0.0388
    169  CG        25.4020  -11.6500   13.0520 C.3   560  GLU560      0.1160
    170  CD        25.0270  -11.6300   11.5830 C.2   560  GLU560      0.3649
    171  OE1       25.0030  -10.5310   10.9800 O.co2 560  GLU560     -0.2457
    172  OE2       24.7500  -12.7160   11.0310 O.co2 560  GLU560     -0.2457
    173  N         22.1230   -5.9590   19.3230 N.3   577  VAL577     -0.1245
    174  CA        20.9370   -5.9820   18.4680 C.3   577  VAL577      0.1561
    175  C         20.5220   -7.4250   18.2680 C.2   577  VAL577      0.2260
    176  O         21.3100   -8.2430   17.7880 O.2   577  VAL577     -0.2867
    177  CB        21.2060   -5.3490   17.0870 C.3   577  VAL577      0.0252
    178  CG1       19.9560   -5.4120   16.1820 C.3   577  VAL577      0.0019
    179  CG2       21.6720   -3.9240   17.2590 C.3   577  VAL577      0.0019
    180  N         17.9860   -9.9880   16.4060 N.3   579  SER579     -0.1217
    181  CA        17.2110   -9.9840   15.1610 C.3   579  SER579      0.1889
    182  C         16.7020  -11.3820   14.8260 C.2   579  SER579      0.2288
    183  O         17.2830  -12.3900   15.2410 O.2   579  SER579     -0.2866
    184  CB        18.0720   -9.4690   14.0020 C.3   579  SER579      0.2089
    185  OG        18.7370   -8.2510   14.3190 O.3   579  SER579     -0.2183
@<TRIPOS>BOND
     1   110   109    1
     2   171   170   ar
     3   172   170   ar
     4   109   108    1
     5   170   169    1
     6   108   107    1
     7   169   168    1
     8   168   165    1
     9   107   106    1
    10   163   162    1
    11   184   185    1
    12   184   181    1
    13   106   103    1
    14   161   160    2
    15   116   115    1
    16   165   164    1
    17   165   166    1
    18   182   181    1
    19   182   183    2
    20   162   159    1
    21   167   166    2
    22   181   180    1
    23   117   115    1
    24   128   127   ar
    25   128   126   ar
    26   160   159    1
    27   127   125   ar
    28   102   103    1
    29   158   159    1
    30   103   104    1
    31   115   112    1
    32   143   142    2
    33   178   177    1
    34   126   124   ar
    35   104   105    2
    36   125   123   ar
    37   112   111    1
    38   112   113    1
    39   152   155    1
    40   152   153    1
    41   152   151    1
    42   157   155    1
    43   177   179    1
    44   177   174    1
    45   142   151   am
    46   142   141    1
    47   155   156    1
    48   153   154    2
    49    20    18   ar
    50    20    19   ar
    51   144   141    1
    52   144   145    1
    53   124   123   ar
    54   176   175    2
    55   123   122    1
    56    93    91    1
    57   113   114    2
    58    18    16   ar
    59   141   140    1
    60   175   174    1
    61    19    17   ar
    62   174   173    1
    63   145   147   ar
    64   145   146   ar
    65   132   131    2
    66   147   149   ar
    67   122   119    1
    68   146   148   ar
    69    16    17   ar
    70    16    15    1
    71    91    92    1
    72    91    88    1
    73   119   118    1
    74   119   120    1
    75   140   131   am
    76   131   130    1
    77    87    88    1
    78   149   150   ar
    79    88    89    1
    80   148   150   ar
    81    15    12    1
    82   120   121    2
    83   134   133    1
    84   134   135    1
    85   130   133    1
    86   130   129    1
    87    11    12    1
    88    12    13    1
    89    89    90    2
    90     9     7   ar
    91     9    10   ar
    92   135   136    1
    93     7     6   ar
    94    60    61   ar
    95    60    58   ar
    96    10     8   ar
    97    13    14    2
    98     4     3    2
    99    61    59   ar
   100     3     2    1
   101   136   137    2
   102     6     8   ar
   103     6     5    1
   104    58    55   ar
   105    30    29    1
   106   138   137    1
   107    59    57   ar
   108     5     2    1
   109    98    95    1
   110    98    99    1
   111   137   139    1
   112     2     1    1
   113    94    95    1
   114    29    28    2
   115    29    31    1
   116    95    96    1
   117    55    57   ar
   118    55    53   ar
   119    28    27    1
   120   101    99   ar
   121    57    56   ar
   122    99   100   ar
   123    27    26    1
   124    68    66    1
   125    50    49    1
   126    50    51    2
   127    39    37   am
   128    53    52    1
   129    53    54   ar
   130    96    97    2
   131    49    52    1
   132    49    48    1
   133    56    54   ar
   134    47    45   ar
   135    67    66    1
   136    26    25    1
   137    66    63    1
   138    37    38    2
   139    37    36    1
   140    45    46   ar
   141    45    44    1
   142    63    62    1
   143    63    64    1
   144    22    21    1
   145    22    25    1
   146    22    23    1
   147    72    71    2
   148    44    41    1
   149    36    33    1
   150    32    23   am
   151    32    33    1
   152    69    64   am
   153    69    70    1
   154    23    24    2
   155    64    65    2
   156    41    42    1
   157    41    40    1
   158    33    34    1
   159    71    70    1
   160    71    80   am
   161    42    43    2
   162    86    80    1
   163    86    85    1
   164    70    73    1
   165    80    81    1
   166    34    35    2
   167    73    74    1
   168    85    84    1
   169    74    75    1
   170    83    82    2
   171    75    76    1
   172    81    82    1
   173    81    84    1
   174    76    77    2
   175    77    79    1
   176    77    78    1
