@<TRIPOS>MOLECULE
tmp/4psrB06.pdb
 139 141 0 0 0
SMALL
GASTEIGER

@<TRIPOS>ATOM
      1  N         -3.7750    6.8280   -9.5870 N.3    30  TYR30      -0.1241
      2  CA        -3.5260    5.4120   -9.3960 C.3    30  TYR30       0.1605
      3  C         -4.6900    4.7730   -8.6560 C.2    30  TYR30       0.2264
      4  O         -5.6450    5.4700   -8.2920 O.2    30  TYR30      -0.2867
      5  CB        -2.1660    5.1100   -8.7200 C.3    30  TYR30       0.0534
      6  CG        -1.9610    5.3430   -7.2180 C.ar   30  TYR30      -0.0201
      7  CD1       -1.0960    4.5340   -6.5270 C.ar   30  TYR30      -0.0009
      8  CD2       -2.4990    6.4210   -6.5480 C.ar   30  TYR30      -0.0009
      9  CE1       -0.8160    4.7520   -5.1790 C.ar   30  TYR30       0.0417
     10  CE2       -2.2470    6.6290   -5.2180 C.ar   30  TYR30       0.0417
     11  CZ        -1.3930    5.8090   -4.5460 C.ar   30  TYR30       0.1957
     12  OH        -1.1000    6.0670   -3.2010 O.3    30  TYR30      -0.2866
     13  N         -5.9360    1.6120   -5.8290 N.3    32  HIS32      -0.1241
     14  CA        -5.8230    0.5130   -4.8920 C.3    32  HIS32       0.1621
     15  C         -6.9340   -0.4960   -5.1860 C.2    32  HIS32       0.2264
     16  O         -8.0150   -0.4450   -4.5700 O.2    32  HIS32      -0.2867
     17  CB        -5.9650    1.0000   -3.4470 C.3    32  HIS32       0.0745
     18  CG        -4.7370    1.6580   -2.8760 C.ar   32  HIS32       0.0817
     19  ND1       -4.2150    2.8350   -3.3640 N.ar   32  HIS32      -0.2268
     20  CD2       -3.9380    1.2900   -1.8400 C.ar   32  HIS32       0.1154
     21  CE1       -3.1600    3.1810   -2.6260 C.ar   32  HIS32       0.1986
     22  NE2       -2.9770    2.2670   -1.7000 N.ar   32  HIS32      -0.2212
     23  N         -8.3980   -1.3690    2.6810 N.3    44  GLU44      -0.1231
     24  CA        -7.3730   -2.1980    2.0930 C.3    44  GLU44       0.1699
     25  C         -6.5030   -2.9300    3.1100 C.2    44  GLU44       0.2592
     26  O         -5.7950   -3.8700    2.7350 O.2    44  GLU44      -0.2718
     27  CB        -6.5210   -1.3610    1.1360 C.3    44  GLU44       0.0402
     28  CG        -5.5370   -0.4070    1.7740 C.3    44  GLU44       0.1161
     29  CD        -6.1510    0.8050    2.4390 C.2    44  GLU44       0.3649
     30  OE1       -7.3490    1.1650    2.1830 O.co2  44  GLU44      -0.2457
     31  OE2       -5.3860    1.4100    3.2420 O.co2  44  GLU44      -0.2457
     32  N         -6.5990   -2.5550    4.3970 N.am   45  TRP45      -0.1976
     33  CA        -5.9420   -3.3200    5.4620 C.3    45  TRP45       0.1640
     34  C         -6.7400   -4.5160    5.9590 C.2    45  TRP45       0.2290
     35  O         -6.2880   -5.1890    6.8680 O.2    45  TRP45      -0.2864
     36  CB        -5.5360   -2.3980    6.6300 C.3    45  TRP45       0.0576
     37  CG        -4.2750   -1.6180    6.4030 C.ar   45  TRP45       0.0006
     38  CD1       -3.8100   -1.1520    5.2330 C.ar   45  TRP45       0.0946
     39  CD2       -3.3150   -1.2330    7.4050 C.ar   45  TRP45       0.0152
     40  NE1       -2.6120   -0.4930    5.4250 N.ar   45  TRP45      -0.2442
     41  CE2       -2.2800   -0.5450    6.7530 C.ar   45  TRP45       0.0810
     42  CE3       -3.2270   -1.4270    8.7970 C.ar   45  TRP45       0.0012
     43  CZ2       -1.1610   -0.0360    7.4370 C.ar   45  TRP45       0.0191
     44  CZ3       -2.1180   -0.9030    9.4790 C.ar   45  TRP45       0.0001
     45  CH2       -1.1040   -0.2270    8.7930 C.ar   45  TRP45       0.0015
     46  N          0.3380   -4.6130   -3.0500 N.3   124  HIS124     -0.1226
     47  CA         0.1260   -3.8550   -1.8340 C.3   124  HIS124      0.1752
     48  C          0.8930   -4.5680   -0.6990 C.2   124  HIS124      0.2596
     49  O          1.9450   -5.1350   -0.9710 O.2   124  HIS124     -0.2718
     50  CB        -1.3820   -3.6660   -1.5690 C.3   124  HIS124      0.0759
     51  CG        -1.6700   -2.5690   -0.5980 C.ar  124  HIS124      0.0818
     52  ND1       -2.0130   -2.8240    0.7180 N.ar  124  HIS124     -0.2268
     53  CD2       -1.5710   -1.2230   -0.7130 C.ar  124  HIS124      0.1154
     54  CE1       -2.1390   -1.6660    1.3500 C.ar  124  HIS124      0.1986
     55  NE2       -1.9000   -0.6840    0.5070 N.ar  124  HIS124     -0.2212
     56  N          0.3750   -4.5720    0.5430 N.am  125  HIS125     -0.1975
     57  CA         1.0730   -5.1860    1.6710 C.3   125  HIS125      0.1656
     58  C          0.7280   -6.6790    1.8010 C.2   125  HIS125      0.2291
     59  O          1.3240   -7.3910    2.6240 O.2   125  HIS125     -0.2864
     60  CB         0.6500   -4.5930    3.0090 C.3   125  HIS125      0.0771
     61  CG         0.8900   -3.1130    3.1930 C.ar  125  HIS125      0.0820
     62  ND1        2.0130   -2.4380    2.7400 N.ar  125  HIS125     -0.2267
     63  CD2        0.1330   -2.1930    3.8430 C.ar  125  HIS125      0.1154
     64  CE1        1.9170   -1.1660    3.1100 C.ar  125  HIS125      0.1986
     65  NE2        0.7990   -0.9920    3.7930 N.ar  125  HIS125     -0.2212
     66  N          4.0670   -1.8370   -2.3890 N.3   169  HIS169     -0.1241
     67  CA         3.9530   -1.6830   -0.9430 C.3   169  HIS169      0.1621
     68  C          4.4150   -2.9910   -0.2630 C.2   169  HIS169      0.2264
     69  O          3.9330   -3.3620    0.8040 O.2   169  HIS169     -0.2867
     70  CB         2.5170   -1.3400   -0.4880 C.3   169  HIS169      0.0745
     71  CG         1.7580   -0.3570   -1.3450 C.ar  169  HIS169      0.0817
     72  ND1        1.1000    0.7100   -0.7870 N.ar  169  HIS169     -0.2268
     73  CD2        1.4310   -0.3540   -2.6660 C.ar  169  HIS169      0.1154
     74  CE1        0.4160    1.3440   -1.7310 C.ar  169  HIS169      0.1986
     75  NE2        0.6060    0.7220   -2.8830 N.ar  169  HIS169     -0.2212
     76  N          6.5820    3.9130   -7.3400 N.3   222  TRP222     -0.1241
     77  CA         6.1480    4.4590   -6.0560 C.3   222  TRP222      0.1605
     78  C          6.3200    3.3960   -4.9890 C.2   222  TRP222      0.2264
     79  O          5.9330    2.2480   -5.1980 O.2   222  TRP222     -0.2867
     80  CB         4.6920    4.8940   -6.2340 C.3   222  TRP222      0.0550
     81  CG         3.9360    5.5150   -5.1010 C.ar  222  TRP222      0.0003
     82  CD1        3.4860    6.8100   -5.0450 C.ar  222  TRP222      0.0946
     83  CD2        3.3990    4.8600   -3.9390 C.ar  222  TRP222      0.0152
     84  NE1        2.7420    7.0130   -3.9140 N.ar  222  TRP222     -0.2442
     85  CE2        2.6930    5.8470   -3.1980 C.ar  222  TRP222      0.0810
     86  CE3        3.4810    3.5560   -3.4310 C.ar  222  TRP222      0.0012
     87  CZ2        2.0510    5.5590   -1.9950 C.ar  222  TRP222      0.0191
     88  CZ3        2.8570    3.2660   -2.2250 C.ar  222  TRP222      0.0001
     89  CH2        2.1530    4.2750   -1.5110 C.ar  222  TRP222      0.0015
     90  N          5.9250    2.2860   -0.7420 N.3   224  ASP224     -0.1225
     91  CA         5.3790    2.5360    0.5870 C.3   224  ASP224      0.1805
     92  C          6.4590    2.3880    1.6720 C.2   224  ASP224      0.2597
     93  O          7.6370    2.0960    1.3840 O.2   224  ASP224     -0.2718
     94  CB         4.1590    1.6270    0.8370 C.3   224  ASP224      0.1424
     95  CG         3.1120    2.2870    1.7180 C.2   224  ASP224      0.3668
     96  OD1        3.4240    3.3040    2.3740 O.co2 224  ASP224     -0.2456
     97  OD2        1.9810    1.8060    1.7400 O.co2 224  ASP224     -0.2456
     98  N          6.0120    2.5990    2.9100 N.am  225  PHE225     -0.1976
     99  CA         6.8810    2.6850    4.0830 C.3   225  PHE225      0.1639
    100  C          7.4360    1.3200    4.4350 C.2   225  PHE225      0.2290
    101  O          7.1590    0.3090    3.7620 O.2   225  PHE225     -0.2864
    102  CB         6.0830    3.2740    5.2750 C.3   225  PHE225      0.0560
    103  CG         5.2440    2.2820    6.0300 C.ar  225  PHE225     -0.0200
    104  CD1        5.6230    1.8540    7.2950 C.ar  225  PHE225     -0.0042
    105  CD2        4.0630    1.7870    5.4940 C.ar  225  PHE225     -0.0042
    106  CE1        4.8620    0.9440    8.0080 C.ar  225  PHE225     -0.0003
    107  CE2        3.2950    0.8630    6.2080 C.ar  225  PHE225     -0.0003
    108  CZ         3.6890    0.4540    7.4680 C.ar  225  PHE225     -0.0000
    109  N          7.9990    7.2510    1.0430 N.3   270  LYS270     -0.1245
    110  CA         7.2820    8.0520    2.0390 C.3   270  LYS270      0.1561
    111  C          8.2110    9.0290    2.7490 C.2   270  LYS270      0.2260
    112  O          9.3060    8.6690    3.1890 O.2   270  LYS270     -0.2867
    113  CB         6.5320    7.1850    3.0480 C.3   270  LYS270      0.0271
    114  CG         5.3920    6.3820    2.4120 C.3   270  LYS270      0.0035
    115  CD         4.2800    7.2750    1.8140 C.3   270  LYS270      0.0206
    116  CE         3.1090    6.4990    1.2660 C.3   270  LYS270      0.1093
    117  NZ         2.3330    5.9160    2.3420 N.3   270  LYS270     -0.1314
    118  N          0.0420   11.9560   -2.0550 N.3   301  ASP301     -0.1239
    119  CA        -1.0710   11.1110   -2.5140 C.3   301  ASP301      0.1674
    120  C         -2.3630   11.5840   -1.8720 C.2   301  ASP301      0.2266
    121  O         -2.3910   11.9960   -0.7030 O.2   301  ASP301     -0.2867
    122  CB        -0.9000    9.6450   -2.1670 C.3   301  ASP301      0.1410
    123  CG         0.4930    9.1770   -2.4180 C.2   301  ASP301      0.3668
    124  OD1        0.9620    9.3360   -3.5630 O.co2 301  ASP301     -0.2456
    125  OD2        1.1460    8.7380   -1.4540 O.co2 301  ASP301     -0.2456
    126  N         -8.6470    3.5640    1.0320 N.3   309  TRP309     -0.1241
    127  CA        -8.0500    3.6810   -0.3220 C.3   309  TRP309      0.1605
    128  C         -8.7120    2.6620   -1.2980 C.2   309  TRP309      0.2264
    129  O         -8.6230    2.8010   -2.5190 O.2   309  TRP309     -0.2867
    130  CB        -6.5300    3.4320   -0.2610 C.3   309  TRP309      0.0550
    131  CG        -5.7950    4.4380    0.5830 C.ar  309  TRP309      0.0003
    132  CD1       -5.6440    4.3980    1.9300 C.ar  309  TRP309      0.0946
    133  CD2       -5.1340    5.6270    0.1380 C.ar  309  TRP309      0.0152
    134  NE1       -4.9310    5.4940    2.3700 N.ar  309  TRP309     -0.2442
    135  CE2       -4.6000    6.2570    1.2780 C.ar  309  TRP309      0.0810
    136  CE3       -4.9110    6.1980   -1.1100 C.ar  309  TRP309      0.0012
    137  CZ2       -3.9020    7.4470    1.2040 C.ar  309  TRP309      0.0191
    138  CZ3       -4.2070    7.3930   -1.1810 C.ar  309  TRP309      0.0001
    139  CH2       -3.7200    7.9990   -0.0390 C.ar  309  TRP309      0.0015
@<TRIPOS>BOND
     1     1     2    1
     2     2     5    1
     3     2     3    1
     4     5     6    1
     5     3     4    2
     6    76    77    1
     7     6     8   ar
     8     6     7   ar
     9     8    10   ar
    10     7     9   ar
    11    80    77    1
    12    80    81    1
    13    77    78    1
    14    13    14    1
    15    10    11   ar
    16    79    78    2
    17    15    14    1
    18    15    16    2
    19     9    11   ar
    20    81    82   ar
    21    81    83   ar
    22    82    84   ar
    23    14    17    1
    24    11    12    1
    25    83    86   ar
    26    83    85   ar
    27    84    85   ar
    28   124   123   ar
    29    17    18    1
    30    86    88   ar
    31    19    18   ar
    32    19    21   ar
    33    85    87   ar
    34    46    47    1
    35    75    73   ar
    36    75    74   ar
    37    18    20   ar
    38    73    71   ar
    39    21    22   ar
    40   129   128    2
    41   119   122    1
    42   119   118    1
    43   119   120    1
    44   123   122    1
    45   123   125   ar
    46    66    67    1
    47    88    89   ar
    48    87    89   ar
    49   120   121    2
    50    20    22   ar
    51    47    50    1
    52    47    48    1
    53    74    72   ar
    54    50    51    1
    55    71    72   ar
    56    71    70    1
    57   128   127    1
    58   138   136   ar
    59   138   139   ar
    60   136   133   ar
    61    49    48    2
    62    67    70    1
    63    67    68    1
    64    90    91    1
    65    53    51   ar
    66    53    55   ar
    67    48    56   am
    68    51    52   ar
    69   127   130    1
    70   127   126    1
    71    68    69    2
    72   130   131    1
    73   139   137   ar
    74   133   131   ar
    75   133   135   ar
    76    55    54   ar
    77    56    57    1
    78   131   132   ar
    79    91    94    1
    80    91    92    1
    81    52    54   ar
    82    94    95    1
    83   109   110    1
    84    27    28    1
    85    27    24    1
    86   137   135   ar
    87   116   115    1
    88   116   117    1
    89   135   134   ar
    90    93    92    2
    91    57    58    1
    92    57    60    1
    93    92    98   am
    94    95    97   ar
    95    95    96   ar
    96    28    29    1
    97    58    59    2
    98   115   114    1
    99   132   134   ar
   100   110   111    1
   101   110   113    1
   102    24    23    1
   103    24    25    1
   104    30    29   ar
   105   114   113    1
   106    29    31   ar
   107    26    25    2
   108    62    64   ar
   109    62    61   ar
   110   111   112    2
   111    98    99    1
   112    60    61    1
   113    25    32   am
   114    64    65   ar
   115    61    63   ar
   116   101   100    2
   117    65    63   ar
   118    99   100    1
   119    99   102    1
   120    32    33    1
   121    38    40   ar
   122    38    37   ar
   123   102   103    1
   124    40    41   ar
   125    33    34    1
   126    33    36    1
   127   105   103   ar
   128   105   107   ar
   129    34    35    2
   130   103   104   ar
   131   107   108   ar
   132    37    36    1
   133    37    39   ar
   134    41    39   ar
   135    41    43   ar
   136   104   106   ar
   137    39    42   ar
   138    43    45   ar
   139   108   106   ar
   140    45    44   ar
   141    42    44   ar
