@<TRIPOS>MOLECULE
tmp/4psrB01.pdb
 116 112 0 0 0
SMALL
GASTEIGER

@<TRIPOS>ATOM
      1  N          7.7580   10.2730    2.8560 N.3   271  HIS271     -0.1241
      2  CA         8.5400   11.3890    3.4060 C.3   271  HIS271      0.1621
      3  C          9.2490   11.0620    4.7110 C.2   271  HIS271      0.2264
      4  O         10.4180   11.3880    4.8940 O.2   271  HIS271     -0.2867
      5  CB         7.6300   12.6120    3.6000 C.3   271  HIS271      0.0745
      6  CG         8.3150   13.7800    4.2470 C.ar  271  HIS271      0.0817
      7  ND1        7.8740   14.3420    5.4250 N.ar  271  HIS271     -0.2268
      8  CD2        9.4040   14.4880    3.8760 C.ar  271  HIS271      0.1154
      9  CE1        8.6630   15.3540    5.7490 C.ar  271  HIS271      0.1986
     10  NE2        9.6050   15.4570    4.8340 N.ar  271  HIS271     -0.2212
     11  N         13.2620    6.6870    6.1180 N.3   274  HIS274     -0.1241
     12  CA        14.6750    6.9670    5.8440 C.3   274  HIS274      0.1621
     13  C         15.3100    5.9920    4.8260 C.2   274  HIS274      0.2264
     14  O         16.5130    6.0010    4.6240 O.2   274  HIS274     -0.2867
     15  CB        15.4700    6.9180    7.1600 C.3   274  HIS274      0.0745
     16  CG        14.9390    7.8410    8.2160 C.ar  274  HIS274      0.0817
     17  ND1       15.0280    9.2120    8.1130 N.ar  274  HIS274     -0.2268
     18  CD2       14.2930    7.5910    9.3790 C.ar  274  HIS274      0.1154
     19  CE1       14.4750    9.7680    9.1760 C.ar  274  HIS274      0.1986
     20  NE2       14.0160    8.8090    9.9550 N.ar  274  HIS274     -0.2212
     21  N         17.0660    8.2300   -0.2000 N.3   277  ARG277     -0.1231
     22  CA        17.4880    9.6020    0.0340 C.3   277  ARG277      0.1694
     23  C         16.9440   10.5560   -0.9990 C.2   277  ARG277      0.2592
     24  O         16.7150   10.2140   -2.1530 O.2   277  ARG277     -0.2718
     25  CB        19.0040    9.7130    0.1360 C.3   277  ARG277      0.0321
     26  CG        19.4890    9.1170    1.4270 C.3   277  ARG277      0.0489
     27  CD        20.9530    9.1010    1.5220 C.3   277  ARG277      0.2205
     28  NE        21.3670    8.2050    2.5900 N.pl3 277  ARG277     -0.0865
     29  CZ        22.6230    8.0730    2.9790 C.cat 277  ARG277      0.5346
     30  NH1       23.5580    8.7830    2.3790 N.pl3 277  ARG277      0.1354
     31  NH2       22.9390    7.2350    3.9520 N.pl3 277  ARG277      0.1354
     32  N         16.7520   11.7790   -0.5350 N.am  278  ASN278     -0.1974
     33  CA        16.1320   12.8290   -1.3230 C.3   278  ASN278      0.1688
     34  C         17.0470   13.4660   -2.3680 C.2   278  ASN278      0.2292
     35  O         16.6310   14.3750   -3.0750 O.2   278  ASN278     -0.2864
     36  CB        15.5160   13.8770   -0.3900 C.3   278  ASN278      0.1181
     37  CG        16.5310   14.5810    0.4830 C.2   278  ASN278      0.2629
     38  OD1       17.6400   14.8590    0.0670 O.2   278  ASN278     -0.2716
     39  ND2       16.1280   14.8930    1.7110 N.am  278  ASN278     -0.0877
     40  N         10.3820   12.5940   -2.3070 N.3   283  ASP283     -0.1239
     41  CA         9.6290   12.4360   -1.0630 C.3   283  ASP283      0.1674
     42  C          8.1380   12.4960   -1.3690 C.2   283  ASP283      0.2266
     43  O          7.6660   13.4180   -2.0360 O.2   283  ASP283     -0.2867
     44  CB         9.9420   13.5550   -0.0530 C.3   283  ASP283      0.1410
     45  CG        11.3210   13.4720    0.5540 C.2   283  ASP283      0.3668
     46  OD1       12.2170   12.7690    0.0420 O.co2 283  ASP283     -0.2456
     47  OD2       11.4910   14.2120    1.5590 O.co2 283  ASP283     -0.2456
     48  N          7.8120   23.5410   -0.0460 N.3   294  VAL294     -0.1231
     49  CA         8.9480   22.6700    0.2350 C.3   294  VAL294      0.1692
     50  C          9.7950   22.4820   -1.0080 C.2   294  VAL294      0.2592
     51  O          9.2800   22.3230   -2.1070 O.2   294  VAL294     -0.2718
     52  CB         8.4320   21.3070    0.7340 C.3   294  VAL294      0.0266
     53  CG1        9.5280   20.2460    0.7470 C.3   294  VAL294      0.0020
     54  CG2        7.7670   21.4400    2.1140 C.3   294  VAL294      0.0020
     55  N         11.1100   22.5330   -0.8220 N.am  295  ARG295     -0.1966
     56  CA        12.0760   22.2180   -1.8680 C.3   295  ARG295      0.1714
     57  C         13.0730   21.1990   -1.2970 C.2   295  ARG295      0.2458
     58  O         13.4450   21.2900   -0.1150 O.2   295  ARG295     -0.2730
     59  CB        12.8230   23.4710   -2.3650 C.3   295  ARG295      0.0347
     60  CG        11.8820   24.5780   -2.7980 C.3   295  ARG295      0.0492
     61  CD        12.6470   25.7540   -3.3930 C.3   295  ARG295      0.2205
     62  NE        11.7490   26.7510   -3.9690 N.pl3 295  ARG295     -0.0865
     63  CZ        11.2040   26.6730   -5.1800 C.cat 295  ARG295      0.5346
     64  NH1       11.4430   25.6460   -5.9900 N.pl3 295  ARG295      0.1354
     65  NH2       10.3910   27.6270   -5.5810 N.pl3 295  ARG295      0.1354
     66  N         13.5170   20.2340   -2.1280 N.am  296  PRO296     -0.2727
     67  CA        13.2690   20.1150   -3.5660 C.3   296  PRO296      0.1402
     68  C         11.8800   19.5180   -3.8780 C.2   296  PRO296      0.2269
     69  O         11.0770   19.1980   -2.9840 O.2   296  PRO296     -0.2865
     70  CB        14.3880   19.1940   -4.0210 C.3   296  PRO296      0.0296
     71  CG        14.5750   18.2780   -2.8420 C.3   296  PRO296      0.0237
     72  CD        14.4240   19.1730   -1.6540 C.3   296  PRO296      0.0939
     73  N         13.6580   27.5740    7.4980 N.3   521  THR521     -0.1218
     74  CA        15.0460   27.1560    7.2880 C.3   521  THR521      0.1862
     75  C         15.2360   26.8240    5.8070 C.2   521  THR521      0.2287
     76  O         14.4310   26.1030    5.2160 O.2   521  THR521     -0.2866
     77  CB        15.4570   25.9790    8.1980 C.3   521  THR521      0.1770
     78  OG1       14.7730   24.7930    7.8000 O.3   521  THR521     -0.2211
     79  CG2       15.1240   26.2770    9.6510 C.3   521  THR521      0.0375
     80  N         18.1280   25.6540    3.0320 N.3   523  ASP523     -0.1239
     81  CA        19.4750   25.1210    2.7800 C.3   523  ASP523      0.1674
     82  C         19.9460   25.3650    1.3380 C.2   523  ASP523      0.2266
     83  O         19.2480   25.9970    0.5430 O.2   523  ASP523     -0.2867
     84  CB        19.5590   23.6260    3.1640 C.3   523  ASP523      0.1410
     85  CG        18.7020   22.7180    2.2930 C.2   523  ASP523      0.3668
     86  OD1       18.0800   23.1620    1.3160 O.co2 523  ASP523     -0.2456
     87  OD2       18.6750   21.5110    2.6310 O.co2 523  ASP523     -0.2456
     88  N         23.9830   23.2370    5.1580 N.3   555  ARG555     -0.1231
     89  CA        22.7810   22.9070    5.8960 C.3   555  ARG555      0.1694
     90  C         22.9730   23.2840    7.3800 C.2   555  ARG555      0.2592
     91  O         22.9880   22.4430    8.2820 O.2   555  ARG555     -0.2718
     92  CB        22.4500   21.4270    5.6790 C.3   555  ARG555      0.0321
     93  CG        21.0400   21.0660    6.0210 C.3   555  ARG555      0.0489
     94  CD        20.7190   19.6630    5.4790 C.3   555  ARG555      0.2205
     95  NE        20.3670   19.6800    4.0620 N.pl3 555  ARG555     -0.0865
     96  CZ        20.6430   18.7090    3.1940 C.cat 555  ARG555      0.5346
     97  NH1       21.3250   17.6360    3.5660 N.pl3 555  ARG555      0.1354
     98  NH2       20.2290   18.8080    1.9410 N.pl3 555  ARG555      0.1354
     99  N         23.1040   24.5890    7.6170 N.am  556  PHE556     -0.1962
    100  CA        23.0550   25.1750    8.9700 C.3   556  PHE556      0.1771
    101  C         24.2300   24.7920    9.8740 C.2   556  PHE556      0.2620
    102  O         24.0900   24.6320   11.0850 O.2   556  PHE556     -0.2715
    103  CB        21.6960   24.8880    9.6180 C.3   556  PHE556      0.0574
    104  CG        20.5570   24.9820    8.6320 C.ar  556  PHE556     -0.0200
    105  CD1       20.2130   26.2000    8.0840 C.ar  556  PHE556     -0.0042
    106  CD2       19.8850   23.8570    8.1930 C.ar  556  PHE556     -0.0042
    107  CE1       19.2170   26.3010    7.1270 C.ar  556  PHE556     -0.0003
    108  CE2       18.8720   23.9660    7.2490 C.ar  556  PHE556     -0.0003
    109  CZ        18.5550   25.1900    6.7140 C.ar  556  PHE556     -0.0000
    110  N         25.3910   24.6540    9.2360 N.am  557  THR557     -0.1951
    111  CA        26.6660   24.4180    9.9200 C.3   557  THR557      0.1897
    112  C         27.6160   25.5480    9.5000 C.2   557  THR557      0.2313
    113  O         27.3000   26.3480    8.6290 O.2   557  THR557     -0.2863
    114  CB        27.2880   23.0860    9.4920 C.3   557  THR557      0.1794
    115  OG1       27.5510   23.1040    8.0880 O.3   557  THR557     -0.2208
    116  CG2       26.3290   21.8970    9.7960 C.3   557  THR557      0.0378
@<TRIPOS>BOND
     1    64    63    1
     2    65    63    1
     3    63    62    2
     4    70    67    1
     5    70    71    1
     6    62    61    1
     7    68    67    1
     8    68    69    2
     9    67    66    1
    10    61    60    1
    11    35    34    2
    12    71    72    1
    13    60    59    1
    14    34    33    1
    15    59    56    1
    16    40    41    1
    17    24    23    2
    18    66    72    1
    19    66    57   am
    20    51    50    2
    21    43    42    2
    22    56    57    1
    23    56    55    1
    24    42    41    1
    25    33    32    1
    26    33    36    1
    27    57    58    2
    28    41    44    1
    29    50    55   am
    30    50    49    1
    31    23    32   am
    32    23    22    1
    33    36    37    1
    34    21    22    1
    35    44    45    1
    36    48    49    1
    37    22    25    1
    38    46    45   ar
    39    38    37    2
    40    25    26    1
    41    49    52    1
    42    37    39   am
    43    83    82    2
    44    45    47   ar
    45    52    53    1
    46    52    54    1
    47    86    85   ar
    48    82    81    1
    49    26    27    1
    50    27    28    1
    51    98    96    1
    52    85    87   ar
    53    85    84    1
    54    30    29    1
    55    28    29    2
    56    81    80    1
    57    81    84    1
    58     1     2    1
    59    29    31    1
    60    96    97    1
    61    96    95    2
    62     2     5    1
    63     2     3    1
    64     5     6    1
    65     8     6   ar
    66     8    10   ar
    67    95    94    1
    68     6     7   ar
    69    14    13    2
    70     3     4    2
    71    13    12    1
    72    10     9   ar
    73    88    89    1
    74    76    75    2
    75     7     9   ar
    76    94    93    1
    77    92    89    1
    78    92    93    1
    79    75    74    1
    80    12    11    1
    81    12    15    1
    82    89    90    1
    83   109   107   ar
    84   109   108   ar
    85   107   105   ar
    86    15    16    1
    87   108   106   ar
    88    74    73    1
    89    74    77    1
    90    90    99   am
    91    90    91    2
    92    99   100    1
    93    78    77    1
    94   105   104   ar
    95   115   114    1
    96    17    16   ar
    97    17    19   ar
    98   106   104   ar
    99    77    79    1
   100    16    18   ar
   101   113   112    2
   102   104   103    1
   103   100   103    1
   104   100   101    1
   105    19    20   ar
   106   110   101   am
   107   110   111    1
   108    18    20   ar
   109   114   116    1
   110   114   111    1
   111   112   111    1
   112   101   102    2
