@<TRIPOS>MOLECULE
tmp/4psrB05.pdb
 101 95 0 0 0
SMALL
GASTEIGER

@<TRIPOS>ATOM
      1  N         11.1100   22.5330   -0.8220 N.3   295  ARG295     -0.1245
      2  CA        12.0760   22.2180   -1.8680 C.3   295  ARG295      0.1563
      3  C         13.0730   21.1990   -1.2970 C.2   295  ARG295      0.2260
      4  O         13.4450   21.2900   -0.1150 O.2   295  ARG295     -0.2867
      5  CB        12.8230   23.4710   -2.3650 C.3   295  ARG295      0.0307
      6  CG        11.8820   24.5780   -2.7980 C.3   295  ARG295      0.0489
      7  CD        12.6470   25.7540   -3.3930 C.3   295  ARG295      0.2205
      8  NE        11.7490   26.7510   -3.9690 N.pl3 295  ARG295     -0.0865
      9  CZ        11.2040   26.6730   -5.1800 C.cat 295  ARG295      0.5346
     10  NH1       11.4430   25.6460   -5.9900 N.pl3 295  ARG295      0.1354
     11  NH2       10.3910   27.6270   -5.5810 N.pl3 295  ARG295      0.1354
     12  N          6.4360   26.5430   -9.0680 N.3   376  ALA376     -0.1231
     13  CA         6.0620   27.3480   -7.9240 C.3   376  ALA376      0.1694
     14  C          6.7380   28.7070   -7.9780 C.2   376  ALA376      0.2592
     15  O          7.8620   28.8500   -8.4980 O.2   376  ALA376     -0.2718
     16  CB         6.4780   26.6310   -6.6340 C.3   376  ALA376      0.0304
     17  N          6.0350   29.6930   -7.4420 N.am  377  TRP377     -0.1962
     18  CA         6.6160   31.0040   -7.1380 C.3   377  TRP377      0.1771
     19  C          7.4630   30.8610   -5.8670 C.2   377  TRP377      0.2619
     20  O          7.7850   29.7550   -5.4560 O.2   377  TRP377     -0.2715
     21  CB         5.4960   32.0400   -6.9810 C.3   377  TRP377      0.0590
     22  CG         5.9100   33.4940   -7.2020 C.ar  377  TRP377      0.0006
     23  CD1        6.9410   33.9420   -7.9550 C.ar  377  TRP377      0.0946
     24  CD2        5.2670   34.6400   -6.6640 C.ar  377  TRP377      0.0152
     25  NE1        6.9890   35.3290   -7.9170 N.ar  377  TRP377     -0.2442
     26  CE2        5.9640   35.7660   -7.1230 C.ar  377  TRP377      0.0810
     27  CE3        4.1810   34.8210   -5.8170 C.ar  377  TRP377      0.0012
     28  CZ2        5.5830   37.0690   -6.7720 C.ar  377  TRP377      0.0191
     29  CZ3        3.7990   36.1140   -5.4660 C.ar  377  TRP377      0.0001
     30  CH2        4.5110   37.2250   -5.9400 C.ar  377  TRP377      0.0015
     31  N          7.8390   31.9710   -5.2370 N.am  378  ASP378     -0.1971
     32  CA         8.4950   31.8680   -3.9260 C.3   378  ASP378      0.1709
     33  C          7.5510   31.9770   -2.7550 C.2   378  ASP378      0.2293
     34  O          7.9410   31.7320   -1.6100 O.2   378  ASP378     -0.2864
     35  CB         9.6090   32.9070   -3.7900 C.3   378  ASP378      0.1436
     36  CG        10.7290   32.6490   -4.7500 C.2   378  ASP378      0.3671
     37  OD1       11.1050   31.4630   -4.9910 O.co2 378  ASP378     -0.2456
     38  OD2       11.2280   33.6410   -5.2940 O.co2 378  ASP378     -0.2456
     39  N          3.8580   30.0360  -11.7210 N.3   407  ARG407     -0.1245
     40  CA         4.5070   30.9160  -12.6920 C.3   407  ARG407      0.1563
     41  C          5.0430   30.0900  -13.8450 C.2   407  ARG407      0.2260
     42  O          5.1910   28.8720  -13.7620 O.2   407  ARG407     -0.2867
     43  CB         5.5760   31.8180  -12.0360 C.3   407  ARG407      0.0307
     44  CG         6.6100   31.1290  -11.1710 C.3   407  ARG407      0.0489
     45  CD         7.7270   30.6420  -11.9760 C.3   407  ARG407      0.2205
     46  NE         8.7500   29.9370  -11.2160 N.pl3 407  ARG407     -0.0865
     47  CZ         9.8740   29.4810  -11.7670 C.cat 407  ARG407      0.5346
     48  NH1       10.1170   29.7010  -13.0560 N.pl3 407  ARG407      0.1354
     49  NH2       10.7550   28.8090  -11.0260 N.pl3 407  ARG407      0.1354
     50  N          9.6330   32.8760  -16.2140 N.3   411  ASP411     -0.1239
     51  CA         9.6020   33.7010  -15.0110 C.3   411  ASP411      0.1674
     52  C          9.1360   35.1250  -15.2820 C.2   411  ASP411      0.2266
     53  O          9.5010   36.0300  -14.5410 O.2   411  ASP411     -0.2867
     54  CB        10.9570   33.7140  -14.2800 C.3   411  ASP411      0.1410
     55  CG        10.8180   34.0550  -12.8180 C.2   411  ASP411      0.3668
     56  OD1        9.7760   33.7180  -12.2060 O.co2 411  ASP411     -0.2456
     57  OD2       11.7680   34.6460  -12.2340 O.co2 411  ASP411     -0.2456
     58  N          9.0900   38.5730  -13.1120 N.3   493  ILE493     -0.1245
     59  CA         8.1710   38.8980  -12.0340 C.3   493  ILE493      0.1561
     60  C          8.9470   39.5760  -10.8900 C.2   493  ILE493      0.2260
     61  O         10.0070   39.1030  -10.5030 O.2   493  ILE493     -0.2867
     62  CB         7.4840   37.6160  -11.4730 C.3   493  ILE493      0.0252
     63  CG1        6.7470   36.8580  -12.5730 C.3   493  ILE493      0.0019
     64  CG2        6.5380   37.9560  -10.3380 C.3   493  ILE493      0.0019
     65  CD1        6.5650   35.3560  -12.2440 C.3   493  ILE493      0.0001
     66  N         10.2660   40.5700   -7.2140 N.3   495  VAL495     -0.1245
     67  CA        10.4930   39.7990   -6.0060 C.3   495  VAL495      0.1561
     68  C          9.8300   40.5140   -4.8370 C.2   495  VAL495      0.2260
     69  O         10.2310   41.6340   -4.4940 O.2   495  VAL495     -0.2867
     70  CB        11.9860   39.6870   -5.7200 C.3   495  VAL495      0.0252
     71  CG1       12.2390   38.8970   -4.4360 C.3   495  VAL495      0.0019
     72  CG2       12.7200   39.0550   -6.8930 C.3   495  VAL495      0.0019
     73  N         16.2590   37.3620   -7.5990 N.3   514  GLY514     -0.1210
     74  CA        15.9660   37.2330   -6.1830 C.3   514  GLY514      0.1956
     75  C         15.0060   36.1400   -5.7870 C.2   514  GLY514      0.2611
     76  O         14.2810   35.5970   -6.6220 O.2   514  GLY514     -0.2717
     77  N         15.0200   35.8060   -4.5030 N.am  515  VAL515     -0.1979
     78  CA        14.1300   34.8090   -3.9100 C.3   515  VAL515      0.1595
     79  C         13.5640   35.3730   -2.6200 C.2   515  VAL515      0.2287
     80  O         14.3270   35.7750   -1.7150 O.2   515  VAL515     -0.2864
     81  CB        14.8950   33.4980   -3.5910 C.3   515  VAL515      0.0276
     82  CG1       13.9720   32.4650   -2.9050 C.3   515  VAL515      0.0022
     83  CG2       15.4930   32.9240   -4.8650 C.3   515  VAL515      0.0022
     84  N         17.3690   25.5220   -6.0090 N.3   529  GLU529     -0.1231
     85  CA        16.1540   25.1930   -6.7690 C.3   529  GLU529      0.1699
     86  C         15.2300   26.4030   -6.9460 C.2   529  GLU529      0.2592
     87  O         14.5430   26.5180   -7.9580 O.2   529  GLU529     -0.2718
     88  CB        15.3900   24.0460   -6.1050 C.3   529  GLU529      0.0402
     89  CG        14.3650   23.3990   -7.0600 C.3   529  GLU529      0.1161
     90  CD        13.4110   22.4670   -6.3340 C.2   529  GLU529      0.3649
     91  OE1       12.6200   22.9570   -5.5210 O.co2 529  GLU529     -0.2457
     92  OE2       13.4980   21.2270   -6.5670 O.co2 529  GLU529     -0.2457
     93  N         15.2240   27.3070   -5.9620 N.am  530  ALA530     -0.1966
     94  CA        14.4560   28.5440   -6.0280 C.3   530  ALA530      0.1728
     95  C         15.0250   29.5650   -7.0280 C.2   530  ALA530      0.2616
     96  O         14.3670   30.5600   -7.3180 O.2   530  ALA530     -0.2715
     97  CB        14.3660   29.1640   -4.6390 C.3   530  ALA530      0.0334
     98  N         16.2220   29.3200   -7.5480 N.am  531  GLY531     -0.1955
     99  CA        16.7670   30.1350   -8.6190 C.3   531  GLY531      0.1869
    100  C         17.9730   30.9600   -8.2440 C.2   531  GLY531      0.2309
    101  O         18.4500   31.7510   -9.0720 O.2   531  GLY531     -0.2863
@<TRIPOS>BOND
     1    50    51    1
     2    52    51    1
     3    52    53    2
     4    51    54    1
     5    54    55    1
     6    41    42    2
     7    41    40    1
     8    58    59    1
     9    48    47    1
    10    55    57   ar
    11    55    56   ar
    12    40    43    1
    13    40    39    1
    14    63    65    1
    15    63    62    1
    16    43    44    1
    17    59    62    1
    18    59    60    1
    19    45    46    1
    20    45    44    1
    21    47    46    2
    22    47    49    1
    23    62    64    1
    24    60    61    2
    25   101   100    2
    26    12    13    1
    27    99   100    1
    28    99    98    1
    29    15    14    2
    30    14    13    1
    31    14    17   am
    32    87    86    2
    33    23    25   ar
    34    23    22   ar
    35    13    16    1
    36    25    26   ar
    37    73    74    1
    38    98    95   am
    39    17    18    1
    40    96    95    2
    41    66    67    1
    42    22    21    1
    43    22    24   ar
    44    18    21    1
    45    18    19    1
    46    26    28   ar
    47    26    24   ar
    48    89    90    1
    49    89    88    1
    50    95    94    1
    51    86    85    1
    52    86    93   am
    53    72    70    1
    54    28    30   ar
    55    85    88    1
    56    85    84    1
    57    24    27   ar
    58    76    75    2
    59    92    90   ar
    60    90    91   ar
    61    74    75    1
    62    94    93    1
    63    94    97    1
    64    67    70    1
    65    67    68    1
    66    10     9    1
    67    30    29   ar
    68    19    20    2
    69    19    31   am
    70    27    29   ar
    71    75    77   am
    72    70    71    1
    73    11     9    1
    74    38    36   ar
    75    31    32    1
    76     9     8    2
    77    37    36   ar
    78    83    81    1
    79    68    69    2
    80    36    35    1
    81    77    78    1
    82     8     7    1
    83    32    35    1
    84    32    33    1
    85    78    81    1
    86    78    79    1
    87    81    82    1
    88     7     6    1
    89     6     5    1
    90    33    34    2
    91    79    80    2
    92     5     2    1
    93     2     3    1
    94     2     1    1
    95     3     4    2
