@<TRIPOS>MOLECULE
tmp/4psuA00.pdb
 184 175 0 0 0
SMALL
GASTEIGER

@<TRIPOS>ATOM
      1  N         18.7040    9.1870   80.5830 N.3    45  THR45      -0.1203
      2  CA        17.6130    9.5960   81.4530 C.3    45  THR45       0.1994
      3  C         18.1050   10.4210   82.6360 C.2    45  THR45       0.2618
      4  O         19.0680   10.0560   83.3070 O.2    45  THR45      -0.2717
      5  CB        16.8520    8.3670   81.9800 C.3    45  THR45       0.1784
      6  OG1       16.6000    7.4650   80.8960 O.3    45  THR45      -0.2211
      7  CG2       15.5340    8.7730   82.6260 C.3    45  THR45       0.0376
      8  N         17.4350   11.5430   82.8770 N.am   46  GLY46      -0.1942
      9  CA        17.6990   12.3630   84.0440 C.3    46  GLY46       0.2014
     10  C         18.9120   13.2700   83.9390 C.2    46  GLY46       0.2638
     11  O         19.2570   13.9560   84.9010 O.2    46  GLY46      -0.2714
     12  N         19.5610   13.2780   82.7780 N.am   47  ALA47      -0.1977
     13  CA        20.7410   14.1140   82.5670 C.3    47  ALA47       0.1597
     14  C         20.4230   15.2700   81.6160 C.2    47  ALA47       0.2287
     15  O         19.2600   15.6420   81.4490 O.2    47  ALA47      -0.2864
     16  CB        21.8870   13.2730   82.0320 C.3    47  ALA47       0.0319
     17  N         23.2710    5.4300   77.5780 N.3   106  SER106     -0.1202
     18  CA        22.1920    4.8010   78.3270 C.3   106  SER106      0.2020
     19  C         20.9080    4.7660   77.4770 C.2   106  SER106      0.2618
     20  O         20.9220    4.2410   76.3600 O.2   106  SER106     -0.2717
     21  CB        21.9900    5.5460   79.6500 C.3   106  SER106      0.2103
     22  OG        21.3150    4.7400   80.5930 O.3   106  SER106     -0.2182
     23  N         19.8070    5.3180   77.9840 N.am  107  ALA107     -0.1979
     24  CA        18.5470    5.3410   77.2360 C.3   107  ALA107      0.1597
     25  C         18.6790    6.0760   75.9060 C.2   107  ALA107      0.2287
     26  O         17.9190    5.8260   74.9680 O.2   107  ALA107     -0.2864
     27  CB        17.4660    5.9860   78.0630 C.3   107  ALA107      0.0319
     28  N         21.2220    1.3790   77.3300 N.3   131  ALA131     -0.1245
     29  CA        20.2210    0.6510   78.0910 C.3   131  ALA131      0.1562
     30  C         19.2120    0.0130   77.1450 C.2   131  ALA131      0.2260
     31  O         18.1360    0.5620   76.9060 O.2   131  ALA131     -0.2867
     32  CB        19.5330    1.5740   79.0610 C.3   131  ALA131      0.0290
     33  N         15.1950   -1.9480   82.6080 N.3   135  TYR135     -0.1241
     34  CA        15.8920   -1.7220   83.8700 C.3   135  TYR135      0.1605
     35  C         15.5730   -2.8430   84.8580 C.2   135  TYR135      0.2264
     36  O         14.4210   -3.2670   84.9720 O.2   135  TYR135     -0.2867
     37  CB        15.4870   -0.3600   84.4450 C.3   135  TYR135      0.0534
     38  CG        16.5420    0.3590   85.2630 C.ar  135  TYR135     -0.0201
     39  CD1       17.8670    0.4180   84.8440 C.ar  135  TYR135     -0.0009
     40  CD2       16.2010    1.0130   86.4400 C.ar  135  TYR135     -0.0009
     41  CE1       18.8260    1.0860   85.5920 C.ar  135  TYR135      0.0417
     42  CE2       17.1490    1.6840   87.1900 C.ar  135  TYR135      0.0417
     43  CZ        18.4580    1.7190   86.7630 C.ar  135  TYR135      0.1957
     44  OH        19.3930    2.3900   87.5180 O.3   135  TYR135     -0.2866
     45  N         11.6020   13.5580   95.8500 N.3   158  PHE158     -0.1241
     46  CA        12.8990   13.1240   95.3470 C.3   158  PHE158      0.1605
     47  C         13.8220   14.3210   95.1680 C.2   158  PHE158      0.2264
     48  O         15.0020   14.2600   95.5070 O.2   158  PHE158     -0.2867
     49  CB        12.7520   12.3740   94.0170 C.3   158  PHE158      0.0534
     50  CG        12.1900   10.9770   94.1480 C.ar  158  PHE158     -0.0203
     51  CD1       12.1620   10.3170   95.3710 C.ar  158  PHE158     -0.0042
     52  CD2       11.6920   10.3200   93.0350 C.ar  158  PHE158     -0.0042
     53  CE1       11.6470    9.0350   95.4770 C.ar  158  PHE158     -0.0003
     54  CE2       11.1760    9.0390   93.1360 C.ar  158  PHE158     -0.0003
     55  CZ        11.1540    8.3970   94.3560 C.ar  158  PHE158     -0.0000
     56  N         17.2030   14.9260   97.2250 N.3   162  ALA162     -0.1245
     57  CA        18.4340   14.9140   96.4410 C.3   162  ALA162      0.1562
     58  C         19.2100   16.2200   96.5680 C.2   162  ALA162      0.2260
     59  O         20.3090   16.3500   96.0300 O.2   162  ALA162     -0.2867
     60  CB        18.1170   14.6360   94.9860 C.3   162  ALA162      0.0290
     61  N         23.9830   13.8210   95.6850 N.3   168  VAL168     -0.1245
     62  CA        24.2960   13.6550   94.2700 C.3   168  VAL168      0.1561
     63  C         25.5460   12.7930   94.0930 C.2   168  VAL168      0.2260
     64  O         25.5490   11.8580   93.2890 O.2   168  VAL168     -0.2867
     65  CB        24.4970   15.0140   93.5740 C.3   168  VAL168      0.0252
     66  CG1       24.9410   14.8340   92.1250 C.3   168  VAL168      0.0019
     67  CG2       23.2190   15.8030   93.6190 C.3   168  VAL168      0.0019
     68  N         24.4860    9.2890   94.6820 N.3   171  LEU171     -0.1231
     69  CA        23.7260    8.7430   93.5560 C.3   171  LEU171      0.1693
     70  C         24.6330    8.3820   92.3910 C.2   171  LEU171      0.2591
     71  O         24.5020    7.3140   91.7900 O.2   171  LEU171     -0.2718
     72  CB        22.6700    9.7440   93.0800 C.3   171  LEU171      0.0284
     73  CG        21.3130    9.7590   93.7860 C.3   171  LEU171      0.0019
     74  CD1       20.4450   10.8650   93.2070 C.3   171  LEU171      0.0001
     75  CD2       20.6050    8.4150   93.6670 C.3   171  LEU171      0.0001
     76  N         25.5500    9.2840   92.0720 N.am  172  ILE172     -0.1980
     77  CA        26.4870    9.0600   90.9850 C.3   172  ILE172      0.1595
     78  C         27.4720    7.9510   91.3610 C.2   172  ILE172      0.2287
     79  O         27.8310    7.1230   90.5220 O.2   172  ILE172     -0.2864
     80  CB        27.2250   10.3690   90.6290 C.3   172  ILE172      0.0276
     81  CG1       26.2440   11.3180   89.9280 C.3   172  ILE172      0.0022
     82  CG2       28.4530   10.0890   89.7600 C.3   172  ILE172      0.0022
     83  CD1       26.8550   12.5990   89.4040 C.3   172  ILE172      0.0001
     84  N         26.4330    4.3480   90.6250 N.3   175  THR175     -0.1218
     85  CA        26.5130    3.8740   89.2490 C.3   175  THR175      0.1862
     86  C         27.9380    3.4370   88.9040 C.2   175  THR175      0.2287
     87  O         28.1810    2.8780   87.8340 O.2   175  THR175     -0.2866
     88  CB        26.0730    4.9570   88.2510 C.3   175  THR175      0.1770
     89  OG1       26.9550    6.0820   88.3470 O.3   175  THR175     -0.2211
     90  CG2       24.6360    5.4010   88.5200 C.3   175  THR175      0.0375
     91  N         24.6980   18.5050   88.0660 N.3   187  TYR187     -0.1241
     92  CA        23.6980   17.4720   88.3040 C.3   187  TYR187      0.1605
     93  C         22.8190   17.8670   89.4840 C.2   187  TYR187      0.2264
     94  O         21.6060   17.6820   89.4470 O.2   187  TYR187     -0.2867
     95  CB        24.3590   16.1140   88.5550 C.3   187  TYR187      0.0534
     96  CG        24.5990   15.3140   87.2910 C.ar  187  TYR187     -0.0201
     97  CD1       23.5420   14.7380   86.6000 C.ar  187  TYR187     -0.0009
     98  CD2       25.8820   15.1350   86.7900 C.ar  187  TYR187     -0.0009
     99  CE1       23.7530   14.0090   85.4460 C.ar  187  TYR187      0.0417
    100  CE2       26.1030   14.4060   85.6360 C.ar  187  TYR187      0.0417
    101  CZ        25.0340   13.8450   84.9680 C.ar  187  TYR187      0.1957
    102  OH        25.2470   13.1180   83.8180 O.3   187  TYR187     -0.2866
    103  N         18.7510   17.6710   89.6440 N.3   191  VAL191     -0.1245
    104  CA        17.9850   16.8190   90.5510 C.3   191  VAL191      0.1561
    105  C         17.1760   17.6470   91.5430 C.2   191  VAL191      0.2260
    106  O         16.2380   17.1400   92.1490 O.2   191  VAL191     -0.2867
    107  CB        18.8870   15.8340   91.3450 C.3   191  VAL191      0.0252
    108  CG1       19.4970   14.7930   90.4170 C.3   191  VAL191      0.0019
    109  CG2       19.9650   16.5730   92.1200 C.3   191  VAL191      0.0019
    110  N         12.2780   18.6930   86.2240 N.3   196  HIS196     -0.1226
    111  CA        13.3060   17.8500   85.6200 C.3   196  HIS196      0.1752
    112  C         13.1830   16.4150   86.1050 C.2   196  HIS196      0.2595
    113  O         13.2270   15.4770   85.3170 O.2   196  HIS196     -0.2718
    114  CB        14.7080   18.3650   85.9380 C.3   196  HIS196      0.0759
    115  CG        15.7960   17.4670   85.4390 C.ar  196  HIS196      0.0818
    116  ND1       16.2110   17.4600   84.1260 N.ar  196  HIS196     -0.2268
    117  CD2       16.5330   16.5240   86.0720 C.ar  196  HIS196      0.1154
    118  CE1       17.1700   16.5640   83.9730 C.ar  196  HIS196      0.1986
    119  NE2       17.3820   15.9800   85.1410 N.ar  196  HIS196     -0.2212
    120  N         13.0490   16.2520   87.4150 N.am  197  VAL197     -0.1980
    121  CA        12.9010   14.9300   88.0030 C.3   197  VAL197      0.1595
    122  C         11.6300   14.2600   87.4880 C.2   197  VAL197      0.2287
    123  O         11.6540   13.0950   87.0980 O.2   197  VAL197     -0.2864
    124  CB        12.8710   15.0070   89.5440 C.3   197  VAL197      0.0276
    125  CG1       12.5970   13.6420   90.1580 C.3   197  VAL197      0.0022
    126  CG2       14.1870   15.5570   90.0610 C.3   197  VAL197      0.0022
    127  N         12.2010   12.8860   84.0720 N.3   200  ALA200     -0.1231
    128  CA        12.9710   11.6510   84.0630 C.3   200  ALA200      0.1694
    129  C         12.1380   10.4560   84.5260 C.2   200  ALA200      0.2591
    130  O         12.3060    9.3480   84.0230 O.2   200  ALA200     -0.2718
    131  CB        14.1990   11.8060   84.9390 C.3   200  ALA200      0.0304
    132  N         11.2410   10.6860   85.4830 N.am  201  LEU201     -0.1980
    133  CA        10.4210    9.6100   86.0360 C.3   201  LEU201      0.1596
    134  C          9.3450    9.1490   85.0540 C.2   201  LEU201      0.2287
    135  O          9.1100    7.9500   84.9070 O.2   201  LEU201     -0.2864
    136  CB         9.7600   10.0510   87.3440 C.3   201  LEU201      0.0297
    137  CG        10.6720   10.3730   88.5310 C.3   201  LEU201      0.0022
    138  CD1        9.8420   10.9160   89.6860 C.3   201  LEU201      0.0001
    139  CD2       11.4890    9.1600   88.9720 C.3   201  LEU201      0.0001
    140  N          8.5500    3.5560   79.5990 N.3   205  TRP205     -0.1241
    141  CA         9.5850    2.9350   78.7780 C.3   205  TRP205      0.1605
    142  C          9.2840    1.4630   78.5180 C.2   205  TRP205      0.2264
    143  O          9.3270    0.6370   79.4310 O.2   205  TRP205     -0.2867
    144  CB        10.9510    3.0800   79.4500 C.3   205  TRP205      0.0550
    145  CG        12.0640    3.3780   78.4920 C.ar  205  TRP205      0.0003
    146  CD1       13.1420    2.5890   78.2170 C.ar  205  TRP205      0.0946
    147  CD2       12.2100    4.5510   77.6810 C.ar  205  TRP205      0.0152
    148  NE1       13.9490    3.1960   77.2870 N.ar  205  TRP205     -0.2442
    149  CE2       13.3980    4.4030   76.9410 C.ar  205  TRP205      0.0810
    150  CE3       11.4480    5.7110   77.5090 C.ar  205  TRP205      0.0012
    151  CZ2       13.8470    5.3700   76.0450 C.ar  205  TRP205      0.0191
    152  CZ3       11.8960    6.6740   76.6180 C.ar  205  TRP205      0.0001
    153  CH2       13.0830    6.4960   75.8970 C.ar  205  TRP205      0.0015
    154  N         24.8300    0.3030   87.0760 N.3   231  ALA231     -0.1231
    155  CA        23.4570    0.5130   86.6340 C.3   231  ALA231      0.1694
    156  C         23.1160   -0.3490   85.4170 C.2   231  ALA231      0.2591
    157  O         22.1070   -1.0500   85.4100 O.2   231  ALA231     -0.2718
    158  CB        23.2340    1.9760   86.3200 C.3   231  ALA231      0.0304
    159  N         23.9630   -0.2760   84.3920 N.am  232  ILE232     -0.1980
    160  CA        23.8200   -1.0820   83.1810 C.3   232  ILE232      0.1595
    161  C         25.0500   -1.9760   83.0380 C.2   232  ILE232      0.2287
    162  O         26.0700   -1.5460   82.4980 O.2   232  ILE232     -0.2864
    163  CB        23.6820   -0.2060   81.9110 C.3   232  ILE232      0.0276
    164  CG1       22.6260    0.8870   82.1070 C.3   232  ILE232      0.0022
    165  CG2       23.3610   -1.0690   80.6900 C.3   232  ILE232      0.0022
    166  CD1       21.2100    0.3730   82.2380 C.3   232  ILE232      0.0001
    167  N         29.2360    4.1020   84.9340 N.3   257  HIS257     -0.1226
    168  CA        28.1460    4.4480   84.0300 C.3   257  HIS257      0.1752
    169  C         28.4110    5.7450   83.2590 C.2   257  HIS257      0.2595
    170  O         27.9820    5.8850   82.1130 O.2   257  HIS257     -0.2718
    171  CB        26.8430    4.5670   84.8220 C.3   257  HIS257      0.0759
    172  CG        25.6170    4.6320   83.9660 C.ar  257  HIS257      0.0818
    173  ND1       25.2980    3.6540   83.0490 N.ar  257  HIS257     -0.2268
    174  CD2       24.6310    5.5540   83.8910 C.ar  257  HIS257      0.1154
    175  CE1       24.1730    3.9690   82.4450 C.ar  257  HIS257      0.1986
    176  NE2       23.7410    5.1210   82.9340 N.ar  257  HIS257     -0.2212
    177  N         29.1180    6.6830   83.8870 N.am  258  LEU258     -0.1980
    178  CA        29.4240    7.9730   83.2650 C.3   258  LEU258      0.1596
    179  C         30.8530    8.0030   82.7260 C.2   258  LEU258      0.2287
    180  O         31.5480    9.0090   82.8490 O.2   258  LEU258     -0.2864
    181  CB        29.2240    9.1170   84.2660 C.3   258  LEU258      0.0297
    182  CG        27.8290    9.2950   84.8750 C.3   258  LEU258      0.0022
    183  CD1       27.7880   10.5380   85.7520 C.3   258  LEU258      0.0001
    184  CD2       26.7620    9.3850   83.8040 C.3   258  LEU258      0.0001
@<TRIPOS>BOND
     1    26    25    2
     2   153   151   ar
     3   153   152   ar
     4    25    24    1
     5   151   149   ar
     6    20    19    2
     7   152   150   ar
     8    31    30    2
     9   149   148   ar
    10   149   147   ar
    11    30    29    1
    12    24    23    1
    13    24    27    1
    14   148   146   ar
    15    28    29    1
    16    19    23   am
    17    19    18    1
    18   150   147   ar
    19    17    18    1
    20   147   145   ar
    21    29    32    1
    22   146   145   ar
    23    18    21    1
    24   145   144    1
    25   142   141    1
    26   142   143    2
    27   141   144    1
    28   141   140    1
    29    21    22    1
    30     1     2    1
    31   165   163    1
    32     6     5    1
    33    15    14    2
    34     2     5    1
    35     2     3    1
    36    14    13    1
    37   163   164    1
    38   163   160    1
    39     5     7    1
    40    16    13    1
    41   164   166    1
    42   170   169    2
    43   175   176   ar
    44   175   173   ar
    45   162   161    2
    46    13    12    1
    47    33    34    1
    48     3     8   am
    49     3     4    2
    50   179   180    2
    51   179   178    1
    52    12    10   am
    53     8     9    1
    54   176   174   ar
    55   161   160    1
    56   173   172   ar
    57   160   159    1
    58   169   177   am
    59   169   168    1
    60   178   177    1
    61   178   181    1
    62   184   182    1
    63   102   101    1
    64    34    37    1
    65    34    35    1
    66   174   172   ar
    67    10     9    1
    68    10    11    2
    69   172   171    1
    70   118   116   ar
    71   118   119   ar
    72   130   129    2
    73   168   171    1
    74   168   167    1
    75   128   127    1
    76   128   129    1
    77   128   131    1
    78   116   115   ar
    79   181   182    1
    80   159   156   am
    81    37    38    1
    82   129   132   am
    83    39    38   ar
    84    39    41   ar
    85    35    36    2
    86   182   183    1
    87   135   134    2
    88   101    99   ar
    89   101   100   ar
    90   134   133    1
    91   119   117   ar
    92    38    40   ar
    93   113   112    2
    94   157   156    2
    95   156   155    1
    96   115   114    1
    97   115   117   ar
    98    99    97   ar
    99   132   133    1
   100    41    43   ar
   101   111   114    1
   102   111   112    1
   103   111   110    1
   104   100    98   ar
   105   133   136    1
   106   112   120   am
   107   158   155    1
   108    40    42   ar
   109    97    96   ar
   110   155   154    1
   111    43    42   ar
   112    43    44    1
   113    98    96   ar
   114   123   122    2
   115    96    95    1
   116   136   137    1
   117   120   121    1
   118   122   121    1
   119    87    86    2
   120   121   124    1
   121    91    92    1
   122    88    89    1
   123    88    90    1
   124    88    85    1
   125    92    95    1
   126    92    93    1
   127   137   139    1
   128   137   138    1
   129    86    85    1
   130    85    84    1
   131    83    81    1
   132    94    93    2
   133   124   126    1
   134   124   125    1
   135   103   104    1
   136    82    80    1
   137    81    80    1
   138   108   107    1
   139    79    78    2
   140   104   107    1
   141   104   105    1
   142    80    77    1
   143    77    78    1
   144    77    76    1
   145   107   109    1
   146   105   106    2
   147    71    70    2
   148    76    70   am
   149    66    65    1
   150    70    69    1
   151    52    54   ar
   152    52    50   ar
   153    72    69    1
   154    72    73    1
   155    54    55   ar
   156    74    73    1
   157    64    63    2
   158    69    68    1
   159    65    67    1
   160    65    62    1
   161    75    73    1
   162    49    50    1
   163    49    46    1
   164    63    62    1
   165    50    51   ar
   166    62    61    1
   167    55    53   ar
   168    60    57    1
   169    47    46    1
   170    47    48    2
   171    46    45    1
   172    51    53   ar
   173    59    58    2
   174    57    58    1
   175    57    56    1
