@<TRIPOS>MOLECULE
tmp/4pswA00.pdb
 209 206 0 0 0
SMALL
GASTEIGER

@<TRIPOS>ATOM
      1  N         -3.6030  -27.7120    1.4480 N.3    30  LEU30      -0.1245
      2  CA        -5.0010  -27.2980    1.3610 C.3    30  LEU30       0.1561
      3  C         -5.2140  -25.9700    2.0910 C.2    30  LEU30       0.2260
      4  O         -6.1190  -25.1930    1.7540 O.2    30  LEU30      -0.2867
      5  CB        -5.9130  -28.3770    1.9540 C.3    30  LEU30       0.0270
      6  CG        -6.0450  -29.6640    1.1320 C.3    30  LEU30       0.0019
      7  CD1       -6.8570  -30.7250    1.8730 C.3    30  LEU30       0.0001
      8  CD2       -6.6650  -29.3720   -0.2420 C.3    30  LEU30       0.0001
      9  N         -3.2940  -29.4980    6.0230 N.3   156  PHE156     -0.1227
     10  CA        -4.2980  -30.3910    5.4240 C.3   156  PHE156      0.1736
     11  C         -5.5910  -30.6220    6.2070 C.2   156  PHE156      0.2595
     12  O         -6.5180  -31.2470    5.6900 O.2   156  PHE156     -0.2718
     13  CB        -3.6570  -31.7270    5.0460 C.3   156  PHE156      0.0547
     14  CG        -2.6120  -31.5970    3.9800 C.ar  156  PHE156     -0.0202
     15  CD1       -2.9810  -31.4350    2.6530 C.ar  156  PHE156     -0.0042
     16  CD2       -1.2590  -31.5910    4.3080 C.ar  156  PHE156     -0.0042
     17  CE1       -2.0250  -31.2950    1.6580 C.ar  156  PHE156     -0.0003
     18  CE2       -0.2920  -31.4550    3.3210 C.ar  156  PHE156     -0.0003
     19  CZ        -0.6770  -31.3060    1.9970 C.ar  156  PHE156     -0.0000
     20  N         -5.6500  -30.1270    7.4410 N.am  157  ILE157     -0.1980
     21  CA        -6.8510  -30.2560    8.2660 C.3   157  ILE157      0.1595
     22  C         -7.3150  -28.8750    8.7320 C.2   157  ILE157      0.2287
     23  O         -6.5990  -28.2090    9.4920 O.2   157  ILE157     -0.2864
     24  CB        -6.5770  -31.1580    9.4830 C.3   157  ILE157      0.0276
     25  CG1       -6.2220  -32.5730    9.0060 C.3   157  ILE157      0.0022
     26  CG2       -7.7900  -31.1730   10.4320 C.3   157  ILE157      0.0022
     27  CD1       -5.5620  -33.4450   10.0640 C.3   157  ILE157      0.0001
     28  N        -10.3380  -40.0020   18.3080 N.3   213  ILE213     -0.1231
     29  CA        -9.5090  -39.6750   17.1440 C.3   213  ILE213      0.1692
     30  C         -9.5200  -38.1540   16.9320 C.2   213  ILE213      0.2593
     31  O        -10.5910  -37.5460   16.7810 O.2   213  ILE213     -0.2718
     32  CB       -10.0230  -40.3840   15.8580 C.3   213  ILE213      0.0266
     33  CG1       -9.7820  -41.8970   15.9400 C.3   213  ILE213      0.0019
     34  CG2       -9.3440  -39.8100   14.5970 C.3   213  ILE213      0.0020
     35  CD1      -10.2720  -42.6570   14.7240 C.3   213  ILE213      0.0001
     36  N         -8.3420  -37.5350   16.9310 N.am  214  SER214     -0.1938
     37  CA        -8.2610  -36.0870   16.7420 C.3   214  SER214      0.2055
     38  C         -7.8000  -35.7440   15.3350 C.2   214  SER214      0.2643
     39  O         -8.5970  -35.3180   14.5040 O.2   214  SER214     -0.2714
     40  CB        -7.3110  -35.4680   17.7520 C.3   214  SER214      0.2130
     41  OG        -7.4140  -34.0530   17.7210 O.3   214  SER214     -0.2179
     42  N         -6.5080  -35.9270   15.0660 N.am  215  GLN215     -0.1963
     43  CA        -5.9620  -35.5680   13.7630 C.3   215  GLN215      0.1733
     44  C         -5.5920  -36.8350   13.0210 C.2   215  GLN215      0.2616
     45  O         -4.7270  -37.5920   13.4660 O.2   215  GLN215     -0.2715
     46  CB        -4.7360  -34.6680   13.9300 C.3   215  GLN215      0.0408
     47  CG        -5.0230  -33.4010   14.7240 C.3   215  GLN215      0.0908
     48  CD        -3.7630  -32.8120   15.3240 C.2   215  GLN215      0.2608
     49  OE1       -2.8440  -33.5490   15.7020 O.2   215  GLN215     -0.2717
     50  NE2       -3.7120  -31.4790   15.4210 N.am  215  GLN215     -0.0878
     51  N         -6.2540  -37.0590   11.8910 N.am  216  PHE216     -0.1960
     52  CA        -6.1420  -38.3120   11.1630 C.3   216  PHE216      0.1771
     53  C         -5.6250  -37.9920    9.7640 C.2   216  PHE216      0.2619
     54  O         -6.3130  -37.3460    8.9690 O.2   216  PHE216     -0.2715
     55  CB        -7.5180  -38.9700   11.0970 C.3   216  PHE216      0.0574
     56  CG        -7.5050  -40.3960   10.6060 C.ar  216  PHE216     -0.0200
     57  CD1       -7.3840  -40.6820    9.2500 C.ar  216  PHE216     -0.0042
     58  CD2       -7.6630  -41.4480   11.4980 C.ar  216  PHE216     -0.0042
     59  CE1       -7.3960  -42.0010    8.7950 C.ar  216  PHE216     -0.0003
     60  CE2       -7.6720  -42.7680   11.0540 C.ar  216  PHE216     -0.0003
     61  CZ        -7.5460  -43.0440    9.6990 C.ar  216  PHE216     -0.0000
     62  N         -4.4070  -38.4250    9.4600 N.am  217  LEU217     -0.1963
     63  CA        -3.7880  -37.9860    8.2150 C.3   217  LEU217      0.1728
     64  C         -3.0740  -39.0970    7.4740 C.2   217  LEU217      0.2616
     65  O         -2.1590  -39.7310    8.0130 O.2   217  LEU217     -0.2715
     66  CB        -2.7860  -36.8590    8.4800 C.3   217  LEU217      0.0311
     67  CG        -2.3930  -36.1020    7.2030 C.3   217  LEU217      0.0022
     68  CD1       -3.2210  -34.8320    7.0620 C.3   217  LEU217      0.0001
     69  CD2       -0.9200  -35.7820    7.1710 C.3   217  LEU217      0.0001
     70  N         -3.4880  -39.3150    6.2310 N.am  218  ILE218     -0.1977
     71  CA        -2.6960  -40.0940    5.2930 C.3   218  ILE218      0.1596
     72  C         -2.0530  -39.0880    4.3360 C.2   218  ILE218      0.2287
     73  O         -2.7640  -38.2730    3.7370 O.2   218  ILE218     -0.2864
     74  CB        -3.5770  -41.0870    4.5040 C.3   218  ILE218      0.0276
     75  CG1       -4.2080  -42.1140    5.4590 C.3   218  ILE218      0.0022
     76  CG2       -2.7710  -41.7740    3.3930 C.3   218  ILE218      0.0022
     77  CD1       -3.2360  -43.1380    6.0260 C.3   218  ILE218      0.0001
     78  N         -3.0020  -41.3800   -0.5750 N.3   223  GLN223     -0.1231
     79  CA        -4.4570  -41.3900   -0.4030 C.3   223  GLN223      0.1698
     80  C         -5.1900  -42.1160   -1.5310 C.2   223  GLN223      0.2592
     81  O         -4.6260  -42.3400   -2.6100 O.2   223  GLN223     -0.2718
     82  CB        -4.9790  -39.9610   -0.2900 C.3   223  GLN223      0.0381
     83  CG        -4.3510  -39.2080    0.8640 C.3   223  GLN223      0.0905
     84  CD        -4.8150  -37.7790    0.9440 C.2   223  GLN223      0.2608
     85  OE1       -5.4620  -37.2700    0.0290 O.2   223  GLN223     -0.2717
     86  NE2       -4.4860  -37.1170    2.0440 N.am  223  GLN223     -0.0878
     87  N         -6.4480  -42.4680   -1.2700 N.am  224  ASN224     -0.1960
     88  CA        -7.3060  -43.1330   -2.2600 C.3   224  ASN224      0.1819
     89  C         -6.7780  -44.4900   -2.7150 C.2   224  ASN224      0.2621
     90  O         -6.8690  -44.8470   -3.8900 O.2   224  ASN224     -0.2715
     91  CB        -7.5940  -42.2190   -3.4570 C.3   224  ASN224      0.1195
     92  CG        -8.2810  -40.9320   -3.0480 C.2   224  ASN224      0.2630
     93  OD1       -9.4520  -40.9350   -2.6650 O.2   224  ASN224     -0.2716
     94  ND2       -7.5560  -39.8210   -3.1280 N.am  224  ASN224     -0.0877
     95  N         -6.2270  -45.2360   -1.7610 N.am  225  LYS225     -0.1963
     96  CA        -5.7190  -46.5760   -2.0040 C.3   225  LYS225      0.1728
     97  C         -6.2110  -47.5320   -0.9240 C.2   225  LYS225      0.2617
     98  O         -5.8560  -48.7060   -0.9270 O.2   225  LYS225     -0.2715
     99  CB        -4.1920  -46.5640   -2.0470 C.3   225  LYS225      0.0311
    100  CG        -3.6390  -45.7660   -3.2090 C.3   225  LYS225      0.0038
    101  CD        -2.2600  -45.2020   -2.8960 C.3   225  LYS225      0.0206
    102  CE        -1.9160  -44.0460   -3.8300 C.3   225  LYS225      0.1093
    103  NZ        -2.1690  -44.4160   -5.2500 N.3   225  LYS225     -0.1314
    104  N         -7.0200  -47.0180    0.0010 N.am  226  GLY226     -0.1940
    105  CA        -7.5840  -47.8220    1.0710 C.3   226  GLY226      0.2014
    106  C         -6.8930  -47.6660    2.4180 C.2   226  GLY226      0.2639
    107  O         -7.3540  -48.2270    3.4170 O.2   226  GLY226     -0.2714
    108  N         -5.7860  -46.9210    2.4580 N.am  227  HIS227     -0.1959
    109  CA        -5.0300  -46.7590    3.7060 C.3   227  HIS227      0.1787
    110  C         -5.8810  -46.1750    4.8310 C.2   227  HIS227      0.2621
    111  O         -5.8430  -46.6660    5.9660 O.2   227  HIS227     -0.2715
    112  CB        -3.7610  -45.9110    3.5000 C.3   227  HIS227      0.0785
    113  CG        -2.6310  -46.6570    2.8570 C.ar  227  HIS227      0.0821
    114  ND1       -2.1260  -47.8330    3.3720 N.ar  227  HIS227     -0.2267
    115  CD2       -1.9040  -46.3940    1.7440 C.ar  227  HIS227      0.1154
    116  CE1       -1.1380  -48.2610    2.6060 C.ar  227  HIS227      0.1986
    117  NE2       -0.9870  -47.4080    1.6060 N.ar  227  HIS227     -0.2212
    118  N         -6.6450  -45.1310    4.5240 N.am  228  GLY228     -0.1940
    119  CA        -7.5060  -44.5250    5.5320 C.3   228  GLY228      0.2014
    120  C         -8.3970  -45.5530    6.2190 C.2   228  GLY228      0.2639
    121  O         -8.4710  -45.5890    7.4460 O.2   228  GLY228     -0.2714
    122  N         -9.0480  -46.4060    5.4290 N.am  229  SER229     -0.1949
    123  CA        -9.9330  -47.4220    5.9800 C.3   229  SER229      0.1924
    124  C         -9.1880  -48.4340    6.8400 C.2   229  SER229      0.2314
    125  O         -9.6290  -48.7690    7.9450 O.2   229  SER229     -0.2863
    126  CB       -10.6750  -48.1410    4.8570 C.3   229  SER229      0.2116
    127  OG       -11.6850  -47.3130    4.3280 O.3   229  SER229     -0.2180
    128  N        -14.7180  -39.1510   17.6980 N.3   250  VAL250     -0.1231
    129  CA       -13.9080  -38.4240   16.7200 C.3   250  VAL250      0.1692
    130  C        -14.0830  -36.9290   16.9470 C.2   250  VAL250      0.2592
    131  O        -15.2140  -36.4720   17.1890 O.2   250  VAL250     -0.2718
    132  CB       -14.3440  -38.7560   15.2740 C.3   250  VAL250      0.0266
    133  CG1      -13.4590  -38.0240   14.2520 C.3   250  VAL250      0.0020
    134  CG2      -14.3040  -40.2500   15.0380 C.3   250  VAL250      0.0020
    135  N        -12.9810  -36.1750   16.8820 N.am  251  GLU251     -0.1966
    136  CA       -13.0330  -34.7110   16.9940 C.3   251  GLU251      0.1733
    137  C        -13.3930  -34.0520   15.6590 C.2   251  GLU251      0.2616
    138  O        -12.6980  -34.2640   14.6500 O.2   251  GLU251     -0.2715
    139  CB       -11.6930  -34.1360   17.4890 C.3   251  GLU251      0.0429
    140  CG       -11.7220  -32.6030   17.6630 C.3   251  GLU251      0.1163
    141  CD       -10.4410  -32.0080   18.2700 C.2   251  GLU251      0.3649
    142  OE1       -9.4710  -32.7590   18.5350 O.co2 251  GLU251     -0.2457
    143  OE2      -10.4110  -30.7720   18.4870 O.co2 251  GLU251     -0.2457
    144  N        -14.4680  -33.2570   15.6740 N.am  252  ASP252     -0.1958
    145  CA       -14.9280  -32.4690   14.5150 C.3   252  ASP252      0.1825
    146  C        -14.6410  -33.0860   13.1310 C.2   252  ASP252      0.2464
    147  O        -13.9240  -32.5020   12.3140 O.2   252  ASP252     -0.2730
    148  CB       -14.3850  -31.0340   14.6150 C.3   252  ASP252      0.1450
    149  CG       -14.8080  -30.3380   15.9190 C.2   252  ASP252      0.3671
    150  OD1      -15.8030  -30.7910   16.5360 O.co2 252  ASP252     -0.2456
    151  OD2      -14.1550  -29.3380   16.3260 O.co2 252  ASP252     -0.2456
    152  N        -15.2000  -34.2800   12.8650 N.am  253  PRO253     -0.2715
    153  CA       -14.8740  -34.9600   11.6060 C.3   253  PRO253      0.1536
    154  C        -15.4300  -34.1950   10.4140 C.2   253  PRO253      0.2598
    155  O        -16.4660  -33.5350   10.5410 O.2   253  PRO253     -0.2715
    156  CB       -15.5840  -36.3180   11.7400 C.3   253  PRO253      0.0310
    157  CG       -16.7280  -36.0600   12.6860 C.3   253  PRO253      0.0237
    158  CD       -16.2300  -34.9970   13.6470 C.3   253  PRO253      0.0939
    159  N        -14.7330  -34.2600    9.2830 N.am  254  ASN254     -0.1973
    160  CA       -15.2370  -33.6850    8.0420 C.3   254  ASN254      0.1688
    161  C        -16.0470  -34.7140    7.2560 C.2   254  ASN254      0.2292
    162  O        -16.2060  -35.8590    7.6960 O.2   254  ASN254     -0.2864
    163  CB       -14.0960  -33.1250    7.1830 C.3   254  ASN254      0.1181
    164  CG       -12.9990  -34.1460    6.9170 C.2   254  ASN254      0.2629
    165  OD1      -13.1510  -35.3300    7.2060 O.2   254  ASN254     -0.2716
    166  ND2      -11.8820  -33.6830    6.3610 N.am  254  ASN254     -0.0877
    167  N        -15.3880  -36.2920    4.4780 N.3   256  ALA256     -0.1231
    168  CA       -14.5980  -37.4260    4.0100 C.3   256  ALA256      0.1694
    169  C        -14.3750  -38.4310    5.1350 C.2   256  ALA256      0.2592
    170  O        -14.4870  -39.6400    4.9250 O.2   256  ALA256     -0.2718
    171  CB       -13.2750  -36.9570    3.4370 C.3   256  ALA256      0.0304
    172  N        -14.0610  -37.9380    6.3320 N.am  257  PHE257     -0.1976
    173  CA       -13.9550  -38.8380    7.4740 C.3   257  PHE257      0.1639
    174  C        -15.3120  -39.4560    7.8630 C.2   257  PHE257      0.2290
    175  O        -15.3750  -40.6500    8.2000 O.2   257  PHE257     -0.2864
    176  CB       -13.3020  -38.1700    8.6820 C.3   257  PHE257      0.0560
    177  CG       -12.7690  -39.1620    9.6730 C.ar  257  PHE257     -0.0200
    178  CD1      -11.4800  -39.6750    9.5370 C.ar  257  PHE257     -0.0042
    179  CD2      -13.5710  -39.6300   10.7060 C.ar  257  PHE257     -0.0042
    180  CE1      -10.9880  -40.6150   10.4340 C.ar  257  PHE257     -0.0003
    181  CE2      -13.0860  -40.5740   11.6070 C.ar  257  PHE257     -0.0003
    182  CZ       -11.7940  -41.0680   11.4690 C.ar  257  PHE257     -0.0000
    183  N        -17.6700  -40.3910    5.9000 N.3   259  ASP259     -0.1225
    184  CA       -17.9790  -41.4890    4.9840 C.3   259  ASP259      0.1805
    185  C        -17.1060  -42.7100    5.2490 C.2   259  ASP259      0.2597
    186  O        -17.5770  -43.8500    5.1980 O.2   259  ASP259     -0.2718
    187  CB       -17.8170  -41.0370    3.5290 C.3   259  ASP259      0.1424
    188  CG       -18.6720  -39.8280    3.1930 C.2   259  ASP259      0.3668
    189  OD1      -18.3080  -39.0830    2.2550 O.co2 259  ASP259     -0.2456
    190  OD2      -19.7030  -39.6230    3.8720 O.co2 259  ASP259     -0.2456
    191  N        -15.8290  -42.4630    5.5210 N.am  260  LEU260     -0.1979
    192  CA       -14.9030  -43.5320    5.8760 C.3   260  LEU260      0.1596
    193  C        -15.3940  -44.2650    7.1310 C.2   260  LEU260      0.2287
    194  O        -15.4980  -45.4950    7.1450 O.2   260  LEU260     -0.2864
    195  CB       -13.5020  -42.9540    6.1050 C.3   260  LEU260      0.0297
    196  CG       -12.3850  -43.9490    6.4190 C.3   260  LEU260      0.0022
    197  CD1      -11.1230  -43.6110    5.6460 C.3   260  LEU260      0.0001
    198  CD2      -12.0980  -43.9470    7.8990 C.3   260  LEU260      0.0001
    199  N        -18.6430  -46.2190    6.5770 N.3   263  ARG263     -0.1245
    200  CA       -18.4860  -47.3810    5.6980 C.3   263  ARG263      0.1563
    201  C        -17.8850  -48.5370    6.4860 C.2   263  ARG263      0.2260
    202  O        -18.3530  -49.6790    6.4030 O.2   263  ARG263     -0.2867
    203  CB       -17.5970  -47.0450    4.4960 C.3   263  ARG263      0.0307
    204  CG       -17.8750  -47.8950    3.2550 C.3   263  ARG263      0.0489
    205  CD       -16.6010  -48.3100    2.4900 C.3   263  ARG263      0.2205
    206  NE       -15.4120  -47.5460    2.8740 N.pl3 263  ARG263     -0.0865
    207  CZ       -15.1450  -46.3070    2.4640 C.cat 263  ARG263      0.5346
    208  NH1      -15.9920  -45.6690    1.6680 N.pl3 263  ARG263      0.1354
    209  NH2      -14.0410  -45.6960    2.8690 N.pl3 263  ARG263      0.1354
@<TRIPOS>BOND
     1   103   102    1
     2    90    89    2
     3   102   101    1
     4    91    92    1
     5    91    88    1
     6   100   101    1
     7   100    99    1
     8    94    92   am
     9    92    93    2
    10    89    88    1
    11    89    95   am
    12    81    80    2
    13    88    87    1
    14    99    96    1
    15    96    95    1
    16    96    97    1
    17    80    87   am
    18    80    79    1
    19    98    97    2
    20    97   104   am
    21    78    79    1
    22    79    82    1
    23    82    83    1
    24     8     6    1
    25   104   105    1
    26    85    84    2
    27    83    84    1
    28    84    86   am
    29   105   106    1
    30     6     7    1
    31     6     5    1
    32     2     1    1
    33     2     5    1
    34     2     3    1
    35   117   115   ar
    36   117   116   ar
    37    17    19   ar
    38    17    15   ar
    39   208   207    1
    40   115   113   ar
    41     4     3    2
    42    19    18   ar
    43   189   188   ar
    44   106   108   am
    45   106   107    2
    46   108   109    1
    47   207   209    1
    48   207   206    2
    49   205   206    1
    50   205   204    1
    51   116   114   ar
    52    15    14   ar
    53   113   114   ar
    54   113   112    1
    55   188   187    1
    56   188   190   ar
    57   204   203    1
    58    18    16   ar
    59    76    74    1
    60   171   168    1
    61   112   109    1
    62   187   184    1
    63   109   110    1
    64    73    72    2
    65    14    16   ar
    66    14    13    1
    67   168   167    1
    68   168   169    1
    69   127   126    1
    70    72    71    1
    71   203   200    1
    72    74    71    1
    73    74    75    1
    74   118   110   am
    75   118   119    1
    76   110   111    2
    77   126   123    1
    78   170   169    2
    79   184   185    1
    80   184   183    1
    81    13    10    1
    82   169   172   am
    83   186   185    2
    84   185   191   am
    85    71    70    1
    86    10     9    1
    87    10    11    1
    88   122   123    1
    89   122   120   am
    90    75    77    1
    91   191   192    1
    92   119   120    1
    93   197   196    1
    94    12    11    2
    95   200   201    1
    96   200   199    1
    97   192   195    1
    98   192   193    1
    99   123   124    1
   100   195   196    1
   101    11    20   am
   102   120   121    2
   103    70    64   am
   104   172   173    1
   105   166   164   am
   106   202   201    2
   107   196   198    1
   108   124   125    2
   109   164   163    1
   110   164   165    2
   111    68    67    1
   112   193   194    2
   113    69    67    1
   114   163   160    1
   115    67    66    1
   116   161   162    2
   117   161   160    1
   118    20    21    1
   119    64    65    2
   120    64    63    1
   121   173   174    1
   122   173   176    1
   123   174   175    2
   124   160   159    1
   125    63    66    1
   126    63    62    1
   127    21    22    1
   128    21    24    1
   129   176   177    1
   130    22    23    2
   131    59    57   ar
   132    59    61   ar
   133    54    53    2
   134    25    24    1
   135    25    27    1
   136    57    56   ar
   137   159   154   am
   138    62    53   am
   139    24    26    1
   140   178   177   ar
   141   178   180   ar
   142   177   179   ar
   143    61    60   ar
   144    53    52    1
   145   154   155    2
   146   154   153    1
   147   180   182   ar
   148    56    55    1
   149    56    58   ar
   150   179   181   ar
   151    60    58   ar
   152    55    52    1
   153    52    51    1
   154   182   181   ar
   155   153   156    1
   156   153   152    1
   157   156   157    1
   158    51    44   am
   159   147   146    2
   160   157   158    1
   161   152   146   am
   162   152   158    1
   163    44    45    2
   164    44    43    1
   165   146   145    1
   166    43    46    1
   167    43    42    1
   168    46    47    1
   169   133   132    1
   170    39    38    2
   171   145   148    1
   172   145   144    1
   173    34    32    1
   174   148   149    1
   175   138   137    2
   176    47    48    1
   177    35    33    1
   178   134   132    1
   179    42    38   am
   180   132   129    1
   181    48    50   am
   182    48    49    2
   183    38    37    1
   184   137   144   am
   185   137   136    1
   186    32    33    1
   187    32    29    1
   188   149   151   ar
   189   149   150   ar
   190   129   130    1
   191   129   128    1
   192    37    36    1
   193    37    40    1
   194    31    30    2
   195   135   130   am
   196   135   136    1
   197    36    30   am
   198    30    29    1
   199   130   131    2
   200   136   139    1
   201    29    28    1
   202   139   140    1
   203   140   141    1
   204    41    40    1
   205   141   143   ar
   206   141   142   ar
