@<TRIPOS>MOLECULE
tmp/4psxB00.pdb
 242 230 0 0 0
SMALL
GASTEIGER

@<TRIPOS>ATOM
      1  N        -35.2100  -28.8140   32.9650 N.3    25  ARG25      -0.1231
      2  CA       -34.1970  -28.3510   33.9000 C.3    25  ARG25       0.1694
      3  C        -34.2220  -29.1720   35.1680 C.2    25  ARG25       0.2592
      4  O        -35.2760  -29.4660   35.7190 O.2    25  ARG25      -0.2718
      5  CB       -34.3690  -26.8630   34.2130 C.3    25  ARG25       0.0321
      6  CG       -33.5490  -25.9660   33.2980 C.3    25  ARG25       0.0489
      7  CD       -32.3450  -25.3760   34.0530 C.3    25  ARG25       0.2205
      8  NE       -31.3530  -24.7060   33.1970 N.pl3  25  ARG25      -0.0865
      9  CZ       -31.5890  -23.6870   32.3650 C.cat  25  ARG25       0.5346
     10  NH1      -32.8130  -23.1780   32.2240 N.pl3  25  ARG25       0.1354
     11  NH2      -30.5830  -23.1780   31.6580 N.pl3  25  ARG25       0.1354
     12  N        -33.0380  -29.5630   35.6090 N.am   26  LEU26      -0.1966
     13  CA       -32.9000  -30.3870   36.7900 C.3    26  LEU26       0.1728
     14  C        -32.3250  -29.5210   37.8870 C.2    26  LEU26       0.2617
     15  O        -31.4870  -28.6510   37.6230 O.2    26  LEU26      -0.2715
     16  CB       -31.9510  -31.5550   36.5140 C.3    26  LEU26       0.0311
     17  CG       -32.2830  -32.4670   35.3340 C.3    26  LEU26       0.0022
     18  CD1      -31.2300  -33.5370   35.1670 C.3    26  LEU26       0.0001
     19  CD2      -33.6300  -33.0940   35.5390 C.3    26  LEU26       0.0001
     20  N        -32.7540  -29.7730   39.1180 N.am   27  THR27      -0.1937
     21  CA       -32.2500  -29.0200   40.2510 C.3    27  THR27       0.2028
     22  C        -30.7390  -29.2020   40.2630 C.2    27  THR27       0.2642
     23  O        -29.9750  -28.2420   40.3590 O.2    27  THR27      -0.2714
     24  CB       -32.8730  -29.5420   41.5540 C.3    27  THR27       0.1808
     25  OG1      -34.2940  -29.3530   41.4980 O.3    27  THR27      -0.2208
     26  CG2      -32.3000  -28.8100   42.7670 C.3    27  THR27       0.0379
     27  N        -30.3200  -30.4480   40.1050 N.am   28  TRP28      -0.1960
     28  CA       -28.9100  -30.7940   40.0450 C.3    28  TRP28       0.1756
     29  C        -28.6220  -31.5320   38.7500 C.2    28  TRP28       0.2461
     30  O        -29.5050  -32.1970   38.2000 O.2    28  TRP28      -0.2730
     31  CB       -28.5670  -31.6930   41.2240 C.3    28  TRP28       0.0590
     32  CG       -28.5260  -30.9780   42.5280 C.ar   28  TRP28       0.0006
     33  CD1      -29.4220  -31.0720   43.5520 C.ar   28  TRP28       0.0946
     34  CD2      -27.5140  -30.0660   42.9590 C.ar   28  TRP28       0.0152
     35  NE1      -29.0250  -30.2690   44.5950 N.ar   28  TRP28      -0.2442
     36  CE2      -27.8570  -29.6410   44.2520 C.ar   28  TRP28       0.0810
     37  CE3      -26.3510  -29.5690   42.3730 C.ar   28  TRP28       0.0012
     38  CZ2      -27.0740  -28.7400   44.9690 C.ar   28  TRP28       0.0191
     39  CZ3      -25.5780  -28.6760   43.0840 C.ar   28  TRP28       0.0001
     40  CH2      -25.9400  -28.2710   44.3670 C.ar   28  TRP28       0.0015
     41  N        -27.3860  -31.4090   38.2490 N.am   29  PRO29      -0.2727
     42  CA       -27.0440  -32.0990   36.9980 C.3    29  PRO29       0.1402
     43  C        -26.9550  -33.6190   37.1830 C.2    29  PRO29       0.2269
     44  O        -26.4780  -34.0900   38.2220 O.2    29  PRO29      -0.2865
     45  CB       -25.6520  -31.5330   36.6600 C.3    29  PRO29       0.0296
     46  CG       -25.0730  -31.1530   37.9950 C.3    29  PRO29       0.0237
     47  CD       -26.2520  -30.6260   38.7790 C.3    29  PRO29       0.0939
     48  N        -25.2720  -37.2370   35.7810 N.3    31  LEU31      -0.1245
     49  CA       -24.0710  -37.6970   35.0990 C.3    31  LEU31       0.1561
     50  C        -24.4000  -38.9630   34.3570 C.2    31  LEU31       0.2260
     51  O        -23.5390  -39.5120   33.6590 O.2    31  LEU31      -0.2867
     52  CB       -22.9860  -38.0460   36.1020 C.3    31  LEU31       0.0270
     53  CG       -22.5600  -36.9360   37.0520 C.3    31  LEU31       0.0019
     54  CD1      -21.3550  -37.3780   37.9030 C.3    31  LEU31       0.0001
     55  CD2      -22.2420  -35.7060   36.2240 C.3    31  LEU31       0.0001
     56  N        -25.4670  -34.7480   41.0750 N.3    57  HIS57      -0.1226
     57  CA       -24.0990  -34.3770   41.3680 C.3    57  HIS57       0.1752
     58  C        -24.2160  -33.0110   42.0080 C.2    57  HIS57       0.2597
     59  O        -24.7270  -32.0820   41.3840 O.2    57  HIS57      -0.2718
     60  CB       -23.2840  -34.3000   40.0830 C.3    57  HIS57       0.0759
     61  CG       -21.8680  -33.8670   40.2950 C.ar   57  HIS57       0.0818
     62  ND1      -21.1120  -34.2970   41.3640 N.ar   57  HIS57      -0.2268
     63  CD2      -21.0660  -33.0540   39.5670 C.ar   57  HIS57       0.1154
     64  CE1      -19.9060  -33.7610   41.2910 C.ar   57  HIS57       0.1986
     65  NE2      -19.8510  -33.0040   40.2090 N.ar   57  HIS57      -0.2212
     66  N        -23.7970  -32.9020   43.2670 N.am   58  THR58      -0.1939
     67  CA       -23.9800  -31.6740   44.0360 C.3    58  THR58       0.2028
     68  C        -22.6440  -31.0490   44.4010 C.2    58  THR58       0.2642
     69  O        -22.5930  -29.9500   44.9700 O.2    58  THR58      -0.2714
     70  CB       -24.7540  -31.9390   45.3360 C.3    58  THR58       0.1808
     71  OG1      -24.0220  -32.8770   46.1350 O.3    58  THR58      -0.2208
     72  CG2      -26.1300  -32.5050   45.0270 C.3    58  THR58       0.0379
     73  N        -21.5690  -31.7840   44.1250 N.am   59  SER59      -0.1949
     74  CA       -20.2230  -31.3770   44.5160 C.3    59  SER59       0.1924
     75  C        -20.1300  -31.2060   46.0390 C.2    59  SER59       0.2314
     76  O        -19.2110  -30.5640   46.5540 O.2    59  SER59      -0.2863
     77  CB       -19.7840  -30.1050   43.7740 C.3    59  SER59       0.2116
     78  OG       -19.3870  -30.3940   42.4440 O.3    59  SER59      -0.2180
     79  N        -22.6870  -29.9570   48.1970 N.3    61  GLU61      -0.1231
     80  CA       -23.5740  -28.9920   48.8550 C.3    61  GLU61       0.1699
     81  C        -24.8180  -29.6190   49.4920 C.2    61  GLU61       0.2592
     82  O        -25.1630  -29.3100   50.6330 O.2    61  GLU61      -0.2718
     83  CB       -23.9910  -27.8810   47.8910 C.3    61  GLU61       0.0402
     84  CG       -22.8380  -27.1230   47.2660 C.3    61  GLU61       0.1161
     85  CD       -23.2790  -25.7820   46.7180 C.2    61  GLU61       0.3649
     86  OE1      -24.2860  -25.2340   47.2280 O.co2  61  GLU61      -0.2457
     87  OE2      -22.6190  -25.2790   45.7830 O.co2  61  GLU61      -0.2457
     88  N        -25.4870  -30.4960   48.7510 N.am   62  GLU62      -0.1979
     89  CA       -26.6670  -31.1860   49.2540 C.3    62  GLU62       0.1602
     90  C        -26.4120  -32.6880   49.2750 C.2    62  GLU62       0.2287
     91  O        -25.2830  -33.1480   49.0530 O.2    62  GLU62      -0.2864
     92  CB       -27.8680  -30.9120   48.3470 C.3    62  GLU62       0.0415
     93  CG       -28.5200  -29.5440   48.4830 C.3    62  GLU62       0.1163
     94  CD       -29.8180  -29.4500   47.6780 C.2    62  GLU62       0.3649
     95  OE1      -30.3160  -28.3210   47.4680 O.co2  62  GLU62      -0.2457
     96  OE2      -30.3490  -30.5090   47.2560 O.co2  62  GLU62      -0.2457
     97  N        -21.8330  -38.6200   44.4620 N.3    92  GLU92      -0.1245
     98  CA       -22.4520  -38.4530   43.1520 C.3    92  GLU92       0.1567
     99  C        -22.5990  -39.7900   42.4090 C.2    92  GLU92       0.2260
    100  O        -21.8100  -40.7210   42.5870 O.2    92  GLU92      -0.2867
    101  CB       -21.6590  -37.4530   42.2980 C.3    92  GLU92       0.0388
    102  CG       -20.2690  -37.9150   41.8220 C.3    92  GLU92       0.1160
    103  CD       -19.1260  -37.5350   42.7720 C.2    92  GLU92       0.3649
    104  OE1      -19.3760  -36.9690   43.8670 O.co2  92  GLU92      -0.2457
    105  OE2      -17.9560  -37.7810   42.4010 O.co2  92  GLU92      -0.2457
    106  N        -22.0430  -41.5290   39.2120 N.3    94  THR94      -0.1218
    107  CA       -21.2830  -41.4180   37.9770 C.3    94  THR94       0.1862
    108  C        -21.8490  -42.3430   36.8930 C.2    94  THR94       0.2287
    109  O        -21.8040  -42.0210   35.7030 O.2    94  THR94      -0.2866
    110  CB       -19.7850  -41.7090   38.2210 C.3    94  THR94       0.1770
    111  OG1      -19.6410  -43.0120   38.8000 O.3    94  THR94      -0.2211
    112  CG2      -19.2060  -40.7030   39.1950 C.3    94  THR94       0.0375
    113  N        -18.3330  -41.4760   43.0940 N.3   111  GLY111     -0.1225
    114  CA       -17.0420  -40.8290   42.9110 C.3   111  GLY111      0.1811
    115  C        -15.9060  -41.3040   43.7970 C.2   111  GLY111      0.2280
    116  O        -14.8350  -40.6920   43.8200 O.2   111  GLY111     -0.2866
    117  N        -12.9170  -42.8310   42.3320 N.3   134  ASN134     -0.1240
    118  CA       -14.0100  -42.6240   41.3850 C.3   134  ASN134      0.1653
    119  C        -13.9880  -43.5590   40.1580 C.2   134  ASN134      0.2266
    120  O        -12.9200  -43.8980   39.6420 O.2   134  ASN134     -0.2867
    121  CB       -13.9860  -41.1600   40.9350 C.3   134  ASN134      0.1155
    122  CG       -14.7500  -40.9350   39.6580 C.2   134  ASN134      0.2627
    123  OD1      -15.9610  -40.6940   39.6810 O.2   134  ASN134     -0.2716
    124  ND2      -14.0470  -41.0020   38.5240 N.am  134  ASN134     -0.0877
    125  N        -16.0660  -44.5920   36.3370 N.3   136  TYR136     -0.1241
    126  CA       -17.0840  -44.3020   35.3330 C.3   136  TYR136      0.1605
    127  C        -17.5700  -45.5860   34.6560 C.2   136  TYR136      0.2264
    128  O        -18.5230  -45.5670   33.8790 O.2   136  TYR136     -0.2867
    129  CB       -16.5370  -43.3230   34.2820 C.3   136  TYR136      0.0534
    130  CG       -16.7470  -41.8510   34.6090 C.ar  136  TYR136     -0.0201
    131  CD1      -15.7090  -41.0640   35.1240 C.ar  136  TYR136     -0.0009
    132  CD2      -17.9830  -41.2450   34.3860 C.ar  136  TYR136     -0.0009
    133  CE1      -15.9000  -39.7210   35.4140 C.ar  136  TYR136      0.0417
    134  CE2      -18.1900  -39.9090   34.6810 C.ar  136  TYR136      0.0417
    135  CZ       -17.1460  -39.1470   35.1940 C.ar  136  TYR136      0.1957
    136  OH       -17.3620  -37.8080   35.4770 O.3   136  TYR136     -0.2866
    137  N         -6.0790  -44.9430   34.6400 N.3   182  ILE182     -0.1245
    138  CA        -7.5350  -44.8970   34.7950 C.3   182  ILE182      0.1561
    139  C         -8.2930  -45.8520   33.8710 C.2   182  ILE182      0.2260
    140  O         -7.9610  -45.9560   32.6790 O.2   182  ILE182     -0.2867
    141  CB        -8.0410  -43.4770   34.5040 C.3   182  ILE182      0.0252
    142  CG1       -7.3410  -42.4680   35.4240 C.3   182  ILE182      0.0019
    143  CG2       -9.5770  -43.4120   34.6090 C.3   182  ILE182      0.0019
    144  CD1       -7.8080  -41.0440   35.1970 C.3   182  ILE182      0.0001
    145  N        -11.3660  -46.1130   31.8180 N.3   184  ASN184     -0.1225
    146  CA       -12.3970  -45.2130   31.2800 C.3   184  ASN184      0.1785
    147  C        -13.7420  -45.8770   31.0380 C.2   184  ASN184      0.2597
    148  O        -14.7840  -45.2440   31.2060 O.2   184  ASN184     -0.2718
    149  CB       -11.9310  -44.5660   29.9780 C.3   184  ASN184      0.1169
    150  CG       -10.8070  -43.5930   30.2030 C.2   184  ASN184      0.2627
    151  OD1      -10.7530  -42.9330   31.2460 O.2   184  ASN184     -0.2716
    152  ND2       -9.8870  -43.5060   29.2390 N.am  184  ASN184     -0.0877
    153  N        -13.7140  -47.1450   30.6290 N.am  185  ASP185     -0.1974
    154  CA       -14.9360  -47.8790   30.3240 C.3   185  ASP185      0.1709
    155  C        -14.6850  -49.3810   30.1980 C.2   185  ASP185      0.2293
    156  O        -13.6110  -49.8070   29.7580 O.2   185  ASP185     -0.2864
    157  CB       -15.5580  -47.3610   29.0260 C.3   185  ASP185      0.1436
    158  CG       -17.0360  -47.6280   28.9650 C.2   185  ASP185      0.3671
    159  OD1      -17.5180  -48.3620   29.8650 O.co2 185  ASP185     -0.2456
    160  OD2      -17.7180  -47.1240   28.0340 O.co2 185  ASP185     -0.2456
    161  N         -6.7370  -44.8490   30.2630 N.3   201  GLU201     -0.1245
    162  CA        -5.9230  -43.6630   30.0100 C.3   201  GLU201      0.1567
    163  C         -4.5150  -44.0190   29.5480 C.2   201  GLU201      0.2260
    164  O         -3.7630  -43.1490   29.1130 O.2   201  GLU201     -0.2867
    165  CB        -5.8510  -42.7680   31.2450 C.3   201  GLU201      0.0388
    166  CG        -6.9010  -41.7000   31.2570 C.3   201  GLU201      0.1160
    167  CD        -6.7640  -40.8010   30.0470 C.2   201  GLU201      0.3649
    168  OE1       -7.4490  -41.0830   29.0430 O.co2 201  GLU201     -0.2457
    169  OE2       -5.9550  -39.8410   30.0860 O.co2 201  GLU201     -0.2457
    170  N        -12.3890  -43.1250   25.3790 N.3   227  ASN227     -0.1225
    171  CA       -13.1140  -42.9320   26.6330 C.3   227  ASN227      0.1785
    172  C        -14.2320  -43.9390   26.7870 C.2   227  ASN227      0.2597
    173  O        -14.7350  -44.1830   27.8920 O.2   227  ASN227     -0.2718
    174  CB       -13.6750  -41.5160   26.7440 C.3   227  ASN227      0.1169
    175  CG       -12.5960  -40.4910   26.8870 C.2   227  ASN227      0.2627
    176  OD1      -11.4760  -40.8240   27.2720 O.2   227  ASN227     -0.2716
    177  ND2      -12.9070  -39.2370   26.5580 N.am  227  ASN227     -0.0877
    178  N        -14.5990  -44.5450   25.6690 N.am  228  THR228     -0.1953
    179  CA       -15.7350  -45.4290   25.6540 C.3   228  THR228      0.1897
    180  C        -15.5730  -46.4150   24.4980 C.2   228  THR228      0.2313
    181  O        -14.7430  -46.2190   23.5810 O.2   228  THR228     -0.2863
    182  CB       -17.0440  -44.6030   25.5040 C.3   228  THR228      0.1794
    183  OG1      -18.1910  -45.4640   25.4910 O.3   228  THR228     -0.2208
    184  CG2      -16.9970  -43.7560   24.2320 C.3   228  THR228      0.0378
    185  N        -10.2610  -39.1500   22.9650 N.3   244  MET244     -0.1245
    186  CA        -9.6700  -37.8250   22.9740 C.3   244  MET244      0.1570
    187  C         -9.4520  -37.2090   21.5840 C.2   244  MET244      0.2261
    188  O         -9.5400  -35.9810   21.4400 O.2   244  MET244     -0.2867
    189  CB        -8.3870  -37.8230   23.8190 C.3   244  MET244      0.0387
    190  CG        -8.6160  -38.1960   25.3090 C.3   244  MET244      0.0595
    191  SD        -9.8540  -37.1770   26.2210 S.3   244  MET244     -0.1393
    192  CE        -9.2720  -35.5050   25.8710 C.3   244  MET244      0.0692
    193  N        -17.2340  -38.9750   24.5570 N.3   271  ASN271     -0.1225
    194  CA       -17.3900  -39.5430   25.8910 C.3   271  ASN271      0.1785
    195  C        -18.3330  -40.7300   25.9950 C.2   271  ASN271      0.2597
    196  O        -18.1680  -41.5670   26.8690 O.2   271  ASN271     -0.2718
    197  CB       -17.8240  -38.4610   26.8800 C.3   271  ASN271      0.1169
    198  CG       -16.7860  -37.3580   27.0080 C.2   271  ASN271      0.2627
    199  OD1      -15.5670  -37.6310   27.0610 O.2   271  ASN271     -0.2716
    200  ND2      -17.2540  -36.0990   27.0410 N.am  271  ASN271     -0.0877
    201  N        -19.3340  -40.7940   25.1230 N.am  272  ASN272     -0.1974
    202  CA       -20.2520  -41.9210   25.1330 C.3   272  ASN272      0.1688
    203  C        -20.4570  -42.4670   23.7370 C.2   272  ASN272      0.2292
    204  O        -20.3700  -41.7350   22.7380 O.2   272  ASN272     -0.2864
    205  CB       -21.5890  -41.5490   25.7670 C.3   272  ASN272      0.1181
    206  CG       -21.4270  -40.9540   27.1350 C.2   272  ASN272      0.2629
    207  OD1      -20.9830  -39.8080   27.2800 O.2   272  ASN272     -0.2716
    208  ND2      -21.7720  -41.7300   28.1610 N.am  272  ASN272     -0.0877
    209  N        -23.1490  -35.1720   29.1990 N.3   328  ASN328     -0.1240
    210  CA       -22.6890  -36.0770   30.2450 C.3   328  ASN328      0.1653
    211  C        -22.9640  -37.5400   29.9250 C.2   328  ASN328      0.2266
    212  O        -22.1270  -38.4200   30.1710 O.2   328  ASN328     -0.2867
    213  CB       -23.3250  -35.7140   31.5770 C.3   328  ASN328      0.1155
    214  CG       -22.7910  -34.4170   32.1260 C.2   328  ASN328      0.2627
    215  OD1      -21.8180  -33.8690   31.5880 O.2   328  ASN328     -0.2716
    216  ND2      -23.4180  -33.9080   33.1980 N.am  328  ASN328     -0.0877
    217  N        -24.1060  -30.8270   31.0540 N.3   345  GLU345     -0.1231
    218  CA       -23.5720  -30.2910   32.3030 C.3   345  GLU345      0.1699
    219  C        -24.4600  -29.2300   32.9620 C.2   345  GLU345      0.2592
    220  O        -24.6430  -29.2400   34.1750 O.2   345  GLU345     -0.2718
    221  CB       -22.1860  -29.6780   32.0690 C.3   345  GLU345      0.0402
    222  CG       -21.0460  -30.6570   31.8340 C.3   345  GLU345      0.1161
    223  CD       -19.6890  -29.9550   31.8420 C.2   345  GLU345      0.3649
    224  OE1      -19.6510  -28.7440   32.1710 O.co2 345  GLU345     -0.2457
    225  OE2      -18.6680  -30.6000   31.5010 O.co2 345  GLU345     -0.2457
    226  N        -25.0140  -28.3160   32.1750 N.am  346  GLU346     -0.1966
    227  CA       -25.7850  -27.2310   32.7600 C.3   346  GLU346      0.1733
    228  C        -27.2110  -27.6720   33.0860 C.2   346  GLU346      0.2616
    229  O        -28.1670  -27.0430   32.6320 O.2   346  GLU346     -0.2715
    230  CB       -25.8310  -26.0150   31.8280 C.3   346  GLU346      0.0429
    231  CG       -24.5080  -25.6090   31.1790 C.3   346  GLU346      0.1163
    232  CD       -23.4350  -25.0830   32.1300 C.2   346  GLU346      0.3649
    233  OE1      -23.5560  -25.2470   33.3670 O.co2 346  GLU346     -0.2457
    234  OE2      -22.4470  -24.4990   31.6170 O.co2 346  GLU346     -0.2457
    235  N        -27.3440  -28.7530   33.8560 N.am  347  ASN347     -0.1972
    236  CA       -28.6280  -29.1910   34.4210 C.3   347  ASN347      0.1688
    237  C        -29.7670  -29.2720   33.4140 C.2   347  ASN347      0.2292
    238  O        -30.8930  -28.8670   33.7100 O.2   347  ASN347     -0.2864
    239  CB       -29.0520  -28.2930   35.5860 C.3   347  ASN347      0.1181
    240  CG       -27.9500  -28.0900   36.5920 C.2   347  ASN347      0.2629
    241  OD1      -26.7990  -28.4380   36.3400 O.2   347  ASN347     -0.2716
    242  ND2      -28.2970  -27.5390   37.7520 N.am  347  ASN347     -0.0877
@<TRIPOS>BOND
     1   188   187    2
     2   187   186    1
     3   204   203    2
     4   185   186    1
     5   186   189    1
     6   181   180    2
     7   203   202    1
     8   189   190    1
     9   184   182    1
    10   180   179    1
    11   193   194    1
    12   201   202    1
    13   201   195   am
    14   202   205    1
    15   190   191    1
    16   170   171    1
    17   183   182    1
    18   182   179    1
    19   179   178    1
    20   178   172   am
    21   205   206    1
    22   192   191    1
    23   194   195    1
    24   194   197    1
    25   195   196    2
    26   177   175   am
    27   171   174    1
    28   171   172    1
    29   174   175    1
    30   172   173    2
    31   197   198    1
    32   175   176    2
    33   198   200   am
    34   198   199    2
    35   206   207    2
    36   206   208   am
    37   160   158   ar
    38   158   157    1
    39   158   159   ar
    40   157   154    1
    41   168   167   ar
    42   164   163    2
    43   209   210    1
    44   152   150   am
    45   163   162    1
    46   156   155    2
    47   211   212    2
    48   211   210    1
    49   149   150    1
    50   149   146    1
    51   162   161    1
    52   162   165    1
    53   167   169   ar
    54   167   166    1
    55   155   154    1
    56   150   151    2
    57   210   213    1
    58   154   153    1
    59   153   147   am
    60   147   148    2
    61   147   146    1
    62   217   218    1
    63   231   230    1
    64   231   232    1
    65   165   166    1
    66   146   145    1
    67   225   223   ar
    68   213   214    1
    69   215   214    2
    70   234   232   ar
    71    11     9    1
    72   230   227    1
    73   222   223    1
    74   222   221    1
    75   223   224   ar
    76   221   218    1
    77   214   216   am
    78   232   233   ar
    79   226   227    1
    80   226   219   am
    81    10     9    1
    82   218   219    1
    83     9     8    2
    84   229   228    2
    85   140   139    2
    86   227   228    1
    87   219   220    2
    88     1     2    1
    89   228   235   am
    90     8     7    1
    91     6     7    1
    92     6     5    1
    93   237   238    2
    94   237   236    1
    95    51    50    2
    96   235   236    1
    97   139   138    1
    98   128   127    2
    99     2     5    1
   100     2     3    1
   101   129   130    1
   102   129   126    1
   103    50    49    1
   104   132   130   ar
   105   132   134   ar
   106   236   239    1
   107   141   143    1
   108   141   138    1
   109   141   142    1
   110   130   131   ar
   111   137   138    1
   112   127   126    1
   113   134   135   ar
   114    49    48    1
   115    49    52    1
   116   131   133   ar
   117    18    17    1
   118     3    12   am
   119     3     4    2
   120   135   133   ar
   121   135   136    1
   122   144   142    1
   123   126   125    1
   124    17    19    1
   125    17    16    1
   126   239   240    1
   127    12    13    1
   128   109   108    2
   129    52    53    1
   130    55    53    1
   131   241   240    2
   132    16    13    1
   133   240   242   am
   134    45    42    1
   135    45    46    1
   136    13    14    1
   137   108   107    1
   138    42    43    1
   139    42    41    1
   140    53    54    1
   141    43    44    2
   142    15    14    2
   143    14    20   am
   144   107   110    1
   145   107   106    1
   146    46    47    1
   147    30    29    2
   148   110   111    1
   149   110   112    1
   150    41    29   am
   151    41    47    1
   152   124   122   am
   153    29    28    1
   154    20    21    1
   155    63    65   ar
   156    63    61   ar
   157   120   119    2
   158   122   123    2
   159   122   121    1
   160    28    27    1
   161    28    31    1
   162    60    61    1
   163    60    57    1
   164    27    22   am
   165   119   118    1
   166    65    64   ar
   167    21    22    1
   168    21    24    1
   169    22    23    2
   170    61    62   ar
   171   121   118    1
   172    56    57    1
   173    31    32    1
   174    64    62   ar
   175    57    58    1
   176    59    58    2
   177   118   117    1
   178    25    24    1
   179    24    26    1
   180   102   101    1
   181   102   103    1
   182    58    66   am
   183   101    98    1
   184    37    34   ar
   185    37    39   ar
   186   105   103   ar
   187    99   100    2
   188    99    98    1
   189    78    77    1
   190    32    34   ar
   191    32    33   ar
   192   103   104   ar
   193   114   113    1
   194   114   115    1
   195    34    36   ar
   196    39    40   ar
   197    98    97    1
   198    66    67    1
   199    33    35   ar
   200    77    74    1
   201   115   116    2
   202    67    68    1
   203    67    70    1
   204    73    68   am
   205    73    74    1
   206    36    35   ar
   207    36    38   ar
   208    40    38   ar
   209    68    69    2
   210    74    75    1
   211    72    70    1
   212    70    71    1
   213    87    85   ar
   214    75    76    2
   215    85    86   ar
   216    85    84    1
   217    96    94   ar
   218    84    83    1
   219    95    94   ar
   220    94    93    1
   221    83    80    1
   222    79    80    1
   223    92    93    1
   224    92    89    1
   225    88    89    1
   226    88    81   am
   227    80    81    1
   228    91    90    2
   229    89    90    1
   230    81    82    2
