@<TRIPOS>MOLECULE
tmp/4psxE00.pdb
 233 220 0 0 0
SMALL
GASTEIGER

@<TRIPOS>ATOM
      1  N        -30.6690  -92.1220  -64.1090 N.3    25  ARG25      -0.1231
      2  CA       -29.6610  -92.6490  -65.0110 C.3    25  ARG25       0.1694
      3  C        -29.5890  -91.7950  -66.2650 C.2    25  ARG25       0.2592
      4  O        -30.6130  -91.4590  -66.8540 O.2    25  ARG25      -0.2718
      5  CB       -29.9870  -94.0990  -65.3730 C.3    25  ARG25       0.0321
      6  CG       -29.4700  -95.1140  -64.3630 C.3    25  ARG25       0.0489
      7  CD       -28.2490  -95.8740  -64.8770 C.3    25  ARG25       0.2205
      8  NE       -27.6370  -96.6920  -63.8280 N.pl3  25  ARG25      -0.0865
      9  CZ       -26.4460  -97.2770  -63.9320 C.cat  25  ARG25       0.5346
     10  NH1      -25.7350  -97.1420  -65.0490 N.pl3  25  ARG25       0.1354
     11  NH2      -25.9660  -97.9950  -62.9190 N.pl3  25  ARG25       0.1354
     12  N        -28.3770  -91.4340  -66.6670 N.am   26  LEU26      -0.1966
     13  CA       -28.1800  -90.6020  -67.8510 C.3    26  LEU26       0.1728
     14  C        -27.5880  -91.4450  -68.9610 C.2    26  LEU26       0.2617
     15  O        -26.7860  -92.3550  -68.7110 O.2    26  LEU26      -0.2715
     16  CB       -27.2370  -89.4330  -67.5480 C.3    26  LEU26       0.0311
     17  CG       -27.6400  -88.4960  -66.4040 C.3    26  LEU26       0.0022
     18  CD1      -26.5840  -87.4320  -66.1710 C.3    26  LEU26       0.0001
     19  CD2      -28.9890  -87.8590  -66.6830 C.3    26  LEU26       0.0001
     20  N        -27.9820  -91.1390  -70.1900 N.am   27  THR27      -0.1937
     21  CA       -27.4700  -91.8570  -71.3430 C.3    27  THR27       0.2028
     22  C        -25.9590  -91.7020  -71.3750 C.2    27  THR27       0.2642
     23  O        -25.2120  -92.6670  -71.5470 O.2    27  THR27      -0.2714
     24  CB       -28.0500  -91.2780  -72.6250 C.3    27  THR27       0.1808
     25  OG1      -29.4810  -91.3610  -72.5800 O.3    27  THR27      -0.2208
     26  CG2      -27.4970  -92.0240  -73.8390 C.3    27  THR27       0.0379
     27  N        -25.5240  -90.4610  -71.1960 N.am   28  TRP28      -0.1960
     28  CA       -24.1140  -90.1070  -71.1620 C.3    28  TRP28       0.1756
     29  C        -23.8250  -89.3750  -69.8630 C.2    28  TRP28       0.2461
     30  O        -24.7150  -88.7270  -69.3020 O.2    28  TRP28      -0.2730
     31  CB       -23.8000  -89.1960  -72.3420 C.3    28  TRP28       0.0590
     32  CG       -23.8190  -89.8960  -73.6640 C.ar   28  TRP28       0.0006
     33  CD1      -24.7460  -89.7600  -74.6650 C.ar   28  TRP28       0.0946
     34  CD2      -22.8530  -90.8370  -74.1360 C.ar   28  TRP28       0.0152
     35  NE1      -24.4040  -90.5580  -75.7310 N.ar   28  TRP28      -0.2442
     36  CE2      -23.2490  -91.2330  -75.4290 C.ar   28  TRP28       0.0810
     37  CE3      -21.6930  -91.3850  -73.5880 C.ar   28  TRP28       0.0012
     38  CZ2      -22.5180  -92.1550  -76.1810 C.ar   28  TRP28       0.0191
     39  CZ3      -20.9710  -92.3000  -74.3330 C.ar   28  TRP28       0.0001
     40  CH2      -21.3820  -92.6740  -75.6150 C.ar   28  TRP28       0.0015
     41  N        -22.5890  -89.4790  -69.3620 N.am   29  PRO29      -0.2727
     42  CA       -22.3070  -88.7700  -68.1080 C.3    29  PRO29       0.1402
     43  C        -22.2720  -87.2610  -68.3280 C.2    29  PRO29       0.2269
     44  O        -21.8470  -86.8100  -69.4080 O.2    29  PRO29      -0.2865
     45  CB       -20.9070  -89.2660  -67.7300 C.3    29  PRO29       0.0296
     46  CG       -20.2770  -89.6170  -69.0490 C.3    29  PRO29       0.0237
     47  CD       -21.4100  -90.2040  -69.8660 C.3    29  PRO29       0.0939
     48  N        -20.6100  -83.6690  -66.9890 N.3    31  LEU31      -0.1245
     49  CA       -19.3940  -83.2290  -66.3280 C.3    31  LEU31       0.1561
     50  C        -19.7150  -81.9470  -65.5870 C.2    31  LEU31       0.2260
     51  O        -18.8450  -81.3560  -64.9330 O.2    31  LEU31      -0.2867
     52  CB       -18.3230  -82.9300  -67.3600 C.3    31  LEU31       0.0270
     53  CG       -17.9360  -84.0680  -68.3010 C.3    31  LEU31       0.0019
     54  CD1      -16.7630  -83.6440  -69.1830 C.3    31  LEU31       0.0001
     55  CD2      -17.5790  -85.2960  -67.4720 C.3    31  LEU31       0.0001
     56  N        -20.8060  -86.1450  -72.2980 N.3    57  HIS57      -0.1226
     57  CA       -19.4430  -86.5190  -72.6130 C.3    57  HIS57       0.1752
     58  C        -19.5570  -87.8930  -73.2350 C.2    57  HIS57       0.2597
     59  O        -19.9990  -88.8390  -72.5790 O.2    57  HIS57      -0.2718
     60  CB       -18.6160  -86.5850  -71.3400 C.3    57  HIS57       0.0759
     61  CG       -17.2050  -87.0220  -71.5640 C.ar   57  HIS57       0.0818
     62  ND1      -16.4610  -86.6030  -72.6460 N.ar   57  HIS57      -0.2268
     63  CD2      -16.3970  -87.8280  -70.8360 C.ar   57  HIS57       0.1154
     64  CE1      -15.2550  -87.1390  -72.5810 C.ar   57  HIS57       0.1986
     65  NE2      -15.1890  -87.8860  -71.4920 N.ar   57  HIS57      -0.2212
     66  N        -19.1750  -88.0030  -74.5030 N.am   58  THR58      -0.1939
     67  CA       -19.4010  -89.2340  -75.2480 C.3    58  THR58       0.2028
     68  C        -18.0790  -89.8850  -75.5970 C.2    58  THR58       0.2642
     69  O        -18.0360  -91.0290  -76.0620 O.2    58  THR58      -0.2714
     70  CB       -20.1700  -88.9580  -76.5510 C.3    58  THR58       0.1808
     71  OG1      -19.4090  -88.0670  -77.3730 O.3    58  THR58      -0.2208
     72  CG2      -21.5150  -88.3230  -76.2430 C.3    58  THR58       0.0379
     73  N        -17.0030  -89.1420  -75.3540 N.am   59  SER59      -0.1949
     74  CA       -15.6560  -89.5400  -75.7540 C.3    59  SER59       0.1924
     75  C        -15.5490  -89.6810  -77.2850 C.2    59  SER59       0.2314
     76  O        -14.6390  -90.3330  -77.8000 O.2    59  SER59      -0.2863
     77  CB       -15.2230  -90.8290  -75.0370 C.3    59  SER59       0.2116
     78  OG       -14.8550  -90.5810  -73.6910 O.3    59  SER59      -0.2180
     79  N        -18.0050  -90.8950  -79.3680 N.3    61  GLU61      -0.1231
     80  CA       -18.8580  -91.9380  -79.9300 C.3    61  GLU61       0.1699
     81  C        -20.1320  -91.3970  -80.5820 C.2    61  GLU61       0.2592
     82  O        -20.4920  -91.8030  -81.6810 O.2    61  GLU61      -0.2718
     83  CB       -19.1950  -92.9650  -78.8540 C.3    61  GLU61       0.0402
     84  CG       -17.9580  -93.5230  -78.1660 C.3    61  GLU61       0.1161
     85  CD       -18.2360  -94.8100  -77.4240 C.2    61  GLU61       0.3649
     86  OE1      -19.1840  -95.5270  -77.8260 O.co2  61  GLU61      -0.2457
     87  OE2      -17.5110  -95.0940  -76.4390 O.co2  61  GLU61      -0.2457
     88  N        -20.8220  -90.4980  -79.8890 N.am   62  GLU62      -0.1979
     89  CA       -22.0200  -89.8490  -80.4190 C.3    62  GLU62       0.1602
     90  C        -21.8080  -88.3430  -80.4370 C.2    62  GLU62       0.2287
     91  O        -20.6760  -87.8620  -80.3010 O.2    62  GLU62      -0.2864
     92  CB       -23.2530  -90.1770  -79.5670 C.3    62  GLU62       0.0415
     93  CG       -23.8430  -91.5610  -79.8090 C.3    62  GLU62       0.1163
     94  CD       -25.1910  -91.7710  -79.1110 C.2    62  GLU62       0.3649
     95  OE1      -25.6520  -92.9340  -79.0360 O.co2  62  GLU62      -0.2457
     96  OE2      -25.8050  -90.7740  -78.6590 O.co2  62  GLU62      -0.2457
     97  N        -17.1880  -82.3540  -75.6490 N.3    92  GLU92      -0.1245
     98  CA       -17.8510  -82.4900  -74.3560 C.3    92  GLU92       0.1567
     99  C        -17.9800  -81.1540  -73.6310 C.2    92  GLU92       0.2260
    100  O        -17.1680  -80.2360  -73.8090 O.2    92  GLU92      -0.2867
    101  CB       -17.1260  -83.4950  -73.4570 C.3    92  GLU92       0.0388
    102  CG       -15.7740  -83.0410  -72.9330 C.3    92  GLU92       0.1160
    103  CD       -14.6320  -83.4270  -73.8510 C.2    92  GLU92       0.3649
    104  OE1      -14.8940  -83.9860  -74.9430 O.co2  92  GLU92      -0.2457
    105  OE2      -13.4630  -83.1950  -73.4720 O.co2  92  GLU92      -0.2457
    106  N        -17.4270  -79.4490  -70.4300 N.3    94  THR94      -0.1218
    107  CA       -16.6850  -79.5950  -69.1960 C.3    94  THR94       0.1862
    108  C        -17.2600  -78.6910  -68.0970 C.2    94  THR94       0.2287
    109  O        -17.3250  -79.0780  -66.9310 O.2    94  THR94      -0.2866
    110  CB       -15.2110  -79.2990  -69.4340 C.3    94  THR94       0.1770
    111  OG1      -15.0900  -77.9830  -69.9920 O.3    94  THR94      -0.2211
    112  CG2      -14.6360  -80.2880  -70.4350 C.3    94  THR94       0.0375
    113  N        -13.7200  -79.4990  -74.2300 N.3   111  GLY111     -0.1225
    114  CA       -12.4380  -80.1720  -74.0660 C.3   111  GLY111      0.1811
    115  C        -11.3210  -79.7060  -74.9790 C.2   111  GLY111      0.2280
    116  O        -10.2700  -80.3540  -75.0630 O.2   111  GLY111     -0.2866
    117  N         -8.2260  -78.3270  -73.5100 N.3   134  ASN134     -0.1240
    118  CA        -9.3360  -78.4830  -72.5760 C.3   134  ASN134      0.1653
    119  C         -9.3060  -77.4860  -71.4110 C.2   134  ASN134      0.2266
    120  O         -8.2320  -77.0830  -70.9450 O.2   134  ASN134     -0.2867
    121  CB        -9.3580  -79.9190  -72.0560 C.3   134  ASN134      0.1155
    122  CG       -10.1840  -80.0660  -70.8120 C.2   134  ASN134      0.2627
    123  OD1      -11.4010  -80.2570  -70.8850 O.2   134  ASN134     -0.2716
    124  ND2       -9.5280  -80.0080  -69.6520 N.am  134  ASN134     -0.0877
    125  N        -11.3380  -76.3510  -67.6170 N.3   136  TYR136     -0.1241
    126  CA       -12.3240  -76.6230  -66.5800 C.3   136  TYR136      0.1605
    127  C        -12.7970  -75.3240  -65.9160 C.2   136  TYR136      0.2264
    128  O        -13.7910  -75.3160  -65.1960 O.2   136  TYR136     -0.2867
    129  CB       -11.7420  -77.5750  -65.5330 C.3   136  TYR136      0.0534
    130  CG       -11.9280  -79.0340  -65.8660 C.ar  136  TYR136     -0.0201
    131  CD1      -10.8740  -79.7930  -66.3710 C.ar  136  TYR136     -0.0009
    132  CD2      -13.1540  -79.6640  -65.6620 C.ar  136  TYR136     -0.0009
    133  CE1      -11.0350  -81.1430  -66.6740 C.ar  136  TYR136      0.0417
    134  CE2      -13.3310  -81.0120  -65.9740 C.ar  136  TYR136      0.0417
    135  CZ       -12.2640  -81.7420  -66.4790 C.ar  136  TYR136      0.1957
    136  OH       -12.4240  -83.0740  -66.7820 O.3   136  TYR136     -0.2866
    137  N         -1.4390  -75.9810  -65.8810 N.3   182  ILE182     -0.1245
    138  CA        -2.8950  -76.0430  -65.9980 C.3   182  ILE182      0.1561
    139  C         -3.6430  -75.1010  -65.0280 C.2   182  ILE182      0.2260
    140  O         -3.3220  -75.0240  -63.8290 O.2   182  ILE182     -0.2867
    141  CB        -3.3810  -77.4920  -65.7250 C.3   182  ILE182      0.0252
    142  CG1       -2.6550  -78.4890  -66.6340 C.3   182  ILE182      0.0019
    143  CG2       -4.9200  -77.5940  -65.8330 C.3   182  ILE182      0.0019
    144  CD1       -3.0840  -79.9180  -66.4030 C.3   182  ILE182      0.0001
    145  N         -6.7060  -74.8830  -62.9860 N.3   184  ASN184     -0.1225
    146  CA        -7.7310  -75.7890  -62.4460 C.3   184  ASN184      0.1785
    147  C         -9.0620  -75.0900  -62.2270 C.2   184  ASN184      0.2597
    148  O        -10.1110  -75.6980  -62.4120 O.2   184  ASN184     -0.2718
    149  CB        -7.2850  -76.4380  -61.1200 C.3   184  ASN184      0.1169
    150  CG        -6.1420  -77.4270  -61.3030 C.2   184  ASN184      0.2627
    151  OD1       -6.0420  -78.1050  -62.3350 O.2   184  ASN184     -0.2716
    152  ND2       -5.2760  -77.5140  -60.3050 N.am  184  ASN184     -0.0877
    153  N         -9.0280  -73.8200  -61.8280 N.am  185  ASP185     -0.1974
    154  CA       -10.2690  -73.0810  -61.5540 C.3   185  ASP185      0.1709
    155  C        -10.0250  -71.5810  -61.4470 C.2   185  ASP185      0.2293
    156  O         -8.9280  -71.1380  -61.0820 O.2   185  ASP185     -0.2864
    157  CB       -10.9320  -73.5790  -60.2630 C.3   185  ASP185      0.1436
    158  CG       -12.4260  -73.3170  -60.2420 C.2   185  ASP185      0.3671
    159  OD1      -12.9150  -72.6070  -61.1490 O.co2 185  ASP185     -0.2456
    160  OD2      -13.1190  -73.8120  -59.3180 O.co2 185  ASP185     -0.2456
    161  N         -2.0520  -76.0520  -61.4210 N.3   201  GLU201     -0.1245
    162  CA        -1.2370  -77.2410  -61.1680 C.3   201  GLU201      0.1567
    163  C          0.1600  -76.8540  -60.7110 C.2   201  GLU201      0.2260
    164  O          0.9320  -77.7030  -60.2680 O.2   201  GLU201     -0.2867
    165  CB        -1.1380  -78.1370  -62.4080 C.3   201  GLU201      0.0388
    166  CG        -2.1960  -79.2050  -62.4760 C.3   201  GLU201      0.1160
    167  CD        -2.1190  -80.1500  -61.2970 C.2   201  GLU201      0.3649
    168  OE1       -2.8530  -79.9170  -60.3130 O.co2 201  GLU201     -0.2457
    169  OE2       -1.3230  -81.1170  -61.3490 O.co2 201  GLU201     -0.2457
    170  N         -7.6870  -77.8210  -56.6250 N.3   227  ASN227     -0.1225
    171  CA        -8.4180  -78.0010  -57.8800 C.3   227  ASN227      0.1785
    172  C         -9.5210  -76.9820  -58.0710 C.2   227  ASN227      0.2597
    173  O         -9.9510  -76.7140  -59.2050 O.2   227  ASN227     -0.2718
    174  CB        -9.0170  -79.4000  -57.9950 C.3   227  ASN227      0.1169
    175  CG        -7.9740  -80.4620  -58.1960 C.2   227  ASN227      0.2627
    176  OD1       -6.8480  -80.1830  -58.6280 O.2   227  ASN227     -0.2716
    177  ND2       -8.3410  -81.6990  -57.8820 N.am  227  ASN227     -0.0877
    178  N         -9.9330  -76.3780  -56.9640 N.am  228  THR228     -0.1953
    179  CA       -11.0380  -75.4350  -56.9750 C.3   228  THR228      0.1897
    180  C        -10.9250  -74.4500  -55.8090 C.2   228  THR228      0.2313
    181  O        -10.1490  -74.6660  -54.8520 O.2   228  THR228     -0.2863
    182  CB       -12.3880  -76.1830  -56.9090 C.3   228  THR228      0.1794
    183  OG1      -13.4370  -75.2370  -56.6860 O.3   228  THR228     -0.2208
    184  CG2      -12.4030  -77.1720  -55.7570 C.3   228  THR228      0.0378
    185  N         -5.4750  -81.7460  -54.1570 N.3   244  MET244     -0.1245
    186  CA        -4.8920  -83.0740  -54.0830 C.3   244  MET244      0.1570
    187  C         -4.7160  -83.6990  -52.6930 C.2   244  MET244      0.2261
    188  O         -4.8550  -84.9240  -52.5540 O.2   244  MET244     -0.2867
    189  CB        -3.5840  -83.0700  -54.8610 C.3   244  MET244      0.0387
    190  CG        -3.8010  -82.8250  -56.3520 C.3   244  MET244      0.0595
    191  SD        -4.8550  -84.1420  -57.0350 S.3   244  MET244     -0.1393
    192  CE        -5.8210  -83.2100  -58.1690 C.3   244  MET244      0.0692
    193  N        -12.5520  -81.9960  -55.6850 N.3   271  ASN271     -0.1225
    194  CA       -12.6830  -81.4380  -57.0280 C.3   271  ASN271      0.1785
    195  C        -13.6000  -80.2400  -57.1550 C.2   271  ASN271      0.2597
    196  O        -13.4050  -79.4140  -58.0420 O.2   271  ASN271     -0.2718
    197  CB       -13.1470  -82.5050  -58.0020 C.3   271  ASN271      0.1169
    198  CG       -12.1760  -83.6370  -58.0980 C.2   271  ASN271      0.2627
    199  OD1      -10.9620  -83.4150  -58.1400 O.2   271  ASN271     -0.2716
    200  ND2      -12.6940  -84.8720  -58.1170 N.am  271  ASN271     -0.0877
    201  N        -14.6100  -80.1600  -56.2930 N.am  272  ASN272     -0.1974
    202  CA       -15.5300  -79.0310  -56.3130 C.3   272  ASN272      0.1688
    203  C        -15.7290  -78.4540  -54.9300 C.2   272  ASN272      0.2292
    204  O        -15.6790  -79.1730  -53.9280 O.2   272  ASN272     -0.2864
    205  CB       -16.8810  -79.4260  -56.9220 C.3   272  ASN272      0.1181
    206  CG       -16.7390  -80.0520  -58.2940 C.2   272  ASN272      0.2629
    207  OD1      -16.8480  -79.3600  -59.3090 O.2   272  ASN272     -0.2716
    208  ND2      -16.4790  -81.3590  -58.3370 N.am  272  ASN272     -0.0877
    209  N        -18.4300  -85.6300  -60.3820 N.3   328  ASN328     -0.1240
    210  CA       -18.0120  -84.7250  -61.4520 C.3   328  ASN328      0.1653
    211  C        -18.2870  -83.2660  -61.1580 C.2   328  ASN328      0.2266
    212  O        -17.4800  -82.3930  -61.4820 O.2   328  ASN328     -0.2867
    213  CB       -18.6930  -85.0970  -62.7600 C.3   328  ASN328      0.1155
    214  CG       -18.1400  -86.3640  -63.3530 C.2   328  ASN328      0.2627
    215  OD1      -17.1320  -86.8890  -62.8710 O.2   328  ASN328     -0.2716
    216  ND2      -18.7680  -86.8560  -64.4200 N.am  328  ASN328     -0.0877
    217  N        -19.3550  -89.9640  -62.2010 N.3   345  GLU345     -0.1245
    218  CA       -18.7860  -90.4160  -63.4670 C.3   345  GLU345      0.1567
    219  C        -19.6380  -91.4620  -64.1740 C.2   345  GLU345      0.2260
    220  O        -19.7930  -91.4160  -65.3940 O.2   345  GLU345     -0.2867
    221  CB       -17.3900  -90.9920  -63.2520 C.3   345  GLU345      0.0388
    222  CG       -16.3130  -89.9760  -62.9500 C.3   345  GLU345      0.1160
    223  CD       -14.9220  -90.5930  -62.9690 C.2   345  GLU345      0.3649
    224  OE1      -14.8030  -91.7790  -63.3730 O.co2 345  GLU345     -0.2457
    225  OE2      -13.9550  -89.9060  -62.5580 O.co2 345  GLU345     -0.2457
    226  N        -22.6430  -92.0370  -65.0090 N.3   347  ASN347     -0.1240
    227  CA       -23.9640  -91.6930  -65.5360 C.3   347  ASN347      0.1653
    228  C        -25.0970  -91.6870  -64.5020 C.2   347  ASN347      0.2266
    229  O        -26.1940  -92.1880  -64.7670 O.2   347  ASN347     -0.2867
    230  CB       -24.3210  -92.6330  -66.6930 C.3   347  ASN347      0.1155
    231  CG       -23.1820  -92.7940  -67.6870 C.2   347  ASN347      0.2627
    232  OD1      -22.0520  -92.3900  -67.4200 O.2   347  ASN347     -0.2716
    233  ND2      -23.4800  -93.3700  -68.8460 N.am  347  ASN347     -0.0877
@<TRIPOS>BOND
     1    82    81    2
     2    81    80    1
     3    81    88   am
     4    90    89    1
     5    90    91    2
     6    89    88    1
     7    89    92    1
     8    80    79    1
     9    80    83    1
    10    93    92    1
    11    93    94    1
    12    94    95   ar
    13    94    96   ar
    14    83    84    1
    15    84    85    1
    16    86    85   ar
    17    76    75    2
    18    85    87   ar
    19    71    70    1
    20    75    74    1
    21    70    72    1
    22    70    67    1
    23    38    40   ar
    24    38    36   ar
    25    69    68    2
    26    74    73    1
    27    74    77    1
    28    35    36   ar
    29    35    33   ar
    30    97    98    1
    31    40    39   ar
    32    68    73   am
    33    68    67    1
    34    36    34   ar
    35    67    66    1
    36   116   115    2
    37    77    78    1
    38   115   114    1
    39   104   103   ar
    40    33    32   ar
    41    66    58   am
    42    98    99    1
    43    98   101    1
    44    39    37   ar
    45   113   114    1
    46    34    32   ar
    47    34    37   ar
    48   103   105   ar
    49   103   102    1
    50    26    24    1
    51   100    99    2
    52    32    31    1
    53   117   118    1
    54   101   102    1
    55    58    57    1
    56    58    59    2
    57    62    64   ar
    58    62    61   ar
    59    24    25    1
    60    24    21    1
    61    57    56    1
    62    57    60    1
    63    64    65   ar
    64   118   121    1
    65   118   119    1
    66    31    28    1
    67   121   122    1
    68    61    60    1
    69    61    63   ar
    70    23    22    2
    71    65    63   ar
    72   119   120    2
    73    22    21    1
    74    22    27   am
    75    21    20    1
    76    27    28    1
    77    28    29    1
    78   123   122    2
    79   122   124   am
    80   112   110    1
    81   106   107    1
    82    20    14   am
    83   111   110    1
    84    47    41    1
    85    47    46    1
    86    29    41   am
    87    29    30    2
    88   110   107    1
    89    44    43    2
    90    41    42    1
    91   107   108    1
    92    54    53    1
    93    46    45    1
    94    14    15    2
    95    14    13    1
    96   233   231   am
    97    43    42    1
    98    53    55    1
    99    53    52    1
   100    42    45    1
   101   108   109    2
   102    13    16    1
   103    13    12    1
   104   231   232    2
   105   231   230    1
   106   125   126    1
   107    16    17    1
   108    52    49    1
   109    48    49    1
   110     4     3    2
   111   136   135    1
   112   230   227    1
   113    19    17    1
   114   133   135   ar
   115   133   131   ar
   116    12     3   am
   117   142   144    1
   118   142   141    1
   119   126   127    1
   120   126   129    1
   121   135   134   ar
   122    17    18    1
   123   131   130   ar
   124    49    50    1
   125     3     2    1
   126   138   137    1
   127   138   141    1
   128   138   139    1
   129   134   132   ar
   130   127   128    2
   131   130   132   ar
   132   130   129    1
   133   143   141    1
   134    50    51    2
   135   227   226    1
   136   227   228    1
   137   220   219    2
   138     5     2    1
   139     5     6    1
   140    10     9    1
   141   139   140    2
   142     2     1    1
   143     7     6    1
   144     7     8    1
   145   229   228    2
   146   216   214   am
   147   219   218    1
   148     9     8    2
   149     9    11    1
   150   218   221    1
   151   218   217    1
   152   224   223   ar
   153   214   215    2
   154   214   213    1
   155   221   222    1
   156   145   146    1
   157   223   222    1
   158   223   225   ar
   159   213   210    1
   160   166   165    1
   161   166   167    1
   162   146   147    1
   163   146   149    1
   164   148   147    2
   165   165   162    1
   166   151   150    2
   167   147   153   am
   168   153   154    1
   169   154   155    1
   170   154   157    1
   171   212   211    2
   172   210   211    1
   173   210   209    1
   174   155   156    2
   175   161   162    1
   176   169   167   ar
   177   150   149    1
   178   150   152   am
   179   167   168   ar
   180   162   163    1
   181   159   158   ar
   182   163   164    2
   183   157   158    1
   184   158   160   ar
   185   207   206    2
   186   173   172    2
   187   176   175    2
   188   208   206   am
   189   206   205    1
   190   175   174    1
   191   175   177   am
   192   192   191    1
   193   199   198    2
   194   200   198   am
   195   198   197    1
   196   172   171    1
   197   172   178   am
   198   196   195    2
   199   197   194    1
   200   174   171    1
   201   171   170    1
   202   195   194    1
   203   195   201   am
   204   191   190    1
   205   194   193    1
   206   179   178    1
   207   179   182    1
   208   179   180    1
   209   205   202    1
   210   182   183    1
   211   182   184    1
   212   190   189    1
   213   202   201    1
   214   202   203    1
   215   180   181    2
   216   203   204    2
   217   189   186    1
   218   185   186    1
   219   186   187    1
   220   187   188    2
