@<TRIPOS>MOLECULE
tmp/4psyA00.pdb
 157 151 0 0 0
SMALL
GASTEIGER

@<TRIPOS>ATOM
      1  N         23.9750   41.2910   13.7470 N.3     5  ILE5       -0.1231
      2  CA        25.0690   40.3370   13.5310 C.3     5  ILE5        0.1692
      3  C         26.3320   40.9790   14.0820 C.2     5  ILE5        0.2592
      4  O         26.5480   42.1730   13.8600 O.2     5  ILE5       -0.2718
      5  CB        25.1980   39.9210   12.0530 C.3     5  ILE5        0.0266
      6  CG1       26.3070   38.8820   11.8810 C.3     5  ILE5        0.0019
      7  CG2       25.3880   41.1250   11.1290 C.3     5  ILE5        0.0020
      8  CD1       26.1720   38.0790   10.5990 C.3     5  ILE5        0.0001
      9  N         27.1270   40.1870   14.8210 N.am    6  ALA6       -0.1966
     10  CA        28.3410   40.6870   15.4370 C.3     6  ALA6        0.1728
     11  C         29.2420   39.5100   15.7940 C.2     6  ALA6        0.2616
     12  O         28.7750   38.3800   15.9760 O.2     6  ALA6       -0.2715
     13  CB        28.0170   41.4330   16.7420 C.3     6  ALA6        0.0334
     14  N         30.5230   39.8210   15.9550 N.am    7  ALA7       -0.1977
     15  CA        31.5160   38.8980   16.4660 C.3     7  ALA7        0.1597
     16  C         32.0810   39.4690   17.7710 C.2     7  ALA7        0.2287
     17  O         32.5340   40.6080   17.8280 O.2     7  ALA7       -0.2864
     18  CB        32.6420   38.7110   15.4590 C.3     7  ALA7        0.0319
     19  N         38.6890   45.6390   14.3020 N.3    20  MET20      -0.1301
     20  CA        38.5970   44.3280   14.8960 C.3    20  MET20       0.1256
     21  C         40.0140   43.7470   14.9510 C.3    20  MET20       0.2010
     22  O         40.4980   43.5090   13.8300 O.3    20  MET20      -0.2188
     23  CB        37.5720   43.4510   14.1510 C.3    20  MET20       0.0333
     24  CG        36.3030   44.2830   13.9900 C.3    20  MET20       0.0592
     25  SD        34.9940   43.3330   13.2630 S.3    20  MET20      -0.1393
     26  CE        35.5660   43.0340   11.5920 C.3    20  MET20       0.0692
     27  N         41.5000   40.9680   15.3470 N.3    22  TRP22      -0.1241
     28  CA        41.6430   39.5700   15.0260 C.3    22  TRP22       0.1605
     29  C         41.4850   39.4220   13.5060 C.2    22  TRP22       0.2264
     30  O         41.0690   40.3320   12.8000 O.2    22  TRP22      -0.2867
     31  CB        40.6660   38.6720   15.7980 C.3    22  TRP22       0.0550
     32  CG        39.2400   39.0470   15.5540 C.ar   22  TRP22       0.0003
     33  CD1       38.4600   38.7300   14.4790 C.ar   22  TRP22       0.0946
     34  CD2       38.4110   39.8180   16.4170 C.ar   22  TRP22       0.0152
     35  NE1       37.2200   39.2640   14.6140 N.ar   22  TRP22      -0.2442
     36  CE2       37.1460   39.9310   15.8010 C.ar   22  TRP22       0.0810
     37  CE3       38.6130   40.4160   17.6720 C.ar   22  TRP22       0.0012
     38  CZ2       36.0780   40.6200   16.3460 C.ar   22  TRP22       0.0191
     39  CZ3       37.5430   41.1030   18.2280 C.ar   22  TRP22       0.0001
     40  CH2       36.3070   41.1850   17.5840 C.ar   22  TRP22       0.0015
     41  N         34.9270   33.6020    9.8500 N.3    27  ASP27      -0.1225
     42  CA        33.8660   34.4320   10.3870 C.3    27  ASP27       0.1805
     43  C         33.4670   35.5190    9.4020 C.2    27  ASP27       0.2597
     44  O         32.2690   35.8360    9.2680 O.2    27  ASP27      -0.2718
     45  CB        34.3080   35.0260   11.7270 C.3    27  ASP27       0.1424
     46  CG        33.2230   35.9330   12.3020 C.2    27  ASP27       0.3668
     47  OD1       32.0850   35.5030   12.4280 O.co2  27  ASP27      -0.2456
     48  OD2       33.6040   37.0940   12.6010 O.co2  27  ASP27      -0.2456
     49  N         34.4310   36.1180    8.7000 N.am   28  LEU28      -0.1979
     50  CA        34.0530   37.0710    7.6500 C.3    28  LEU28       0.1596
     51  C         33.1760   36.3840    6.6330 C.2    28  LEU28       0.2287
     52  O         32.2270   37.0020    6.1020 O.2    28  LEU28      -0.2864
     53  CB        35.3080   37.6530    6.9850 C.3    28  LEU28       0.0297
     54  CG        36.1150   38.5890    7.8710 C.3    28  LEU28       0.0022
     55  CD1       37.3610   39.0440    7.1040 C.3    28  LEU28       0.0001
     56  CD2       35.3240   39.8010    8.3100 C.3    28  LEU28       0.0001
     57  N         31.0850   33.8380    7.1020 N.3    30  TRP30      -0.1227
     58  CA        29.7680   33.7220    7.7030 C.3    30  TRP30       0.1737
     59  C         29.0290   35.0440    7.6880 C.2    30  TRP30       0.2595
     60  O         27.8070   35.1030    7.4250 O.2    30  TRP30      -0.2718
     61  CB        29.9390   33.1970    9.1210 C.3    30  TRP30       0.0564
     62  CG        28.8820   33.4600   10.1220 C.ar   30  TRP30       0.0003
     63  CD1       28.7840   34.5630   10.9420 C.ar   30  TRP30       0.0946
     64  CD2       27.7830   32.6120   10.5030 C.ar   30  TRP30       0.0152
     65  NE1       27.6840   34.4580   11.7630 N.ar   30  TRP30      -0.2442
     66  CE2       27.0740   33.2590   11.5150 C.ar   30  TRP30       0.0810
     67  CE3       27.3670   31.3700   10.0750 C.ar   30  TRP30       0.0012
     68  CZ2       25.9330   32.7060   12.1220 C.ar   30  TRP30       0.0191
     69  CZ3       26.2490   30.8070   10.6500 C.ar   30  TRP30       0.0001
     70  CH2       25.5500   31.4760   11.6580 C.ar   30  TRP30       0.0015
     71  N         29.7360   36.1290    8.0040 N.am   31  PHE31      -0.1962
     72  CA        29.1170   37.4490    7.9150 C.3    31  PHE31       0.1771
     73  C         28.5800   37.6790    6.4970 C.2    31  PHE31       0.2619
     74  O         27.4340   38.1200    6.3200 O.2    31  PHE31      -0.2715
     75  CB        30.1250   38.5220    8.3230 C.3    31  PHE31       0.0574
     76  CG        29.6230   39.9090    8.0560 C.ar   31  PHE31      -0.0200
     77  CD1       28.8960   40.6060    9.0250 C.ar   31  PHE31      -0.0042
     78  CD2       29.8700   40.5500    6.8450 C.ar   31  PHE31      -0.0042
     79  CE1       28.4240   41.8890    8.7710 C.ar   31  PHE31      -0.0003
     80  CE2       29.3780   41.8080    6.5850 C.ar   31  PHE31      -0.0003
     81  CZ        28.6650   42.4870    7.5570 C.ar   31  PHE31      -0.0000
     82  N         29.4030   37.4170    5.4820 N.am   32  LYS32      -0.1977
     83  CA        28.9400   37.6670    4.1130 C.3    32  LYS32       0.1596
     84  C         27.7750   36.7530    3.7560 C.2    32  LYS32       0.2287
     85  O         26.7790   37.2060    3.1550 O.2    32  LYS32      -0.2864
     86  CB        30.1480   37.4820    3.1910 C.3    32  LYS32       0.0298
     87  CG        29.8760   37.9230    1.7500 C.3    32  LYS32       0.0038
     88  CD        31.0810   37.6370    0.8830 C.3    32  LYS32       0.0206
     89  CE        30.8550   38.2650   -0.4970 C.3    32  LYS32       0.1093
     90  NZ        32.0260   37.9330   -1.3720 N.3    32  LYS32      -0.1314
     91  N         31.7400   52.5420   12.1300 N.3    46  THR46      -0.1218
     92  CA        31.8840   51.2560   11.4560 C.3    46  THR46       0.1862
     93  C         32.0600   51.4310    9.9520 C.2    46  THR46       0.2287
     94  O         32.8640   50.7320    9.3450 O.2    46  THR46      -0.2866
     95  CB        30.7080   50.3440   11.8440 C.3    46  THR46       0.1770
     96  OG1       30.8020   50.0870   13.2440 O.3    46  THR46      -0.2211
     97  CG2       30.7240   49.0230   11.1110 C.3    46  THR46       0.0375
     98  N         35.5490   52.2460    9.7120 N.3    49  SER49      -0.1202
     99  CA        36.3760   51.0630    9.9630 C.3    49  SER49       0.2020
    100  C         36.4350   50.2260    8.6920 C.2    49  SER49       0.2618
    101  O         37.5260   49.9230    8.1960 O.2    49  SER49      -0.2717
    102  CB        35.9330   50.3160   11.1990 C.3    49  SER49       0.2103
    103  OG        34.7200   49.6100   11.1910 O.3    49  SER49      -0.2182
    104  N         35.3100   49.8530    8.1080 N.am   50  ILE50      -0.1979
    105  CA        35.2720   48.9640    6.9460 C.3    50  ILE50       0.1595
    106  C         35.9990   49.6210    5.7750 C.2    50  ILE50       0.2287
    107  O         36.8040   49.0160    5.0930 O.2    50  ILE50      -0.2864
    108  CB        33.8220   48.6030    6.5940 C.3    50  ILE50       0.0276
    109  CG1       33.1560   47.8540    7.7490 C.3    50  ILE50       0.0022
    110  CG2       33.7710   47.7780    5.3030 C.3    50  ILE50       0.0022
    111  CD1       31.6830   47.5790    7.5220 C.3    50  ILE50       0.0001
    112  N         30.1800   47.5030    1.2700 N.3    54  LEU54      -0.1245
    113  CA        30.0390   46.0500    1.2170 C.3    54  LEU54       0.1561
    114  C         29.2460   45.7010   -0.0390 C.2    54  LEU54       0.2260
    115  O         28.0660   46.0880   -0.1600 O.2    54  LEU54      -0.2867
    116  CB        29.3230   45.5480    2.4790 C.3    54  LEU54       0.0270
    117  CG        30.1530   45.6620    3.7390 C.3    54  LEU54       0.0019
    118  CD1       29.2550   45.4520    4.9590 C.3    54  LEU54       0.0001
    119  CD2       31.2900   44.6500    3.7810 C.3    54  LEU54       0.0001
    120  N         24.8980   44.3800   -1.1300 N.3    57  ARG57      -0.1245
    121  CA        24.0340   44.7610   -0.0110 C.3    57  ARG57       0.1563
    122  C         23.7450   46.2370   -0.1350 C.2    57  ARG57       0.2260
    123  O         24.6490   46.9930   -0.4740 O.2    57  ARG57      -0.2867
    124  CB        24.7950   44.5360    1.3390 C.3    57  ARG57       0.0307
    125  CG        24.8090   43.0560    1.7020 C.3    57  ARG57       0.0489
    126  CD        26.0310   42.6240    2.4590 C.3    57  ARG57       0.2205
    127  NE        27.1620   42.5030    1.5690 N.pl3  57  ARG57      -0.0865
    128  CZ        28.3340   41.9750    1.9120 C.cat  57  ARG57       0.5346
    129  NH1       28.5070   41.5010    3.1320 N.pl3  57  ARG57       0.1354
    130  NH2       29.3170   41.9520    1.0420 N.pl3  57  ARG57       0.1354
    131  N         24.7190   45.8720   11.5260 N.3    94  ILE94      -0.1245
    132  CA        26.0880   45.3900   11.5280 C.3    94  ILE94       0.1561
    133  C         27.0050   46.2440   12.4000 C.2    94  ILE94       0.2260
    134  O         28.2310   46.1820   12.2810 O.2    94  ILE94      -0.2867
    135  CB        26.6330   45.2110   10.1070 C.3    94  ILE94       0.0252
    136  CG1       26.9350   46.5300    9.4090 C.3    94  ILE94       0.0019
    137  CG2       25.7060   44.3190    9.2890 C.3    94  ILE94       0.0019
    138  CD1       27.8390   46.3640    8.1840 C.3    94  ILE94       0.0001
    139  N         24.3770   48.9760   17.8230 N.3   100  TYR100     -0.1241
    140  CA        23.7720   47.7740   18.3680 C.3   100  TYR100      0.1605
    141  C         22.8530   48.0770   19.5590 C.2   100  TYR100      0.2264
    142  O         21.7900   47.4920   19.6920 O.2   100  TYR100     -0.2867
    143  CB        24.8370   46.7800   18.8140 C.3   100  TYR100      0.0534
    144  CG        25.6320   46.1050   17.7330 C.ar  100  TYR100     -0.0201
    145  CD1       25.0250   45.4860   16.6330 C.ar  100  TYR100     -0.0009
    146  CD2       27.0180   45.9820   17.8450 C.ar  100  TYR100     -0.0009
    147  CE1       25.7710   44.8170   15.6780 C.ar  100  TYR100      0.0417
    148  CE2       27.7570   45.3220   16.9020 C.ar  100  TYR100      0.0417
    149  CZ        27.1500   44.7330   15.8100 C.ar  100  TYR100      0.1957
    150  OH        27.9520   44.1250   14.8860 O.3   100  TYR100     -0.2866
    151  N         28.9780   35.5680   16.7120 N.3   113  THR113     -0.1218
    152  CA        30.1440   34.6990   16.6890 C.3   113  THR113      0.1862
    153  C         30.8770   34.9110   18.0050 C.2   113  THR113      0.2287
    154  O         31.2790   36.0160   18.3210 O.2   113  THR113     -0.2866
    155  CB        31.0690   35.0150   15.5310 C.3   113  THR113      0.1770
    156  OG1       30.3000   34.8960   14.3380 O.3   113  THR113     -0.2211
    157  CG2       32.2410   34.0340   15.5000 C.3   113  THR113      0.0375
@<TRIPOS>BOND
     1    90    89    1
     2   120   121    1
     3    89    88    1
     4   123   122    2
     5   115   114    2
     6   122   121    1
     7   114   113    1
     8   121   124    1
     9    88    87    1
    10   130   128    1
    11   113   112    1
    12   113   116    1
    13   124   125    1
    14   127   128    2
    15   127   126    1
    16   125   126    1
    17    87    86    1
    18   128   129    1
    19   116   117    1
    20    85    84    2
    21    86    83    1
    22   117   119    1
    23   117   118    1
    24    84    83    1
    25    83    82    1
    26   107   106    2
    27   110   108    1
    28    82    73   am
    29   106   105    1
    30    52    51    2
    31    74    73    2
    32    73    72    1
    33    80    78   ar
    34    80    81   ar
    35   108   105    1
    36   108   109    1
    37    51    50    1
    38    78    76   ar
    39   105   104    1
    40    53    50    1
    41    53    54    1
    42    57    58    1
    43    55    54    1
    44    60    59    2
    45   111   109    1
    46    81    79   ar
    47    50    49    1
    48    59    58    1
    49    59    71   am
    50    58    61    1
    51    54    56    1
    52    72    71    1
    53    72    75    1
    54    76    75    1
    55    76    77   ar
    56   104   100   am
    57   138   136    1
    58   101   100    2
    59   100    99    1
    60    49    43   am
    61    79    77   ar
    62    61    62    1
    63    44    43    2
    64   137   135    1
    65    94    93    2
    66    43    42    1
    67   136   135    1
    68    98    99    1
    69    41    42    1
    70    93    92    1
    71    99   102    1
    72    67    64   ar
    73    67    69   ar
    74   135   132    1
    75    62    64   ar
    76    62    63   ar
    77    42    45    1
    78    64    66   ar
    79     8     6    1
    80    69    70   ar
    81    63    65   ar
    82    97    95    1
    83     7     5    1
    84   103   102    1
    85    92    95    1
    86    92    91    1
    87    66    65   ar
    88    66    68   ar
    89   131   132    1
    90   132   133    1
    91    26    25    1
    92    70    68   ar
    93    45    46    1
    94    95    96    1
    95     6     5    1
    96     5     2    1
    97   134   133    2
    98    46    47   ar
    99    46    48   ar
   100    30    29    2
   101    25    24    1
   102    29    28    1
   103     2     1    1
   104     2     3    1
   105    22    21    1
   106     4     3    2
   107    24    23    1
   108     3     9   am
   109    23    20    1
   110    19    20    1
   111   156   155    1
   112    33    35   ar
   113    33    32   ar
   114    35    36   ar
   115     9    10    1
   116   150   149    1
   117    20    21    1
   118    28    27    1
   119    28    31    1
   120    10    11    1
   121    10    13    1
   122    18    15    1
   123   157   155    1
   124   155   152    1
   125    32    31    1
   126    32    34   ar
   127   147   149   ar
   128   147   145   ar
   129    11    14   am
   130    11    12    2
   131    36    38   ar
   132    36    34   ar
   133   149   148   ar
   134    14    15    1
   135    38    40   ar
   136    34    37   ar
   137    15    16    1
   138   145   144   ar
   139   152   151    1
   140   152   153    1
   141   148   146   ar
   142    40    39   ar
   143    37    39   ar
   144   144   146   ar
   145   144   143    1
   146    16    17    2
   147   139   140    1
   148   153   154    2
   149   140   143    1
   150   140   141    1
   151   141   142    2
