@<TRIPOS>MOLECULE
tmp/4pt1B00.pdb
 122 115 0 0 0
SMALL
GASTEIGER

@<TRIPOS>ATOM
      1  N          8.0310   -6.4020   -8.0410 N.3     8  ILE8       -0.1245
      2  CA         8.2680   -5.2330   -7.1980 C.3     8  ILE8        0.1561
      3  C          9.7640   -4.9650   -6.9850 C.2     8  ILE8        0.2260
      4  O         10.2240   -3.8700   -7.2410 O.2     8  ILE8       -0.2867
      5  CB         7.5260   -5.3480   -5.8540 C.3     8  ILE8        0.0252
      6  CG1        6.0100   -5.2400   -6.1260 C.3     8  ILE8        0.0019
      7  CG2        8.0530   -4.2920   -4.8860 C.3     8  ILE8        0.0019
      8  CD1        5.1340   -5.0470   -4.9210 C.3     8  ILE8        0.0001
      9  N         -2.2760   -7.9610   -5.3100 N.3    69  GLU69      -0.1245
     10  CA        -1.3910   -7.8930   -4.1570 C.3    69  GLU69       0.1567
     11  C         -0.7680   -9.2250   -3.8600 C.2    69  GLU69       0.2260
     12  O          0.4000   -9.2760   -3.4700 O.2    69  GLU69      -0.2867
     13  CB        -2.0810   -7.3390   -2.9160 C.3    69  GLU69       0.0388
     14  CG        -1.1430   -6.9370   -1.7700 C.3    69  GLU69       0.1160
     15  CD        -0.2940   -5.6810   -2.0210 C.2    69  GLU69       0.3649
     16  OE1        0.0300   -5.3150   -3.1740 O.co2  69  GLU69      -0.2457
     17  OE2        0.1040   -5.0400   -1.0280 O.co2  69  GLU69      -0.2457
     18  N          2.0080   -9.7460   -6.0890 N.3    72  ASN72      -0.1225
     19  CA         3.0960   -8.8130   -5.6960 C.3    72  ASN72       0.1785
     20  C          4.0010   -9.3800   -4.6010 C.2    72  ASN72       0.2597
     21  O          5.0930   -8.8710   -4.3710 O.2    72  ASN72      -0.2718
     22  CB         2.5070   -7.4700   -5.2110 C.3    72  ASN72       0.1169
     23  CG         1.9880   -6.5830   -6.3550 C.2    72  ASN72       0.2627
     24  OD1        2.3240   -6.7810   -7.5260 O.2    72  ASN72      -0.2716
     25  ND2        1.1670   -5.5900   -6.0080 N.am   72  ASN72      -0.0877
     26  N          3.5390  -10.4110   -3.9090 N.am   73  VAL73      -0.1966
     27  CA         4.3330  -11.0180   -2.8440 C.3    73  VAL73       0.1712
     28  C          5.5330  -11.6870   -3.5180 C.2    73  VAL73       0.2458
     29  O          5.3590  -12.4250   -4.4670 O.2    73  VAL73      -0.2730
     30  CB         3.5420  -12.0650   -2.0270 C.3    73  VAL73       0.0289
     31  CG1        4.4610  -12.7670   -1.0340 C.3    73  VAL73       0.0023
     32  CG2        2.3830  -11.3990   -1.3130 C.3    73  VAL73       0.0023
     33  N          6.7500  -11.3900   -3.0530 N.am   74  PRO74      -0.2727
     34  CA         7.9260  -12.0050   -3.7060 C.3    74  PRO74       0.1402
     35  C          7.8810  -13.5370   -3.6720 C.2    74  PRO74       0.2269
     36  O          7.3810  -14.1070   -2.6980 O.2    74  PRO74      -0.2865
     37  CB         9.0830  -11.4810   -2.8720 C.3    74  PRO74       0.0296
     38  CG         8.6230  -10.1370   -2.4340 C.3    74  PRO74       0.0237
     39  CD         7.1510  -10.3150   -2.1220 C.3    74  PRO74       0.0939
     40  N          8.8180  -15.7860   -0.5280 N.3    77  ILE77      -0.1245
     41  CA         8.0100  -15.7120    0.6770 C.3    77  ILE77       0.1561
     42  C          6.5060  -15.7540    0.3970 C.2    77  ILE77       0.2260
     43  O          5.7190  -15.1480    1.1320 O.2    77  ILE77      -0.2867
     44  CB         8.3680  -14.4440    1.4790 C.3    77  ILE77       0.0252
     45  CG1        8.1010  -13.1780    0.6600 C.3    77  ILE77       0.0019
     46  CG2        9.8350  -14.4530    1.8980 C.3    77  ILE77       0.0019
     47  CD1        8.0770  -11.9160    1.5100 C.3    77  ILE77       0.0001
     48  N          3.9420  -14.4840    3.0790 N.3    81  GLY81      -0.1225
     49  CA         3.4490  -13.1940    2.5680 C.3    81  GLY81       0.1811
     50  C          1.9520  -13.2210    2.3060 C.2    81  GLY81       0.2280
     51  O          1.2340  -12.2540    2.5880 O.2    81  GLY81      -0.2866
     52  N         -0.0370  -12.7550    5.4420 N.3    84  VAL84      -0.1231
     53  CA        -0.1260  -11.3630    5.8530 C.3    84  VAL84       0.1692
     54  C         -1.1900  -10.6310    5.0300 C.2    84  VAL84       0.2591
     55  O         -2.0450   -9.9270    5.5630 O.2    84  VAL84      -0.2718
     56  CB         1.2390  -10.6570    5.7320 C.3    84  VAL84       0.0266
     57  CG1        1.0840   -9.1600    5.9850 C.3    84  VAL84       0.0020
     58  CG2        2.2420  -11.2710    6.6960 C.3    84  VAL84       0.0020
     59  N         -1.1500  -10.8120    3.7250 N.am   85  VAL85      -0.1980
     60  CA        -2.0800  -10.1030    2.8590 C.3    85  VAL85       0.1595
     61  C         -3.5220  -10.4880    3.1820 C.2    85  VAL85       0.2287
     62  O         -4.3620   -9.6170    3.2960 O.2    85  VAL85      -0.2864
     63  CB        -1.7400  -10.3040    1.3710 C.3    85  VAL85       0.0276
     64  CG1       -2.8590   -9.7390    0.4770 C.3    85  VAL85       0.0022
     65  CG2       -0.3960   -9.6380    1.0460 C.3    85  VAL85       0.0022
     66  N         -0.6220   -1.1820    5.0120 N.3   104  HIS104     -0.1241
     67  CA         0.7740   -1.3830    5.4290 C.3   104  HIS104      0.1621
     68  C          0.9910   -1.4830    6.9220 C.2   104  HIS104      0.2264
     69  O          1.8180   -2.2820    7.3670 O.2   104  HIS104     -0.2867
     70  CB         1.7050   -0.3450    4.7740 C.3   104  HIS104      0.0745
     71  CG         2.0680   -0.7190    3.3770 C.ar  104  HIS104      0.0817
     72  ND1        3.2590   -1.2960    3.0660 N.ar  104  HIS104     -0.2268
     73  CD2        1.3170   -0.7080    2.2090 C.ar  104  HIS104      0.1154
     74  CE1        3.2790   -1.5840    1.7410 C.ar  104  HIS104      0.1986
     75  NE2        2.0930   -1.2370    1.2200 N.ar  104  HIS104     -0.2212
     76  N          0.0850   -4.9210    7.7110 N.3   107  TYR107     -0.1241
     77  CA         1.1650   -5.8430    7.3450 C.3   107  TYR107      0.1605
     78  C          2.2210   -5.9060    8.4430 C.2   107  TYR107      0.2264
     79  O          2.6890   -6.9940    8.8340 O.2   107  TYR107     -0.2867
     80  CB         1.8470   -5.4340    6.0540 C.3   107  TYR107      0.0534
     81  CG         1.0280   -5.5200    4.7820 C.ar  107  TYR107     -0.0201
     82  CD1       -0.2080   -6.1750    4.7340 C.ar  107  TYR107     -0.0009
     83  CD2        1.5130   -4.9670    3.6090 C.ar  107  TYR107     -0.0009
     84  CE1       -0.9190   -6.2620    3.5350 C.ar  107  TYR107      0.0417
     85  CE2        0.7950   -5.0500    2.4210 C.ar  107  TYR107      0.0417
     86  CZ        -0.4130   -5.6990    2.3980 C.ar  107  TYR107      0.1957
     87  OH        -1.1280   -5.7730    1.2140 O.3   107  TYR107     -0.2866
     88  N          3.0780   -9.4420   10.8040 N.3   111  ASP111     -0.1239
     89  CA         4.3390  -10.1540   10.7520 C.3   111  ASP111      0.1674
     90  C          5.4670   -9.1220   10.6180 C.2   111  ASP111      0.2266
     91  O          5.9640   -8.8420    9.5110 O.2   111  ASP111     -0.2867
     92  CB         4.3520  -11.1690    9.5990 C.3   111  ASP111      0.1410
     93  CG         5.5020  -12.1530    9.6820 C.2   111  ASP111      0.3668
     94  OD1        6.5360  -11.8390   10.3320 O.co2 111  ASP111     -0.2456
     95  OD2        5.3820  -13.2500    9.0980 O.co2 111  ASP111     -0.2456
     96  N          8.8200  -10.2730    8.8870 N.3   114  LEU114     -0.1231
     97  CA         8.6970  -10.4630    7.4320 C.3   114  LEU114      0.1693
     98  C          8.5900   -9.1050    6.7360 C.2   114  LEU114      0.2592
     99  O          9.2100   -8.8680    5.6690 O.2   114  LEU114     -0.2718
    100  CB         7.4970  -11.3450    7.0990 C.3   114  LEU114      0.0284
    101  CG         7.3680  -11.6080    5.5980 C.3   114  LEU114      0.0019
    102  CD1        8.5540  -12.4070    5.0710 C.3   114  LEU114      0.0001
    103  CD2        6.0450  -12.2930    5.3180 C.3   114  LEU114      0.0001
    104  N          7.7880   -8.2220    7.3290 N.am  115  TYR115     -0.1976
    105  CA         7.6200   -6.8540    6.8060 C.3   115  TYR115      0.1639
    106  C          8.9330   -6.0900    6.7760 C.2   115  TYR115      0.2290
    107  O          9.2590   -5.4670    5.7790 O.2   115  TYR115     -0.2864
    108  CB         6.5670   -6.0760    7.5960 C.3   115  TYR115      0.0560
    109  CG         6.1510   -4.7940    6.9130 C.ar  115  TYR115     -0.0198
    110  CD1        5.4730   -4.8250    5.6970 C.ar  115  TYR115     -0.0009
    111  CD2        6.4980   -3.5530    7.4310 C.ar  115  TYR115     -0.0009
    112  CE1        5.0900   -3.6570    5.0700 C.ar  115  TYR115      0.0417
    113  CE2        6.1190   -2.3740    6.8030 C.ar  115  TYR115      0.0417
    114  CZ         5.4190   -2.4370    5.6040 C.ar  115  TYR115      0.1957
    115  OH         5.0540   -1.2740    4.9500 O.3   115  TYR115     -0.2866
    116  N         11.0360   -7.3640    3.8490 N.3   118  VAL118     -0.1245
    117  CA        10.5860   -6.8120    2.5630 C.3   118  VAL118      0.1561
    118  C         10.9320   -5.3150    2.3720 C.2   118  VAL118      0.2260
    119  O         11.4440   -4.9140    1.3130 O.2   118  VAL118     -0.2867
    120  CB         9.0880   -7.0320    2.3510 C.3   118  VAL118      0.0252
    121  CG1        8.6210   -6.2740    1.1210 C.3   118  VAL118      0.0019
    122  CG2        8.7690   -8.5150    2.2380 C.3   118  VAL118      0.0019
@<TRIPOS>BOND
     1     1     2    1
     2    24    23    2
     3     4     3    2
     4     2     3    1
     5     2     5    1
     6    23    25   am
     7    23    22    1
     8     6     5    1
     9     6     8    1
    10    18    19    1
    11     5     7    1
    12    19    22    1
    13    19    20    1
    14     9    10    1
    15    20    21    2
    16    20    26   am
    17    29    28    2
    18    10    11    1
    19    10    13    1
    20    26    27    1
    21    11    12    2
    22    34    35    1
    23    34    33    1
    24    34    37    1
    25    35    36    2
    26    28    33   am
    27    28    27    1
    28    16    15   ar
    29    33    39    1
    30    13    14    1
    31    37    38    1
    32    27    30    1
    33    38    39    1
    34    30    32    1
    35    30    31    1
    36    15    14    1
    37    15    17   ar
    38    40    41    1
    39    42    41    1
    40    42    43    2
    41    64    63    1
    42    45    44    1
    43    45    47    1
    44    41    44    1
    45    65    63    1
    46   121   120    1
    47    87    86    1
    48    75    74   ar
    49    75    73   ar
    50   119   118    2
    51    63    60    1
    52    44    46    1
    53    74    72   ar
    54    73    71   ar
    55   122   120    1
    56    50    49    1
    57    50    51    2
    58   120   117    1
    59   118   117    1
    60    86    85   ar
    61    86    84   ar
    62    85    83   ar
    63   117   116    1
    64    49    48    1
    65    60    61    1
    66    60    59    1
    67    72    71   ar
    68    61    62    2
    69    71    70    1
    70    84    82   ar
    71    83    81   ar
    72    59    54   am
    73    82    81   ar
    74    70    67    1
    75    81    80    1
    76   115   114    1
    77    66    67    1
    78    54    55    2
    79    54    53    1
    80   112   114   ar
    81   112   110   ar
    82   102   101    1
    83   103   101    1
    84    67    68    1
    85    52    53    1
    86   101   100    1
    87   114   113   ar
    88    99    98    2
    89   110   109   ar
    90    56    53    1
    91    56    57    1
    92    56    58    1
    93   107   106    2
    94    80    77    1
    95    98   104   am
    96    98    97    1
    97   106   105    1
    98   113   111   ar
    99   105   104    1
   100   105   108    1
   101   109   111   ar
   102   109   108    1
   103    68    69    2
   104   100    97    1
   105    77    76    1
   106    77    78    1
   107    97    96    1
   108    78    79    2
   109    95    93   ar
   110    91    90    2
   111    92    93    1
   112    92    89    1
   113    93    94   ar
   114    90    89    1
   115    89    88    1
