@<TRIPOS>MOLECULE
tmp/4pt1B01.pdb
 143 138 0 0 0
SMALL
GASTEIGER

@<TRIPOS>ATOM
      1  N          8.0310   -6.4020   -8.0410 N.3     8  ILE8       -0.1231
      2  CA         8.2680   -5.2330   -7.1980 C.3     8  ILE8        0.1692
      3  C          9.7640   -4.9650   -6.9850 C.2     8  ILE8        0.2591
      4  O         10.2240   -3.8700   -7.2410 O.2     8  ILE8       -0.2718
      5  CB         7.5260   -5.3480   -5.8540 C.3     8  ILE8        0.0266
      6  CG1        6.0100   -5.2400   -6.1260 C.3     8  ILE8        0.0019
      7  CG2        8.0530   -4.2920   -4.8860 C.3     8  ILE8        0.0020
      8  CD1        5.1340   -5.0470   -4.9210 C.3     8  ILE8        0.0001
      9  N         10.5260   -5.9590   -6.5400 N.am    9  MET9       -0.1979
     10  CA        11.9670   -5.7570   -6.3970 C.3     9  MET9        0.1605
     11  C         12.6210   -5.4500   -7.7450 C.2     9  MET9        0.2287
     12  O         13.5190   -4.6440   -7.8060 O.2     9  MET9       -0.2864
     13  CB        12.6540   -6.9550   -5.7500 C.3     9  MET9        0.0413
     14  CG        12.2720   -7.2090   -4.3050 C.3     9  MET9        0.0598
     15  SD        12.3990   -5.7820   -3.2140 S.3     9  MET9       -0.1393
     16  CE        11.2450   -6.3050   -1.9390 C.3     9  MET9        0.0692
     17  N         11.9930    7.6190    3.6100 N.3    30  LEU30      -0.1245
     18  CA        11.8790    6.2110    3.2290 C.3    30  LEU30       0.1561
     19  C         12.8500    5.3440    4.0290 C.2    30  LEU30       0.2260
     20  O         12.4900    4.2660    4.5140 O.2    30  LEU30      -0.2867
     21  CB        12.1330    6.0560    1.7190 C.3    30  LEU30       0.0270
     22  CG        11.1920    6.8450    0.8000 C.3    30  LEU30       0.0019
     23  CD1       11.4290    6.4660   -0.6590 C.3    30  LEU30       0.0001
     24  CD2        9.7300    6.6110    1.1930 C.3    30  LEU30       0.0001
     25  N         11.6690    4.8500    7.6130 N.3    33  TYR33      -0.1227
     26  CA        10.5700    3.8850    7.6280 C.3    33  TYR33       0.1736
     27  C         11.1140    2.4400    7.5190 C.2    33  TYR33       0.2595
     28  O         10.6480    1.5510    8.2230 O.2    33  TYR33      -0.2718
     29  CB         9.5870    4.1800    6.5050 C.3    33  TYR33       0.0548
     30  CG         8.3600    3.2880    6.5210 C.ar   33  TYR33      -0.0200
     31  CD1        7.2790    3.5910    7.3270 C.ar   33  TYR33      -0.0009
     32  CD2        8.2780    2.1530    5.7130 C.ar   33  TYR33      -0.0009
     33  CE1        6.1360    2.7840    7.3390 C.ar   33  TYR33       0.0417
     34  CE2        7.1420    1.3450    5.7300 C.ar   33  TYR33       0.0417
     35  CZ         6.0830    1.6660    6.5420 C.ar   33  TYR33       0.1957
     36  OH         4.9390    0.8860    6.5770 O.3    33  TYR33      -0.2866
     37  N         12.1070    2.2120    6.6470 N.am   34  ALA34      -0.1980
     38  CA        12.7310    0.8950    6.5130 C.3    34  ALA34       0.1597
     39  C         13.4700    0.4780    7.7870 C.2    34  ALA34       0.2287
     40  O         13.5290   -0.7030    8.0810 O.2    34  ALA34      -0.2864
     41  CB        13.6610    0.8380    5.3030 C.3    34  ALA34       0.0319
     42  N          4.1980   10.6200    2.7760 N.3    44  PHE44      -0.1241
     43  CA         4.5710    9.2130    2.8600 C.3    44  PHE44       0.1605
     44  C          3.3760    8.2760    2.6310 C.2    44  PHE44       0.2264
     45  O          3.4840    7.3000    1.9040 O.2    44  PHE44      -0.2867
     46  CB         5.2290    8.8780    4.1900 C.3    44  PHE44       0.0534
     47  CG         5.6660    7.4560    4.2630 C.ar   44  PHE44      -0.0203
     48  CD1        6.6500    6.9760    3.4110 C.ar   44  PHE44      -0.0042
     49  CD2        5.0600    6.6020    5.1430 C.ar   44  PHE44      -0.0042
     50  CE1        7.0360    5.6320    3.4650 C.ar   44  PHE44      -0.0003
     51  CE2        5.4210    5.2760    5.2110 C.ar   44  PHE44      -0.0003
     52  CZ         6.4070    4.7890    4.3690 C.ar   44  PHE44      -0.0000
     53  N          2.9020    8.2010   -0.9610 N.3    47  TYR47      -0.1227
     54  CA         3.9830    7.4020   -1.5550 C.3    47  TYR47       0.1736
     55  C          3.6460    5.9160   -1.5340 C.2    47  TYR47       0.2595
     56  O          3.7710    5.2350   -2.5540 O.2    47  TYR47      -0.2718
     57  CB         5.3260    7.6790   -0.8500 C.3    47  TYR47       0.0548
     58  CG         6.4630    6.8030   -1.3420 C.ar   47  TYR47      -0.0200
     59  CD1        7.2510    7.1850   -2.4250 C.ar   47  TYR47      -0.0009
     60  CD2        6.7540    5.5910   -0.7220 C.ar   47  TYR47      -0.0009
     61  CE1        8.2920    6.3830   -2.8660 C.ar   47  TYR47       0.0417
     62  CE2        7.7850    4.7830   -1.1580 C.ar   47  TYR47       0.0417
     63  CZ         8.5650    5.1930   -2.2320 C.ar   47  TYR47       0.1957
     64  OH         9.5780    4.3720   -2.6750 O.3    47  TYR47      -0.2866
     65  N          3.1710    5.4160   -0.3880 N.am   48  LEU48      -0.1980
     66  CA         2.7050    4.0340   -0.2850 C.3    48  LEU48       0.1596
     67  C          1.5560    3.7730   -1.2450 C.2    48  LEU48       0.2287
     68  O          1.5300    2.7380   -1.9110 O.2    48  LEU48      -0.2864
     69  CB         2.3010    3.6850    1.1400 C.3    48  LEU48       0.0297
     70  CG         3.4840    3.5810    2.1050 C.3    48  LEU48       0.0022
     71  CD1        2.9640    3.2700    3.4930 C.3    48  LEU48       0.0001
     72  CD2        4.5240    2.5370    1.7110 C.3    48  LEU48       0.0001
     73  N          2.9720    3.5420   -4.8320 N.3    51  ILE51      -0.1245
     74  CA         3.5940    2.2340   -5.1020 C.3    51  ILE51       0.1561
     75  C          2.5360    1.1610   -5.3830 C.2    51  ILE51       0.2260
     76  O          2.7000    0.3700   -6.3120 O.2    51  ILE51      -0.2867
     77  CB         4.5520    1.7990   -3.9560 C.3    51  ILE51       0.0252
     78  CG1        5.7750    2.7220   -3.9400 C.3    51  ILE51       0.0019
     79  CG2        4.9580    0.3410   -4.1210 C.3    51  ILE51       0.0019
     80  CD1        6.9060    2.2570   -3.0440 C.3    51  ILE51       0.0001
     81  N         -0.6220   -1.1820    5.0120 N.3   104  HIS104     -0.1241
     82  CA         0.7740   -1.3830    5.4290 C.3   104  HIS104      0.1621
     83  C          0.9910   -1.4830    6.9220 C.2   104  HIS104      0.2264
     84  O          1.8180   -2.2820    7.3670 O.2   104  HIS104     -0.2867
     85  CB         1.7050   -0.3450    4.7740 C.3   104  HIS104      0.0745
     86  CG         2.0680   -0.7190    3.3770 C.ar  104  HIS104      0.0817
     87  ND1        3.2590   -1.2960    3.0660 N.ar  104  HIS104     -0.2268
     88  CD2        1.3170   -0.7080    2.2090 C.ar  104  HIS104      0.1154
     89  CE1        3.2790   -1.5840    1.7410 C.ar  104  HIS104      0.1986
     90  NE2        2.0930   -1.2370    1.2200 N.ar  104  HIS104     -0.2212
     91  N          7.7880   -8.2220    7.3290 N.3   115  TYR115     -0.1241
     92  CA         7.6200   -6.8540    6.8060 C.3   115  TYR115      0.1605
     93  C          8.9330   -6.0900    6.7760 C.2   115  TYR115      0.2264
     94  O          9.2590   -5.4670    5.7790 O.2   115  TYR115     -0.2867
     95  CB         6.5670   -6.0760    7.5960 C.3   115  TYR115      0.0534
     96  CG         6.1510   -4.7940    6.9130 C.ar  115  TYR115     -0.0201
     97  CD1        5.4730   -4.8250    5.6970 C.ar  115  TYR115     -0.0009
     98  CD2        6.4980   -3.5530    7.4310 C.ar  115  TYR115     -0.0009
     99  CE1        5.0900   -3.6570    5.0700 C.ar  115  TYR115      0.0417
    100  CE2        6.1190   -2.3740    6.8030 C.ar  115  TYR115      0.0417
    101  CZ         5.4190   -2.4370    5.6040 C.ar  115  TYR115      0.1957
    102  OH         5.0540   -1.2740    4.9500 O.3   115  TYR115     -0.2866
    103  N         11.0360   -7.3640    3.8490 N.3   118  VAL118     -0.1231
    104  CA        10.5860   -6.8120    2.5630 C.3   118  VAL118      0.1692
    105  C         10.9320   -5.3150    2.3720 C.2   118  VAL118      0.2591
    106  O         11.4440   -4.9140    1.3130 O.2   118  VAL118     -0.2718
    107  CB         9.0880   -7.0320    2.3510 C.3   118  VAL118      0.0266
    108  CG1        8.6210   -6.2740    1.1210 C.3   118  VAL118      0.0020
    109  CG2        8.7690   -8.5150    2.2380 C.3   118  VAL118      0.0020
    110  N         10.6490   -4.4930    3.3780 N.am  119  VAL119     -0.1980
    111  CA        10.9200   -3.0590    3.2910 C.3   119  VAL119      0.1595
    112  C         12.4200   -2.7640    3.2520 C.2   119  VAL119      0.2287
    113  O         12.8270   -1.8590    2.5530 O.2   119  VAL119     -0.2864
    114  CB        10.2340   -2.2290    4.4160 C.3   119  VAL119      0.0276
    115  CG1        8.7210   -2.4080    4.3750 C.3   119  VAL119      0.0022
    116  CG2       10.8400   -2.5270    5.7900 C.3   119  VAL119      0.0022
    117  N         13.6060   -3.5710   -0.3190 N.3   122  PHE122     -0.1227
    118  CA        13.1790   -2.4600   -1.1690 C.3   122  PHE122      0.1736
    119  C         14.0750   -1.2340   -0.9580 C.2   122  PHE122      0.2595
    120  O         14.6070   -0.6740   -1.9200 O.2   122  PHE122     -0.2718
    121  CB        11.7040   -2.1480   -0.8850 C.3   122  PHE122      0.0547
    122  CG        11.0650   -1.1930   -1.8430 C.ar  122  PHE122     -0.0202
    123  CD1       10.4260   -1.6670   -2.9850 C.ar  122  PHE122     -0.0042
    124  CD2       11.0340    0.1740   -1.5810 C.ar  122  PHE122     -0.0042
    125  CE1        9.7820   -0.7840   -3.8450 C.ar  122  PHE122     -0.0003
    126  CE2       10.4020    1.0480   -2.4410 C.ar  122  PHE122     -0.0003
    127  CZ         9.7810    0.5680   -3.5740 C.ar  122  PHE122     -0.0000
    128  N         14.2980   -0.8600    0.2950 N.am  123  ASP123     -0.1974
    129  CA        15.0890    0.3180    0.6050 C.3   123  ASP123      0.1709
    130  C         16.5350    0.1840    0.1160 C.2   123  ASP123      0.2293
    131  O         17.1330    1.1730   -0.2960 O.2   123  ASP123     -0.2864
    132  CB        15.0550    0.6280    2.1080 C.3   123  ASP123      0.1436
    133  CG        15.5750    2.0280    2.4250 C.2   123  ASP123      0.3671
    134  OD1       15.0000    3.0100    1.9080 O.co2 123  ASP123     -0.2456
    135  OD2       16.5600    2.1400    3.1740 O.co2 123  ASP123     -0.2456
    136  N         16.6850    0.9250   -3.9690 N.3   126  ILE126     -0.1245
    137  CA        16.3270    2.2360   -4.5450 C.3   126  ILE126      0.1561
    138  C         17.4470    3.2850   -4.5520 C.2   126  ILE126      0.2260
    139  O         17.4270    4.2100   -5.3760 O.2   126  ILE126     -0.2867
    140  CB        15.0510    2.8360   -3.8850 C.3   126  ILE126      0.0252
    141  CG1       15.2730    3.1750   -2.3980 C.3   126  ILE126      0.0019
    142  CG2       13.8800    1.8800   -4.0460 C.3   126  ILE126      0.0019
    143  CD1       14.0630    3.8190   -1.7250 C.3   126  ILE126      0.0001
@<TRIPOS>BOND
     1     1     2    1
     2    12    11    2
     3    11    10    1
     4     4     3    2
     5     2     3    1
     6     2     5    1
     7     3     9   am
     8     9    10    1
     9    10    13    1
    10    76    75    2
    11     6     5    1
    12     6     8    1
    13     5     7    1
    14    13    14    1
    15    75    74    1
    16   139   138    2
    17    74    73    1
    18    74    77    1
    19   138   137    1
    20   137   136    1
    21   137   140    1
    22    14    15    1
    23    79    77    1
    24   142   140    1
    25    77    78    1
    26    78    80    1
    27   140   141    1
    28   125   127   ar
    29   125   123   ar
    30   127   126   ar
    31    15    16    1
    32   123   122   ar
    33    61    59   ar
    34    61    63   ar
    35    64    63    1
    36    56    55    2
    37   126   124   ar
    38    59    58   ar
    39   141   143    1
    40    63    62   ar
    41   120   119    2
    42    68    67    2
    43   122   124   ar
    44   122   121    1
    45    54    55    1
    46    54    53    1
    47    54    57    1
    48    55    65   am
    49    58    57    1
    50    58    60   ar
    51    67    66    1
    52   118   119    1
    53   118   121    1
    54   118   117    1
    55    62    60   ar
    56   119   128   am
    57    23    22    1
    58    65    66    1
    59   131   130    2
    60    66    69    1
    61   130   129    1
    62   128   129    1
    63   129   132    1
    64    22    24    1
    65    22    21    1
    66   108   107    1
    67    69    70    1
    68    90    89   ar
    69    90    88   ar
    70   106   105    2
    71    72    70    1
    72    21    18    1
    73    89    87   ar
    74    45    44    2
    75   134   133   ar
    76    70    71    1
    77   132   133    1
    78    88    86   ar
    79   109   107    1
    80   107   104    1
    81   105   104    1
    82   105   110   am
    83   133   135   ar
    84   113   112    2
    85   104   103    1
    86    44    43    1
    87    42    43    1
    88    43    46    1
    89    87    86   ar
    90    18    17    1
    91    18    19    1
    92   112   111    1
    93   111   110    1
    94   111   114    1
    95    86    85    1
    96    48    50   ar
    97    48    47   ar
    98    50    52   ar
    99    19    20    2
   100    46    47    1
   101    47    49   ar
   102    52    51   ar
   103   115   114    1
   104   114   116    1
   105    85    82    1
   106   102   101    1
   107    81    82    1
   108    99   101   ar
   109    99    97   ar
   110    49    51   ar
   111    41    38    1
   112    82    83    1
   113   101   100   ar
   114    97    96   ar
   115    32    34   ar
   116    32    30   ar
   117    34    35   ar
   118    94    93    2
   119    29    30    1
   120    29    26    1
   121    38    37    1
   122    38    39    1
   123    30    31   ar
   124    35    36    1
   125    35    33   ar
   126    37    27   am
   127    93    92    1
   128   100    98   ar
   129    92    91    1
   130    92    95    1
   131    96    98   ar
   132    96    95    1
   133    83    84    2
   134    31    33   ar
   135    27    26    1
   136    27    28    2
   137    25    26    1
   138    39    40    2
