@<TRIPOS>MOLECULE
tmp/4ptcB00.pdb
 168 159 0 0 0
SMALL
GASTEIGER

@<TRIPOS>ATOM
      1  N        -23.3360   24.2170  -14.7480 N.3    28  ILE28      -0.1231
      2  CA       -22.5160   23.2230  -14.0680 C.3    28  ILE28       0.1696
      3  C        -22.4030   21.9600  -14.9240 C.2    28  ILE28       0.2631
      4  O        -21.4190   21.2210  -14.8260 O.2    28  ILE28      -0.2714
      5  CB       -23.0850   22.8640  -12.6630 C.3    28  ILE28       0.0266
      6  CG1      -22.9750   24.0690  -11.7200 C.3    28  ILE28       0.0019
      7  CG2      -22.3770   21.6550  -12.0710 C.3    28  ILE28       0.0020
      8  CD1      -21.5590   24.5640  -11.4870 C.3    28  ILE28       0.0001
      9  N        -23.4050   21.7100  -15.7660 N.am   29  GLY29      -0.1732
     10  CA       -23.3720   20.5430  -16.6390 C.2    29  GLY29       0.1340
     11  C        -24.4870   20.3880  -17.6620 C.2    29  GLY29       0.2521
     12  O        -25.5960   20.8860  -17.4920 O.2    29  GLY29      -0.2816
     13  N        -30.4860   14.7960  -20.3130 N.3    33  PHE33      -0.1241
     14  CA       -31.5570   15.3170  -19.4620 C.3    33  PHE33       0.1605
     15  C        -31.9640   16.7460  -19.8140 C.2    33  PHE33       0.2264
     16  O        -33.1580   17.0630  -19.9150 O.2    33  PHE33      -0.2867
     17  CB       -31.1200   15.2720  -17.9890 C.3    33  PHE33       0.0534
     18  CG       -30.9220   13.8670  -17.3920 C.ar   33  PHE33      -0.0203
     19  CD1      -31.5610   12.7840  -17.9570 C.ar   33  PHE33      -0.0042
     20  CD2      -30.1350   13.7360  -16.2500 C.ar   33  PHE33      -0.0042
     21  CE1      -31.3900   11.5550  -17.3520 C.ar   33  PHE33      -0.0003
     22  CE2      -29.9780   12.5060  -15.6580 C.ar   33  PHE33      -0.0003
     23  CZ       -30.6190   11.4180  -16.2270 C.ar   33  PHE33      -0.0000
     24  N        -27.7700   21.4880  -16.1680 N.3    36  VAL36      -0.1245
     25  CA       -27.6530   21.6250  -14.7160 C.3    36  VAL36       0.1561
     26  C        -26.8860   22.9010  -14.3840 C.2    36  VAL36       0.2260
     27  O        -25.7030   23.0340  -14.7310 O.2    36  VAL36      -0.2867
     28  CB       -26.9350   20.4230  -14.0550 C.3    36  VAL36       0.0252
     29  CG1      -26.6770   20.7090  -12.5870 C.3    36  VAL36       0.0019
     30  CG2      -27.7670   19.1760  -14.1660 C.3    36  VAL36       0.0019
     31  N        -27.8520   23.6560   -6.7790 N.3    49  ALA49      -0.1245
     32  CA       -27.7810   23.1160   -8.1500 C.3    49  ALA49       0.1562
     33  C        -29.1770   22.9710   -8.7640 C.2    49  ALA49       0.2260
     34  O        -29.9950   22.1990   -8.2700 O.2    49  ALA49      -0.2867
     35  CB       -27.0680   21.7700   -8.1660 C.3    49  ALA49       0.0290
     36  N        -31.6360   21.8240  -11.8220 N.3    51  LYS51      -0.1245
     37  CA       -31.6010   20.8550  -12.9090 C.3    51  LYS51       0.1561
     38  C        -32.8640   20.9410  -13.7640 C.2    51  LYS51       0.2260
     39  O        -33.9500   20.5840  -13.3060 O.2    51  LYS51      -0.2867
     40  CB       -31.4200   19.4540  -12.3410 C.3    51  LYS51       0.0271
     41  CG       -31.6180   18.3320  -13.3260 C.3    51  LYS51       0.0035
     42  CD       -31.2400   17.0060  -12.7060 C.3    51  LYS51       0.0206
     43  CE       -31.9300   15.8550  -13.4160 C.3    51  LYS51       0.1093
     44  NZ       -31.5780   14.5160  -12.8600 N.3    51  LYS51      -0.1314
     45  N        -38.6630   10.9010  -11.7840 N.3    63  GLU63      -0.1245
     46  CA       -37.5620   11.3400  -10.9190 C.3    63  GLU63       0.1567
     47  C        -38.0810   12.1200   -9.7140 C.2    63  GLU63       0.2260
     48  O        -37.7560   11.7840   -8.5780 O.2    63  GLU63      -0.2867
     49  CB       -36.5680   12.1940  -11.6930 C.3    63  GLU63       0.0388
     50  CG       -35.2080   12.3020  -11.0480 C.3    63  GLU63       0.1160
     51  CD       -34.2250   13.1350  -11.8740 C.2    63  GLU63       0.3649
     52  OE1      -34.5590   13.5080  -13.0240 O.co2  63  GLU63      -0.2457
     53  OE2      -33.1140   13.4230  -11.3710 O.co2  63  GLU63      -0.2457
     54  N        -28.7010   13.1380   -2.2020 N.3    76  VAL76      -0.1245
     55  CA       -28.7170   14.5780   -2.4170 C.3    76  VAL76       0.1561
     56  C        -30.1150   15.1210   -2.0970 C.2    76  VAL76       0.2260
     57  O        -31.1230   14.4560   -2.3430 O.2    76  VAL76      -0.2867
     58  CB       -28.2610   14.9380   -3.8780 C.3    76  VAL76       0.0252
     59  CG1      -29.3580   14.6680   -4.8890 C.3    76  VAL76       0.0019
     60  CG2      -27.8150   16.3760   -3.9580 C.3    76  VAL76       0.0019
     61  N        -31.5370   21.3660   -6.1960 N.3    94  LEU94      -0.1231
     62  CA       -30.8160   20.4970   -5.2850 C.3    94  LEU94       0.1693
     63  C        -29.7510   21.3100   -4.5740 C.2    94  LEU94       0.2592
     64  O        -29.3050   22.3310   -5.0950 O.2    94  LEU94      -0.2718
     65  CB       -30.1830   19.3160   -6.0320 C.3    94  LEU94       0.0284
     66  CG       -31.1450   18.4100   -6.7900 C.3    94  LEU94       0.0019
     67  CD1      -30.4040   17.4070   -7.6490 C.3    94  LEU94       0.0001
     68  CD2      -32.0900   17.6790   -5.8540 C.3    94  LEU94       0.0001
     69  N        -29.3670   20.8720   -3.3740 N.am   95  ASP95      -0.1960
     70  CA       -28.2900   21.5140   -2.6390 C.3    95  ASP95       0.1840
     71  C        -26.9570   21.2320   -3.3400 C.2    95  ASP95       0.2622
     72  O        -26.7190   20.1350   -3.8420 O.2    95  ASP95      -0.2715
     73  CB       -28.2710   21.0380   -1.1860 C.3    95  ASP95       0.1450
     74  CG       -29.2430   21.8130   -0.2990 C.2    95  ASP95       0.3671
     75  OD1      -29.1200   23.0580   -0.1880 O.co2  95  ASP95      -0.2456
     76  OD2      -30.1420   21.1760    0.2880 O.co2  95  ASP95      -0.2456
     77  N        -26.0950   22.2360   -3.3940 N.am   96  TYR96      -0.1960
     78  CA       -24.8420   22.0990   -4.1160 C.3    96  TYR96       0.1771
     79  C        -23.7430   21.4600   -3.2720 C.2    96  TYR96       0.2619
     80  O        -23.2930   22.0320   -2.2810 O.2    96  TYR96      -0.2715
     81  CB       -24.3730   23.4660   -4.6290 C.3    96  TYR96       0.0574
     82  CG       -23.0760   23.3990   -5.3990 C.ar   96  TYR96      -0.0198
     83  CD1      -23.0520   22.9200   -6.7020 C.ar   96  TYR96      -0.0009
     84  CD2      -21.8750   23.8080   -4.8230 C.ar   96  TYR96      -0.0009
     85  CE1      -21.8750   22.8530   -7.4170 C.ar   96  TYR96       0.0417
     86  CE2      -20.6880   23.7460   -5.5310 C.ar   96  TYR96       0.0417
     87  CZ       -20.6980   23.2650   -6.8300 C.ar   96  TYR96       0.1957
     88  OH       -19.5320   23.1880   -7.5520 O.3    96  TYR96      -0.2866
     89  N        -23.3150   20.2760   -3.6860 N.am   97  VAL97      -0.1964
     90  CA       -22.1360   19.6080   -3.1360 C.3    97  VAL97       0.1712
     91  C        -20.9190   19.9230   -4.0150 C.2    97  VAL97       0.2458
     92  O        -20.9850   19.7600   -5.2260 O.2    97  VAL97      -0.2730
     93  CB       -22.3570   18.0870   -3.0720 C.3    97  VAL97       0.0289
     94  CG1      -21.4550   17.4500   -2.0540 C.3    97  VAL97       0.0023
     95  CG2      -23.8040   17.7880   -2.7400 C.3    97  VAL97       0.0023
     96  N        -19.7980   20.3550   -3.4180 N.am   98  PRO98      -0.2716
     97  CA       -18.7020   20.9230   -4.2200 C.3    98  PRO98       0.1536
     98  C        -17.8400   19.9210   -5.0020 C.2    98  PRO98       0.2598
     99  O        -17.1580   20.3330   -5.9380 O.2    98  PRO98      -0.2715
    100  CB       -17.8470   21.6320   -3.1660 C.3    98  PRO98       0.0310
    101  CG       -18.0430   20.8220   -1.9630 C.3    98  PRO98       0.0237
    102  CD       -19.4700   20.3510   -1.9830 C.3    98  PRO98       0.0939
    103  N        -17.8500   18.6450   -4.6410 N.am   99  GLU99      -0.1964
    104  CA       -16.9970   17.6790   -5.3340 C.3    99  GLU99       0.1733
    105  C        -17.7280   16.4210   -5.8020 C.2    99  GLU99       0.2617
    106  O        -18.8910   16.2040   -5.4800 O.2    99  GLU99      -0.2715
    107  CB       -15.8220   17.2790   -4.4360 C.3    99  GLU99       0.0429
    108  CG       -14.6800   18.2730   -4.4460 C.3    99  GLU99       0.1163
    109  CD       -14.0510   18.4290   -5.8340 C.2    99  GLU99       0.3649
    110  OE1      -14.2020   17.5030   -6.6530 O.co2  99  GLU99      -0.2457
    111  OE2      -13.4060   19.4670   -6.1110 O.co2  99  GLU99      -0.2457
    112  N        -17.0490   15.5930   -6.5860 N.am  100  THR100     -0.1951
    113  CA       -17.5870   14.2700   -6.9110 C.3   100  THR100      0.1897
    114  C        -16.4900   13.2450   -6.8200 C.2   100  THR100      0.2313
    115  O        -15.3110   13.5910   -6.9390 O.2   100  THR100     -0.2863
    116  CB       -18.1730   14.2040   -8.3010 C.3   100  THR100      0.1794
    117  OG1      -17.1410   14.5220   -9.2350 O.3   100  THR100     -0.2208
    118  CG2      -19.3280   15.1780   -8.4600 C.3   100  THR100      0.0378
    119  N        -14.1840   13.4180   -9.8750 N.3   103  ARG103     -0.1245
    120  CA       -13.1230   14.4190   -9.8820 C.3   103  ARG103      0.1563
    121  C        -12.0220   14.1870   -8.8450 C.2   103  ARG103      0.2260
    122  O        -10.8430   14.4080   -9.1440 O.2   103  ARG103     -0.2867
    123  CB       -13.7200   15.7970   -9.6800 C.3   103  ARG103      0.0307
    124  CG       -14.7850   16.1600  -10.6930 C.3   103  ARG103      0.0489
    125  CD       -15.7020   17.2250  -10.1070 C.3   103  ARG103      0.2205
    126  NE       -14.9390   18.2900   -9.4600 N.pl3 103  ARG103     -0.0865
    127  CZ       -14.8930   19.5460   -9.8890 C.cat 103  ARG103      0.5346
    128  NH1      -14.1680   20.4450   -9.2360 N.pl3 103  ARG103      0.1354
    129  NH2      -15.5860   19.9030  -10.9610 N.pl3 103  ARG103      0.1354
    130  N        -19.5470    9.7740  -11.0150 N.3   147  GLN147     -0.1231
    131  CA       -19.9930   11.1280  -11.3080 C.3   147  GLN147      0.1698
    132  C        -21.2440   11.4030  -10.5430 C.2   147  GLN147      0.2592
    133  O        -21.5510   12.5450  -10.2580 O.2   147  GLN147     -0.2718
    134  CB       -20.2550   11.3370  -12.7910 C.3   147  GLN147      0.0381
    135  CG       -19.0140   11.4630  -13.6220 C.3   147  GLN147      0.0905
    136  CD       -18.8060   10.2540  -14.5060 C.2   147  GLN147      0.2608
    137  OE1      -18.7690    9.1090  -14.0200 O.2   147  GLN147     -0.2717
    138  NE2      -18.7050   10.4920  -15.8190 N.am  147  GLN147     -0.0878
    139  N        -21.9740   10.3450  -10.2260 N.am  148  ASN148     -0.1974
    140  CA       -23.1970   10.4790   -9.4530 C.3   148  ASN148      0.1688
    141  C        -22.9890   10.3990   -7.9410 C.2   148  ASN148      0.2292
    142  O        -23.9480   10.2530   -7.1870 O.2   148  ASN148     -0.2864
    143  CB       -24.1840    9.4180   -9.8970 C.3   148  ASN148      0.1181
    144  CG       -24.7020    9.6840  -11.2710 C.2   148  ASN148      0.2629
    145  OD1      -24.7650   10.8400  -11.6930 O.2   148  ASN148     -0.2716
    146  ND2      -25.0670    8.6300  -11.9920 N.am  148  ASN148     -0.0877
    147  N        -21.6120   12.6310   -5.1990 N.3   150  LEU150     -0.1245
    148  CA       -21.1480   13.9370   -4.7480 C.3   150  LEU150      0.1561
    149  C        -20.3270   13.8020   -3.4460 C.2   150  LEU150      0.2260
    150  O        -20.5240   12.8670   -2.6500 O.2   150  LEU150     -0.2867
    151  CB       -22.3510   14.8770   -4.5490 C.3   150  LEU150      0.0270
    152  CG       -23.3500   15.1130   -5.6640 C.3   150  LEU150      0.0019
    153  CD1      -24.0160   16.4790   -5.4830 C.3   150  LEU150      0.0001
    154  CD2      -22.7680   15.0190   -7.0580 C.3   150  LEU150      0.0001
    155  N        -26.5800   11.1920   -6.1890 N.3   161  CYS161     -0.1221
    156  CA       -27.5180   11.9720   -7.0140 C.3   161  CYS161      0.1808
    157  C        -27.8560   11.3300   -8.3540 C.2   161  CYS161      0.2601
    158  O        -27.5380   10.1690   -8.6050 O.2   161  CYS161     -0.2717
    159  CB       -26.9900   13.3890   -7.2760 C.3   161  CYS161      0.0970
    160  SG       -25.4450   13.4980   -8.1940 S.3   161  CYS161     -0.0800
    161  N        -28.4930   12.1370   -9.2040 N.am  162  ASP162     -0.1973
    162  CA       -29.0680   11.7370  -10.4950 C.3   162  ASP162      0.1709
    163  C        -29.9600   10.5150  -10.3980 C.2   162  ASP162      0.2293
    164  O        -29.5410    9.4100  -10.7260 O.2   162  ASP162     -0.2864
    165  CB       -27.9790   11.4790  -11.5430 C.3   162  ASP162      0.1436
    166  CG       -28.5110   11.4250  -12.9620 C.2   162  ASP162      0.3671
    167  OD1      -29.5010   10.7140  -13.2100 O.co2 162  ASP162     -0.2456
    168  OD2      -27.9340   12.0970  -13.8350 O.co2 162  ASP162     -0.2456
@<TRIPOS>BOND
     1    13    14    1
     2    16    15    2
     3    15    14    1
     4    14    17    1
     5    17    18    1
     6    19    18   ar
     7    19    21   ar
     8    11    12    2
     9    11    10    1
    10    18    20   ar
    11    21    23   ar
    12    10     9    2
    13    20    22   ar
    14    23    22   ar
    15    24    25    1
    16   138   136   am
    17     9     3    1
    18     3     4    2
    19     3     2    1
    20     1     2    1
    21    27    26    2
    22    25    26    1
    23    25    28    1
    24   136   137    2
    25   136   135    1
    26    30    28    1
    27     2     5    1
    28    28    29    1
    29   168   166   ar
    30    38    39    2
    31    38    37    1
    32   135   134    1
    33    43    44    1
    34    43    42    1
    35    41    42    1
    36    41    40    1
    37   167   166   ar
    38    52    51   ar
    39   166   165    1
    40    37    40    1
    41    37    36    1
    42   134   131    1
    43     5     7    1
    44     5     6    1
    45   146   144   am
    46    51    53   ar
    47    51    50    1
    48    45    46    1
    49     6     8    1
    50    49    50    1
    51    49    46    1
    52   145   144    2
    53   165   162    1
    54   131   130    1
    55   131   132    1
    56   144   143    1
    57   129   127    1
    58    46    47    1
    59   164   163    2
    60   124   125    1
    61   124   123    1
    62   132   133    2
    63   132   139   am
    64   162   163    1
    65   162   161    1
    66   139   140    1
    67   125   126    1
    68   143   140    1
    69   127   126    2
    70   127   128    1
    71   120   119    1
    72   120   123    1
    73   120   121    1
    74    47    48    2
    75   140   141    1
    76   117   116    1
    77   161   157   am
    78   122   121    2
    79    33    34    2
    80    33    32    1
    81   158   157    2
    82   118   116    1
    83   157   156    1
    84   116   113    1
    85   160   159    1
    86    35    32    1
    87    32    31    1
    88   141   142    2
    89    67    66    1
    90    88    87    1
    91    85    87   ar
    92    85    83   ar
    93   159   156    1
    94   154   152    1
    95   156   155    1
    96   115   114    2
    97   113   114    1
    98   113   112    1
    99    87    86   ar
   100    66    65    1
   101    66    68    1
   102    83    82   ar
   103   110   109   ar
   104   112   105   am
   105    61    62    1
   106   111   109   ar
   107    65    62    1
   108    99    98    2
   109   109   108    1
   110   105   106    2
   111   105   104    1
   112   152   153    1
   113   152   151    1
   114    86    84   ar
   115    82    84   ar
   116    82    81    1
   117   104   103    1
   118   104   107    1
   119    62    63    1
   120    92    91    2
   121   147   148    1
   122    64    63    2
   123    98   103   am
   124    98    97    1
   125    59    58    1
   126   148   151    1
   127   148   149    1
   128    81    78    1
   129    63    69   am
   130   108   107    1
   131    97    96    1
   132    97   100    1
   133    78    77    1
   134    78    79    1
   135    91    96   am
   136    91    90    1
   137    60    58    1
   138    58    55    1
   139    72    71    2
   140    89    79   am
   141    89    90    1
   142   149   150    2
   143    96   102    1
   144    77    71   am
   145    69    70    1
   146    71    70    1
   147    79    80    2
   148   100   101    1
   149    90    93    1
   150    93    95    1
   151    93    94    1
   152    70    73    1
   153    55    54    1
   154    55    56    1
   155    57    56    2
   156   102   101    1
   157    73    74    1
   158    74    75   ar
   159    74    76   ar
