@<TRIPOS>MOLECULE
tmp/4pteA00.pdb
 168 159 0 0 0
SMALL
GASTEIGER

@<TRIPOS>ATOM
      1  N          2.1210    0.7370  -29.8140 N.3    27  ILE27      -0.1231
      2  CA         1.3140    1.8280  -30.3310 C.3    27  ILE27       0.1696
      3  C         -0.1310    1.7390  -29.8410 C.2    27  ILE27       0.2631
      4  O         -0.9350    2.6240  -30.1190 O.2    27  ILE27      -0.2714
      5  CB         1.3630    1.8830  -31.8810 C.3    27  ILE27       0.0266
      6  CG1        0.8570    0.5890  -32.5070 C.3    27  ILE27       0.0019
      7  CG2        2.7830    2.1610  -32.3590 C.3    27  ILE27       0.0020
      8  CD1        0.9810    0.5710  -34.0270 C.3    27  ILE27       0.0001
      9  N         -0.4530    0.6920  -29.0850 N.am   28  GLY28      -0.1732
     10  CA        -1.7850    0.5650  -28.5160 C.2    28  GLY28       0.1340
     11  C         -2.0030   -0.6340  -27.6100 C.2    28  GLY28       0.2521
     12  O         -1.4470   -1.7040  -27.8370 O.2    28  GLY28      -0.2816
     13  N         -8.0760   -6.8210  -25.9220 N.3    32  PHE32      -0.1241
     14  CA        -7.6270   -7.9640  -26.7190 C.3    32  PHE32       0.1605
     15  C         -6.1690   -8.3330  -26.4420 C.2    32  PHE32       0.2264
     16  O         -5.7660   -9.4900  -26.6010 O.2    32  PHE32      -0.2867
     17  CB        -7.7830   -7.6590  -28.2130 C.3    32  PHE32       0.0534
     18  CG        -7.0570   -6.4240  -28.6350 C.ar   32  PHE32      -0.0203
     19  CD1       -5.7030   -6.4600  -28.9230 C.ar   32  PHE32      -0.0042
     20  CD2       -7.7130   -5.2160  -28.6980 C.ar   32  PHE32      -0.0042
     21  CE1       -5.0270   -5.3160  -29.2780 C.ar   32  PHE32      -0.0003
     22  CE2       -7.0410   -4.0680  -29.0560 C.ar   32  PHE32      -0.0003
     23  CZ        -5.6990   -4.1190  -29.3470 C.ar   32  PHE32      -0.0000
     24  N         -0.8910   -3.8540  -29.4370 N.3    35  VAL35      -0.1245
     25  CA        -0.4490   -3.6400  -30.8120 C.3    35  VAL35       0.1561
     26  C          0.9120   -2.9450  -30.8310 C.2    35  VAL35       0.2260
     27  O          1.0880   -1.8720  -30.2430 O.2    35  VAL35      -0.2867
     28  CB        -1.4590   -2.8100  -31.6300 C.3    35  VAL35       0.0252
     29  CG1       -1.0530   -2.7910  -33.1020 C.3    35  VAL35       0.0019
     30  CG2       -2.8570   -3.3770  -31.4980 C.3    35  VAL35       0.0019
     31  N          2.2240   -3.1300  -38.1970 N.3    48  ALA48      -0.1245
     32  CA         1.6050   -3.1970  -36.8850 C.3    48  ALA48       0.1562
     33  C          1.4320   -4.6580  -36.5240 C.2    48  ALA48       0.2260
     34  O          0.8510   -5.4190  -37.2890 O.2    48  ALA48      -0.2867
     35  CB         0.2590   -2.4800  -36.8690 C.3    48  ALA48       0.0290
     36  N         -0.3780   -7.0880  -34.0470 N.3    50  LYS50      -0.1245
     37  CA        -1.3930   -7.2640  -33.0200 C.3    50  LYS50       0.1561
     38  C         -1.2310   -8.6200  -32.3360 C.2    50  LYS50       0.2260
     39  O         -1.2710   -9.6650  -32.9840 O.2    50  LYS50      -0.2867
     40  CB        -2.7870   -7.1330  -33.6280 C.3    50  LYS50       0.0271
     41  CG        -3.9280   -7.3610  -32.6510 C.3    50  LYS50       0.0035
     42  CD        -5.2630   -7.3020  -33.3890 C.3    50  LYS50       0.0206
     43  CE        -6.4530   -7.4260  -32.4370 C.3    50  LYS50       0.1093
     44  NZ        -7.7280   -7.1130  -33.1550 N.3    50  LYS50      -0.1314
     45  N        -11.0090  -14.1130  -35.8540 N.3    60  GLU60      -0.1245
     46  CA       -10.4300  -12.9330  -36.4750 C.3    60  GLU60       0.1567
     47  C         -9.4150  -13.3110  -37.5550 C.2    60  GLU60       0.2260
     48  O         -9.4010  -12.7350  -38.6420 O.2    60  GLU60      -0.2867
     49  CB        -9.7600  -12.0480  -35.4140 C.3    60  GLU60       0.0388
     50  CG        -9.1670  -10.7570  -35.9610 C.3    60  GLU60       0.1160
     51  CD        -8.5850   -9.8670  -34.8540 C.2    60  GLU60       0.3649
     52  OE1       -8.6160  -10.2730  -33.6720 O.co2  60  GLU60      -0.2457
     53  OE2       -8.0960   -8.7700  -35.1710 O.co2  60  GLU60      -0.2457
     54  N         -7.1690   -3.0750  -44.1950 N.3    73  VAL73      -0.1245
     55  CA        -5.7560   -3.2760  -43.8700 C.3    73  VAL73       0.1561
     56  C         -5.3420   -4.7130  -44.1390 C.2    73  VAL73       0.2260
     57  O         -6.0720   -5.6520  -43.8320 O.2    73  VAL73      -0.2867
     58  CB        -5.4490   -2.9140  -42.4100 C.3    73  VAL73       0.0252
     59  CG1       -5.8390   -1.5020  -42.1710 C.3    73  VAL73       0.0019
     60  CG2       -6.1710   -3.8370  -41.4440 C.3    73  VAL73       0.0019
     61  N          0.1400   -6.6770  -39.5740 N.3    91  LEU91      -0.1231
     62  CA        -0.6330   -5.8040  -40.4690 C.3    91  LEU91       0.1693
     63  C          0.2340   -4.7100  -41.0900 C.2    91  LEU91       0.2592
     64  O          1.2100   -4.2840  -40.4800 O.2    91  LEU91      -0.2718
     65  CB        -1.7870   -5.1520  -39.6930 C.3    91  LEU91       0.0284
     66  CG        -2.6400   -6.0810  -38.8240 C.3    91  LEU91       0.0019
     67  CD1       -3.5520   -5.2660  -37.9280 C.3    91  LEU91       0.0001
     68  CD2       -3.4600   -7.0350  -39.6930 C.3    91  LEU91       0.0001
     69  N         -0.1170   -4.2530  -42.2920 N.am   92  ASP92      -0.1960
     70  CA         0.4900   -3.0400  -42.8300 C.3    92  ASP92       0.1840
     71  C          0.2800   -1.8960  -41.8280 C.2    92  ASP92       0.2622
     72  O         -0.8120   -1.7410  -41.2880 O.2    92  ASP92      -0.2715
     73  CB        -0.1280   -2.6470  -44.1620 C.3    92  ASP92       0.1450
     74  CG         0.3590   -3.4980  -45.3270 C.2    92  ASP92       0.3671
     75  OD1        1.4770   -4.0530  -45.2810 O.co2  92  ASP92      -0.2456
     76  OD2       -0.3970   -3.5840  -46.3060 O.co2  92  ASP92      -0.2456
     77  N          1.3120   -1.1070  -41.5670 N.am   93  TYR93      -0.1960
     78  CA         1.1460    0.0530  -40.6870 C.3    93  TYR93       0.1771
     79  C          0.6060    1.2210  -41.5010 C.2    93  TYR93       0.2619
     80  O          1.0690    1.4630  -42.6080 O.2    93  TYR93      -0.2715
     81  CB         2.4680    0.4370  -40.0270 C.3    93  TYR93       0.0574
     82  CG         2.4100    1.7150  -39.2020 C.ar   93  TYR93      -0.0198
     83  CD1        1.8850    1.7090  -37.9210 C.ar   93  TYR93      -0.0009
     84  CD2        2.8940    2.9180  -39.7070 C.ar   93  TYR93      -0.0009
     85  CE1        1.8380    2.8620  -37.1580 C.ar   93  TYR93       0.0417
     86  CE2        2.8510    4.0830  -38.9460 C.ar   93  TYR93       0.0417
     87  CZ         2.3180    4.0430  -37.6790 C.ar   93  TYR93       0.1957
     88  OH         2.2650    5.1800  -36.9170 O.3    93  TYR93      -0.2866
     89  N         -0.3840    1.9280  -40.9650 N.am   94  VAL94      -0.1964
     90  CA        -0.9330    3.1210  -41.6350 C.3    94  VAL94       0.1712
     91  C         -0.7590    4.3360  -40.6800 C.2    94  VAL94       0.2458
     92  O         -1.0560    4.2160  -39.5010 O.2    94  VAL94      -0.2730
     93  CB        -2.4130    2.8860  -42.0100 C.3    94  VAL94       0.0289
     94  CG1       -2.9890    4.0630  -42.7920 C.3    94  VAL94       0.0023
     95  CG2       -2.5500    1.5790  -42.8430 C.3    94  VAL94       0.0023
     96  N         -0.2620    5.4840  -41.1880 N.am   95  PRO95      -0.2716
     97  CA         0.1900    6.5970  -40.3310 C.3    95  PRO95       0.1536
     98  C         -0.8870    7.3150  -39.5080 C.2    95  PRO95       0.2598
     99  O         -0.5670    7.8740  -38.4580 O.2    95  PRO95      -0.2715
    100  CB         0.8040    7.5900  -41.3330 C.3    95  PRO95       0.0310
    101  CG         1.0500    6.8190  -42.5730 C.3    95  PRO95       0.0237
    102  CD         0.0330    5.7310  -42.6150 C.3    95  PRO95       0.0939
    103  N         -2.1280    7.3360  -39.9780 N.am   96  GLU96      -0.1964
    104  CA        -3.1620    8.0940  -39.2860 C.3    96  GLU96       0.1733
    105  C         -4.4870    7.3580  -39.1520 C.2    96  GLU96       0.2617
    106  O         -4.6790    6.2770  -39.7120 O.2    96  GLU96      -0.2715
    107  CB        -3.3920    9.4350  -39.9970 C.3    96  GLU96       0.0429
    108  CG        -2.3530   10.4760  -39.6490 C.3    96  GLU96       0.1163
    109  CD        -2.4520   10.9380  -38.1860 C.2    96  GLU96       0.3649
    110  OE1       -3.4400   10.5960  -37.5000 O.co2  96  GLU96      -0.2457
    111  OE2       -1.5350   11.6430  -37.7270 O.co2  96  GLU96      -0.2457
    112  N         -5.3860    7.9430  -38.3670 N.am   97  THR97      -0.1951
    113  CA        -6.7410    7.4330  -38.2120 C.3    97  THR97       0.1897
    114  C         -7.7140    8.5930  -38.3500 C.2    97  THR97       0.2313
    115  O         -7.3420    9.7440  -38.1350 O.2    97  THR97      -0.2863
    116  CB        -6.9710    6.7550  -36.8300 C.3    97  THR97       0.1794
    117  OG1       -6.9860    7.7570  -35.8060 O.3    97  THR97      -0.2208
    118  CG2       -5.8750    5.7400  -36.5250 C.3    97  THR97       0.0378
    119  N         -8.0040   10.5070  -35.0580 N.3   100  ARG100     -0.1245
    120  CA        -6.9730   11.5060  -34.8020 C.3   100  ARG100      0.1563
    121  C         -7.1270   12.7350  -35.6990 C.2   100  ARG100      0.2260
    122  O         -6.9590   13.8620  -35.2610 O.2   100  ARG100     -0.2867
    123  CB        -5.5900   10.8890  -34.9850 C.3   100  ARG100      0.0307
    124  CG        -5.1940    9.9160  -33.8710 C.3   100  ARG100      0.0489
    125  CD        -4.1300    8.9520  -34.3770 C.3   100  ARG100      0.2205
    126  NE        -3.0100    9.6770  -34.9700 N.pl3 100  ARG100     -0.0865
    127  CZ        -1.7900    9.7230  -34.4540 C.cat 100  ARG100      0.5346
    128  NH1       -1.5090    9.0580  -33.3390 N.pl3 100  ARG100      0.1354
    129  NH2       -0.8440   10.4200  -35.0670 N.pl3 100  ARG100      0.1354
    130  N        -11.7530    5.2890  -34.7310 N.3   144  GLN144     -0.1231
    131  CA       -10.4690    4.6970  -34.3850 C.3   144  GLN144      0.1698
    132  C        -10.1120    3.5010  -35.2630 C.2   144  GLN144      0.2592
    133  O         -8.9410    3.1510  -35.3710 O.2   144  GLN144     -0.2718
    134  CB       -10.4480    4.2540  -32.9310 C.3   144  GLN144      0.0381
    135  CG       -10.7280    5.3840  -31.9640 C.3   144  GLN144      0.0905
    136  CD       -12.1900    5.3980  -31.5450 C.2   144  GLN144      0.2608
    137  OE1      -13.1170    5.6310  -32.3690 O.2   144  GLN144     -0.2717
    138  NE2      -12.4160    5.0830  -30.2630 N.am  144  GLN144     -0.0878
    139  N        -11.1180    2.8840  -35.8800 N.am  145  ASN145     -0.1974
    140  CA       -10.8860    1.6950  -36.7090 C.3   145  ASN145      0.1688
    141  C        -10.7970    2.0340  -38.1910 C.2   145  ASN145      0.2292
    142  O        -10.8370    1.1390  -39.0460 O.2   145  ASN145     -0.2864
    143  CB       -11.9900    0.6490  -36.4750 C.3   145  ASN145      0.1181
    144  CG       -11.8320   -0.0680  -35.1560 C.2   145  ASN145      0.2629
    145  OD1      -10.7360   -0.1100  -34.6010 O.2   145  ASN145     -0.2716
    146  ND2      -12.9270   -0.6370  -34.6400 N.am  145  ASN145     -0.0877
    147  N         -8.2750    3.6630  -40.6580 N.3   147  LEU147     -0.1245
    148  CA        -6.9080    4.1070  -40.8510 C.3   147  LEU147      0.1561
    149  C         -6.8030    4.9880  -42.0970 C.2   147  LEU147      0.2260
    150  O         -7.5410    4.7840  -43.0630 O.2   147  LEU147     -0.2867
    151  CB        -5.9860    2.8960  -40.9570 C.3   147  LEU147      0.0270
    152  CG        -6.0590    1.8980  -39.7990 C.3   147  LEU147      0.0019
    153  CD1       -4.9870    0.8600  -39.9740 C.3   147  LEU147      0.0001
    154  CD2       -5.8740    2.5990  -38.4650 C.3   147  LEU147      0.0001
    155  N        -10.0690   -1.4460  -40.3240 N.3   158  CYS158     -0.1221
    156  CA        -9.2140   -2.2860  -39.5080 C.3   158  CYS158      0.1808
    157  C         -9.9660   -2.8190  -38.2800 C.2   158  CYS158      0.2601
    158  O        -11.1530   -2.5140  -38.0860 O.2   158  CYS158     -0.2717
    159  CB        -7.9580   -1.4900  -39.1230 C.3   158  CYS158      0.0970
    160  SG        -7.9980   -0.5370  -37.6020 S.3   158  CYS158     -0.0800
    161  N         -9.2640   -3.6360  -37.4940 N.am  159  ASP159     -0.1973
    162  CA        -9.7840   -4.3190  -36.3030 C.3   159  ASP159      0.1709
    163  C        -10.9760   -5.2050  -36.5890 C.2   159  ASP159      0.2293
    164  O        -12.1220   -4.7750  -36.4500 O.2   159  ASP159     -0.2864
    165  CB       -10.1670   -3.3170  -35.1980 C.3   159  ASP159      0.1436
    166  CG       -10.6030   -4.0290  -33.9000 C.2   159  ASP159      0.3671
    167  OD1      -10.3950   -5.2650  -33.7940 O.co2 159  ASP159     -0.2456
    168  OD2      -11.1340   -3.3610  -32.9860 O.co2 159  ASP159     -0.2456
@<TRIPOS>BOND
     1    76    74   ar
     2    74    75   ar
     3    74    73    1
     4    54    55    1
     5    73    70    1
     6    56    55    1
     7    56    57    2
     8    55    58    1
     9   150   149    2
    10    95    93    1
    11    70    69    1
    12    70    71    1
    13    94    93    1
    14   102   101    1
    15   102    96    1
    16    80    79    2
    17   101   100    1
    18    58    59    1
    19    58    60    1
    20    69    63   am
    21   149   148    1
    22    93    90    1
    23    71    77   am
    24    71    72    2
    25    90    89    1
    26    90    91    1
    27    77    78    1
    28    79    89   am
    29    79    78    1
    30   100    97    1
    31    96    91   am
    32    96    97    1
    33    63    64    2
    34    63    62    1
    35   151   148    1
    36   151   152    1
    37   148   147    1
    38    78    81    1
    39    91    92    2
    40    62    65    1
    41    62    61    1
    42    97    98    1
    43   155   156    1
    44    81    82    1
    45   107   108    1
    46   107   104    1
    47   103    98   am
    48   103   104    1
    49   153   152    1
    50   152   154    1
    51   106   105    2
    52    84    82   ar
    53    84    86   ar
    54    65    66    1
    55    68    66    1
    56   108   109    1
    57    98    99    2
    58   156   159    1
    59   156   157    1
    60   104   105    1
    61    82    83   ar
    62   105   112   am
    63   159   160    1
    64   142   141    2
    65    86    87   ar
    66    66    67    1
    67    48    47    2
    68   112   113    1
    69   114   113    1
    70   114   115    2
    71   157   158    2
    72   157   161   am
    73   113   116    1
    74    31    32    1
    75   141   140    1
    76   109   111   ar
    77   109   110   ar
    78    83    85   ar
    79    87    85   ar
    80    87    88    1
    81    47    46    1
    82   161   162    1
    83    34    33    2
    84    32    35    1
    85    32    33    1
    86   116   118    1
    87   116   117    1
    88   140   143    1
    89   140   139    1
    90   163   164    2
    91   163   162    1
    92   143   144    1
    93    46    45    1
    94    46    49    1
    95   162   165    1
    96    50    49    1
    97    50    51    1
    98   139   132   am
    99   121   122    2
   100   121   120    1
   101   133   132    2
   102   132   131    1
   103   165   166    1
   104    53    51   ar
   105   144   146   am
   106   144   145    2
   107   129   127    1
   108   119   120    1
   109   123   120    1
   110   123   124    1
   111   126   127    2
   112   126   125    1
   113    51    52   ar
   114   130   131    1
   115   127   128    1
   116   131   134    1
   117   125   124    1
   118    36    37    1
   119     8     6    1
   120   166   167   ar
   121   166   168   ar
   122    40    37    1
   123    40    41    1
   124    42    41    1
   125    42    43    1
   126    44    43    1
   127    29    28    1
   128    37    38    1
   129    39    38    2
   130   134   135    1
   131     6     5    1
   132   137   136    2
   133     7     5    1
   134   135   136    1
   135     5     2    1
   136    28    30    1
   137    28    25    1
   138   136   138   am
   139    26    25    1
   140    26    27    2
   141    25    24    1
   142     2     3    1
   143     2     1    1
   144     4     3    2
   145     3     9    1
   146    23    21   ar
   147    23    22   ar
   148    21    19   ar
   149     9    10    2
   150    22    20   ar
   151    19    18   ar
   152    20    18   ar
   153    18    17    1
   154    10    11    1
   155    17    14    1
   156    12    11    2
   157    14    15    1
   158    14    13    1
   159    16    15    2
