@<TRIPOS>MOLECULE
tmp/4ptgA00.pdb
 168 159 0 0 0
SMALL
GASTEIGER

@<TRIPOS>ATOM
      1  N         -2.0180    0.7020   29.8180 N.3    27  ILE27      -0.1231
      2  CA        -1.1880    1.7960   30.2980 C.3    27  ILE27       0.1696
      3  C          0.2450    1.6790   29.7940 C.2    27  ILE27       0.2631
      4  O          1.0690    2.5490   30.0600 O.2    27  ILE27      -0.2714
      5  CB        -1.1920    1.8790   31.8500 C.3    27  ILE27       0.0266
      6  CG1       -0.6610    0.5900   32.4760 C.3    27  ILE27       0.0019
      7  CG2       -2.5960    2.1850   32.3620 C.3    27  ILE27       0.0020
      8  CD1       -0.7210    0.5770   34.0050 C.3    27  ILE27       0.0001
      9  N          0.5410    0.6130   29.0560 N.am   28  GLY28      -0.1732
     10  CA         1.8780    0.4350   28.5180 C.2    28  GLY28       0.1340
     11  C          2.0530   -0.7710   27.6230 C.2    28  GLY28       0.2521
     12  O          1.4940   -1.8290   27.8970 O.2    28  GLY28      -0.2816
     13  N          8.2810   -6.9040   26.1680 N.3    32  PHE32      -0.1241
     14  CA         7.7260   -7.9930   26.9660 C.3    32  PHE32       0.1605
     15  C          6.2830   -8.3240   26.5790 C.2    32  PHE32       0.2264
     16  O          5.8640   -9.4830   26.6270 O.2    32  PHE32      -0.2867
     17  CB         7.7730   -7.6270   28.4500 C.3    32  PHE32       0.0534
     18  CG         6.9990   -6.3850   28.7830 C.ar   32  PHE32      -0.0203
     19  CD1        7.5880   -5.1350   28.6750 C.ar   32  PHE32      -0.0042
     20  CD2        5.6750   -6.4620   29.1750 C.ar   32  PHE32      -0.0042
     21  CE1        6.8760   -3.9820   28.9650 C.ar   32  PHE32      -0.0003
     22  CE2        4.9580   -5.3140   29.4680 C.ar   32  PHE32      -0.0003
     23  CZ         5.5610   -4.0720   29.3640 C.ar   32  PHE32      -0.0000
     24  N          0.9950   -3.8950   29.6730 N.3    35  VAL35      -0.1245
     25  CA         0.5650   -3.6370   31.0340 C.3    35  VAL35       0.1561
     26  C         -0.8010   -2.9610   31.0510 C.2    35  VAL35       0.2260
     27  O         -0.9880   -1.8910   30.4800 O.2    35  VAL35      -0.2867
     28  CB         1.5640   -2.7640   31.7940 C.3    35  VAL35       0.0252
     29  CG1        1.1250   -2.6270   33.2540 C.3    35  VAL35       0.0019
     30  CG2        2.9580   -3.3620   31.7070 C.3    35  VAL35       0.0019
     31  N         -2.1700   -3.1400   38.5660 N.3    48  ALA48      -0.1245
     32  CA        -1.5860   -3.2250   37.2390 C.3    48  ALA48       0.1562
     33  C         -1.4920   -4.6960   36.8720 C.2    48  ALA48       0.2260
     34  O         -1.1780   -5.5340   37.7260 O.2    48  ALA48      -0.2867
     35  CB        -0.2200   -2.5610   37.1950 C.3    48  ALA48       0.0290
     36  N          0.5010   -7.0700   34.2360 N.3    50  LYS50      -0.1245
     37  CA         1.5160   -7.2410   33.1980 C.3    50  LYS50       0.1561
     38  C          1.3390   -8.5820   32.4940 C.2    50  LYS50       0.2260
     39  O          1.4310   -9.6460   33.1170 O.2    50  LYS50      -0.2867
     40  CB         2.9170   -7.1330   33.7920 C.3    50  LYS50       0.0271
     41  CG         4.0400   -7.2770   32.7880 C.3    50  LYS50       0.0035
     42  CD         5.3680   -7.2550   33.5040 C.3    50  LYS50       0.0206
     43  CE         6.5470   -7.2270   32.5540 C.3    50  LYS50       0.1093
     44  NZ         7.8270   -7.2320   33.3370 N.3    50  LYS50      -0.1314
     45  N         10.9370  -14.0690   36.0070 N.3    62  GLU62      -0.1245
     46  CA        10.3660  -12.9130   36.6830 C.3    62  GLU62       0.1567
     47  C          9.3660  -13.3430   37.7640 C.2    62  GLU62       0.2260
     48  O          9.3750  -12.8160   38.8610 O.2    62  GLU62      -0.2867
     49  CB         9.6900  -11.9790   35.6860 C.3    62  GLU62       0.0388
     50  CG         9.0500  -10.7600   36.3310 C.3    62  GLU62       0.1160
     51  CD         8.6150   -9.6910   35.3320 C.2    62  GLU62       0.3649
     52  OE1        8.6670   -9.9440   34.1070 O.co2  62  GLU62      -0.2457
     53  OE2        8.2270   -8.5900   35.7850 O.co2  62  GLU62      -0.2457
     54  N          7.2770   -3.2280   44.2720 N.3    75  VAL75      -0.1245
     55  CA         5.8590   -3.3650   43.9590 C.3    75  VAL75       0.1561
     56  C          5.4130   -4.8010   44.2390 C.2    75  VAL75       0.2260
     57  O          6.1330   -5.7550   43.9580 O.2    75  VAL75      -0.2867
     58  CB         5.5590   -2.9530   42.4750 C.3    75  VAL75       0.0252
     59  CG1        6.2690   -3.8860   41.4930 C.3    75  VAL75       0.0019
     60  CG2        4.0580   -2.9130   42.2100 C.3    75  VAL75       0.0019
     61  N         -0.2390   -6.7860   39.8380 N.3    91  LEU91      -0.1231
     62  CA         0.5460   -5.9850   40.7610 C.3    91  LEU91       0.1693
     63  C         -0.2870   -4.8560   41.3530 C.2    91  LEU91       0.2592
     64  O         -1.2200   -4.3740   40.6990 O.2    91  LEU91      -0.2718
     65  CB         1.7600   -5.4040   40.0360 C.3    91  LEU91       0.0284
     66  CG         2.5940   -6.3900   39.2250 C.3    91  LEU91       0.0019
     67  CD1        3.3770   -5.6550   38.1520 C.3    91  LEU91       0.0001
     68  CD2        3.5340   -7.1700   40.1220 C.3    91  LEU91       0.0001
     69  N          0.0500   -4.4400   42.5810 N.am   92  ASP92      -0.1960
     70  CA        -0.4460   -3.1740   43.1350 C.3    92  ASP92       0.1840
     71  C         -0.2170   -2.0210   42.1620 C.2    92  ASP92       0.2622
     72  O          0.8900   -1.8540   41.6470 O.2    92  ASP92      -0.2715
     73  CB         0.2540   -2.8250   44.4510 C.3    92  ASP92       0.1450
     74  CG        -0.2870   -3.5910   45.6400 C.2    92  ASP92       0.3671
     75  OD1       -1.5060   -3.8770   45.6960 O.co2  92  ASP92      -0.2456
     76  OD2        0.5310   -3.8950   46.5290 O.co2  92  ASP92      -0.2456
     77  N         -1.2410   -1.2090   41.9330 N.am   93  TYR93      -0.1960
     78  CA        -1.0910   -0.0550   41.0530 C.3    93  TYR93       0.1771
     79  C         -0.4860    1.1340   41.7900 C.2    93  TYR93       0.2619
     80  O         -0.8890    1.4580   42.9040 O.2    93  TYR93      -0.2715
     81  CB        -2.4350    0.3430   40.4470 C.3    93  TYR93       0.0574
     82  CG        -2.3680    1.5990   39.6030 C.ar   93  TYR93      -0.0198
     83  CD1       -1.9170    1.5520   38.2860 C.ar   93  TYR93      -0.0009
     84  CD2       -2.7510    2.8380   40.1270 C.ar   93  TYR93      -0.0009
     85  CE1       -1.8510    2.7030   37.5020 C.ar   93  TYR93       0.0417
     86  CE2       -2.6900    3.9900   39.3550 C.ar   93  TYR93       0.0417
     87  CZ        -2.2420    3.9110   38.0430 C.ar   93  TYR93       0.1957
     88  OH        -2.1710    5.0420   37.2820 O.3    93  TYR93      -0.2866
     89  N          0.4860    1.7840   41.1610 N.am   94  VAL94      -0.1964
     90  CA         1.0490    3.0180   41.7090 C.3    94  VAL94       0.1712
     91  C          0.8500    4.1160   40.6600 C.2    94  VAL94       0.2458
     92  O          1.0950    3.8900   39.4940 O.2    94  VAL94      -0.2730
     93  CB         2.5290    2.8340   42.0730 C.3    94  VAL94       0.0289
     94  CG1        3.0390    4.0040   42.8710 C.3    94  VAL94       0.0023
     95  CG2        2.6970    1.5500   42.8890 C.3    94  VAL94       0.0023
     96  N          0.3650    5.2980   41.0710 N.am   95  PRO95      -0.2716
     97  CA        -0.1280    6.2740   40.0830 C.3    95  PRO95       0.1536
     98  C          0.9450    7.0130   39.2700 C.2    95  PRO95       0.2598
     99  O          0.6060    7.5860   38.2480 O.2    95  PRO95      -0.2715
    100  CB        -0.9150    7.2780   40.9470 C.3    95  PRO95       0.0310
    101  CG        -0.2950    7.1660   42.3230 C.3    95  PRO95       0.0237
    102  CD         0.0820    5.7070   42.4620 C.3    95  PRO95       0.0939
    103  N          2.1950    7.0170   39.7120 N.am   96  GLU96      -0.1964
    104  CA         3.2410    7.7870   39.0430 C.3    96  GLU96       0.1733
    105  C          4.5710    7.0490   38.9530 C.2    96  GLU96       0.2617
    106  O          4.7450    5.9730   39.5200 O.2    96  GLU96      -0.2715
    107  CB         3.4740    9.1240   39.7590 C.3    96  GLU96       0.0429
    108  CG         2.3660   10.1380   39.5590 C.3    96  GLU96       0.1163
    109  CD         2.3320   10.6840   38.1270 C.2    96  GLU96       0.3649
    110  OE1        3.2590   10.3720   37.3450 O.co2  96  GLU96      -0.2457
    111  OE2        1.3810   11.4220   37.7900 O.co2  96  GLU96      -0.2457
    112  N          5.5040    7.6400   38.2160 N.am   97  THR97      -0.1951
    113  CA         6.8740    7.1460   38.1330 C.3    97  THR97       0.1897
    114  C          7.8320    8.3240   38.2570 C.2    97  THR97       0.2313
    115  O          7.4520    9.4660   38.0320 O.2    97  THR97      -0.2863
    116  CB         7.1650    6.4080   36.8040 C.3    97  THR97       0.1794
    117  OG1        7.2780    7.3660   35.7460 O.3    97  THR97      -0.2208
    118  CG2        6.0770    5.3670   36.4750 C.3    97  THR97       0.0378
    119  N          7.9820   10.3020   34.8780 N.3   100  ARG100     -0.1245
    120  CA         6.9660   11.3160   34.5620 C.3   100  ARG100      0.1563
    121  C          7.1070   12.5230   35.4750 C.2   100  ARG100      0.2260
    122  O          6.8820   13.6490   35.0530 O.2   100  ARG100     -0.2867
    123  CB         5.5430   10.7630   34.6700 C.3   100  ARG100      0.0307
    124  CG         5.4430    9.2760   34.4650 C.3   100  ARG100      0.0489
    125  CD         4.1040    8.8240   33.9290 C.3   100  ARG100      0.2205
    126  NE         2.9720    9.3210   34.6970 N.pl3 100  ARG100     -0.0865
    127  CZ         1.7080    9.1140   34.3530 C.cat 100  ARG100      0.5346
    128  NH1        1.4350    8.3990   33.2670 N.pl3 100  ARG100      0.1354
    129  NH2        0.7210    9.6090   35.0890 N.pl3 100  ARG100      0.1354
    130  N         11.7840    4.9910   34.5990 N.3   144  GLN144     -0.1231
    131  CA        10.4840    4.4090   34.2640 C.3   144  GLN144      0.1698
    132  C         10.1260    3.2050   35.1170 C.2   144  GLN144      0.2592
    133  O          8.9660    2.7920   35.1330 O.2   144  GLN144     -0.2718
    134  CB        10.4290    3.9900   32.7970 C.3   144  GLN144      0.0381
    135  CG        10.6490    5.1160   31.8260 C.3   144  GLN144      0.0905
    136  CD        12.0470    5.0800   31.2540 C.2   144  GLN144      0.2608
    137  OE1       13.0430    5.3230   31.9740 O.2   144  GLN144     -0.2717
    138  NE2       12.1430    4.7410   29.9580 N.am  144  GLN144     -0.0878
    139  N         11.1270    2.6310   35.7860 N.am  145  ASN145     -0.1974
    140  CA        10.9280    1.4710   36.6470 C.3   145  ASN145      0.1688
    141  C         10.8550    1.8610   38.1160 C.2   145  ASN145      0.2292
    142  O         10.8770    1.0030   38.9940 O.2   145  ASN145     -0.2864
    143  CB        12.0520    0.4450   36.4480 C.3   145  ASN145      0.1181
    144  CG        11.9390   -0.2920   35.1310 C.2   145  ASN145      0.2629
    145  OD1       10.8610   -0.3570   34.5370 O.2   145  ASN145     -0.2716
    146  ND2       13.0500   -0.8550   34.6660 N.am  145  ASN145     -0.0877
    147  N          8.4080    3.4250   40.5770 N.3   147  LEU147     -0.1245
    148  CA         7.0360    3.8670   40.7910 C.3   147  LEU147      0.1561
    149  C          6.9600    4.8000   41.9960 C.2   147  LEU147      0.2260
    150  O          7.7370    4.6630   42.9400 O.2   147  LEU147     -0.2867
    151  CB         6.1170    2.6690   40.9800 C.3   147  LEU147      0.0270
    152  CG         6.1950    1.5790   39.9080 C.3   147  LEU147      0.0019
    153  CD1        5.2900    0.4440   40.2940 C.3   147  LEU147      0.0001
    154  CD2        5.8280    2.1060   38.5000 C.3   147  LEU147      0.0001
    155  N          9.9960   -1.4750   40.1890 N.3   158  CYS158     -0.1221
    156  CA         9.2510   -2.4900   39.4460 C.3   158  CYS158      0.1808
    157  C         10.0590   -3.0530   38.2910 C.2   158  CYS158      0.2601
    158  O         11.2160   -2.6700   38.0750 O.2   158  CYS158     -0.2717
    159  CB         7.9110   -1.9440   38.9350 C.3   158  CYS158      0.0970
    160  SG         8.0020   -0.8450   37.5070 S.3   158  CYS158     -0.0800
    161  N          9.4240   -3.9870   37.5820 N.am  159  ASP159     -0.1973
    162  CA         9.9700   -4.6600   36.4010 C.3   159  ASP159      0.1709
    163  C         11.1610   -5.5430   36.6990 C.2   159  ASP159      0.2293
    164  O         12.3030   -5.1080   36.6180 O.2   159  ASP159     -0.2864
    165  CB        10.3770   -3.6640   35.3170 C.3   159  ASP159      0.1436
    166  CG        10.6680   -4.3590   33.9780 C.2   159  ASP159      0.3671
    167  OD1       10.6250   -5.6180   33.9290 O.co2 159  ASP159     -0.2456
    168  OD2       10.9350   -3.6520   32.9830 O.co2 159  ASP159     -0.2456
@<TRIPOS>BOND
     1    13    14    1
     2    15    16    2
     3    15    14    1
     4    14    17    1
     5    11    12    2
     6    11    10    1
     7    17    18    1
     8    10     9    2
     9    19    18   ar
    10    19    21   ar
    11    18    20   ar
    12    21    23   ar
    13     9     3    1
    14    20    22   ar
    15    23    22   ar
    16    24    25    1
    17     3     4    2
    18     3     2    1
    19     1     2    1
    20   138   136   am
    21     2     5    1
    22    27    26    2
    23    25    26    1
    24    25    28    1
    25   136   135    1
    26   136   137    2
    27    30    28    1
    28    28    29    1
    29   135   134    1
    30     5     7    1
    31     5     6    1
    32     6     8    1
    33    38    39    2
    34    38    37    1
    35    43    44    1
    36    43    42    1
    37    41    42    1
    38    41    40    1
    39   134   131    1
    40   168   166   ar
    41    37    40    1
    42    37    36    1
    43   128   127    1
    44   167   166   ar
    45   125   124    1
    46   125   126    1
    47   166   165    1
    48    52    51   ar
    49   131   130    1
    50   131   132    1
    51   127   126    2
    52   127   129    1
    53   124   123    1
    54   145   144    2
    55   120   123    1
    56   120   119    1
    57   120   121    1
    58   146   144   am
    59   122   121    2
    60   132   133    2
    61   132   139   am
    62   144   143    1
    63   165   162    1
    64    51    53   ar
    65    51    50    1
    66    49    50    1
    67    49    46    1
    68   117   116    1
    69   139   140    1
    70    45    46    1
    71   162   163    1
    72   162   161    1
    73   143   140    1
    74   118   116    1
    75   164   163    2
    76   140   141    1
    77    46    47    1
    78   116   113    1
    79    33    32    1
    80    33    34    2
    81    35    32    1
    82    32    31    1
    83    88    87    1
    84   110   109   ar
    85    85    87   ar
    86    85    83   ar
    87   160   159    1
    88   161   157   am
    89    47    48    2
    90   111   109   ar
    91   115   114    2
    92    87    86   ar
    93   158   157    2
    94   141   142    2
    95   109   108    1
    96   113   112    1
    97   113   114    1
    98    67    66    1
    99   112   105   am
   100    99    98    2
   101    83    82   ar
   102   157   156    1
   103   154   152    1
   104   159   156    1
   105   105   104    1
   106   105   106    2
   107   104   103    1
   108   104   107    1
   109    66    65    1
   110    66    68    1
   111    98   103   am
   112    98    97    1
   113    86    84   ar
   114   156   155    1
   115    92    91    2
   116   108   107    1
   117    82    84   ar
   118    82    81    1
   119    61    62    1
   120   152   153    1
   121   152   151    1
   122    65    62    1
   123    97   100    1
   124    97    96    1
   125    81    78    1
   126   147   148    1
   127    91    96   am
   128    91    90    1
   129    64    63    2
   130    62    63    1
   131   148   151    1
   132   148   149    1
   133   100   101    1
   134    78    79    1
   135    78    77    1
   136    96   102    1
   137    89    90    1
   138    89    79   am
   139    63    69   am
   140    59    58    1
   141    72    71    2
   142    90    93    1
   143    79    80    2
   144    77    71   am
   145   149   150    2
   146    93    94    1
   147    93    95    1
   148    71    70    1
   149    60    58    1
   150   101   102    1
   151    58    55    1
   152    69    70    1
   153    70    73    1
   154    57    56    2
   155    55    56    1
   156    55    54    1
   157    73    74    1
   158    74    75   ar
   159    74    76   ar
