@<TRIPOS>MOLECULE
tmp/4ptuB00.pdb
 82 77 0 0 0
SMALL
GASTEIGER

@<TRIPOS>ATOM
      1  N        -32.1210   20.7900  -29.5390 N.3    32  GLY32      -0.1225
      2  CA       -31.3540   21.6490  -28.6630 C.3    32  GLY32       0.1811
      3  C        -29.8790   21.2810  -28.7570 C.2    32  GLY32       0.2280
      4  O        -29.5190   20.1320  -29.0620 O.2    32  GLY32      -0.2866
      5  N        -25.7740   22.0630  -27.0690 N.3    34  HIS34      -0.1241
      6  CA       -25.0700   22.3720  -25.8320 C.3    34  HIS34       0.1621
      7  C        -23.5790   22.5240  -26.0430 C.2    34  HIS34       0.2264
      8  O        -23.0210   22.0000  -27.0200 O.2    34  HIS34      -0.2867
      9  CB       -25.2950   21.2670  -24.8020 C.3    34  HIS34       0.0745
     10  CG       -26.7260   21.1150  -24.3970 C.ar   34  HIS34       0.0817
     11  ND1      -27.1640   21.4220  -23.1260 N.ar   34  HIS34      -0.2268
     12  CD2      -27.8060   20.6980  -25.0890 C.ar   34  HIS34       0.1154
     13  CE1      -28.4730   21.1870  -23.0590 C.ar   34  HIS34       0.1986
     14  NE2      -28.8750   20.7410  -24.2290 N.ar   34  HIS34      -0.2212
     15  N        -26.6680   26.0930  -23.2070 N.3    49  VAL49      -0.1245
     16  CA       -27.6260   25.4680  -24.1080 C.3    49  VAL49       0.1561
     17  C        -28.3330   26.5260  -24.9410 C.2    49  VAL49       0.2260
     18  O        -28.5490   27.6640  -24.4820 O.2    49  VAL49      -0.2867
     19  CB       -28.6850   24.6330  -23.3380 C.3    49  VAL49       0.0252
     20  CG1      -29.4660   25.5170  -22.3590 C.3    49  VAL49       0.0019
     21  CG2      -29.6640   23.9540  -24.3030 C.3    49  VAL49       0.0019
     22  N        -31.9370   26.4400  -27.4240 N.3    51  ALA51      -0.1231
     23  CA       -33.0450   25.6240  -27.8670 C.3    51  ALA51       0.1694
     24  C        -33.0190   25.4190  -29.3770 C.2    51  ALA51       0.2592
     25  O        -32.3790   26.1790  -30.0930 O.2    51  ALA51      -0.2718
     26  CB       -34.3480   26.2620  -27.4640 C.3    51  ALA51       0.0304
     27  N        -33.7400   24.4040  -29.8280 N.am   52  SER52      -0.1952
     28  CA       -33.8250   24.0560  -31.2390 C.3    52  SER52       0.1924
     29  C        -34.0160   25.2740  -32.1370 C.2    52  SER52       0.2314
     30  O        -33.2720   25.4640  -33.1050 O.2    52  SER52      -0.2863
     31  CB       -34.9630   23.0660  -31.4580 C.3    52  SER52       0.2116
     32  OG       -36.1810   23.6150  -30.9710 O.3    52  SER52      -0.2180
     33  N        -34.3360   30.5680  -27.0120 N.3    56  VAL56      -0.1245
     34  CA       -34.0090   30.6010  -25.5910 C.3    56  VAL56       0.1561
     35  C        -32.6040   30.0460  -25.3930 C.2    56  VAL56       0.2260
     36  O        -32.2400   29.0490  -26.0230 O.2    56  VAL56      -0.2867
     37  CB       -35.0060   29.7730  -24.7520 C.3    56  VAL56       0.0252
     38  CG1      -34.5320   29.6470  -23.3250 C.3    56  VAL56       0.0019
     39  CG2      -36.4080   30.3860  -24.7850 C.3    56  VAL56       0.0019
     40  N        -29.3970   29.4280  -22.1500 N.3    58  TYR58      -0.1241
     41  CA       -29.1870   29.3020  -20.7200 C.3    58  TYR58       0.1605
     42  C        -27.7130   28.9700  -20.4970 C.2    58  TYR58       0.2264
     43  O        -27.0990   28.2710  -21.3070 O.2    58  TYR58      -0.2867
     44  CB       -30.0900   28.2190  -20.1340 C.3    58  TYR58       0.0534
     45  CG       -30.5160   28.4550  -18.7070 C.ar   58  TYR58      -0.0201
     46  CD1      -31.6940   29.1440  -18.4310 C.ar   58  TYR58      -0.0009
     47  CD2      -29.7660   27.9760  -17.6410 C.ar   58  TYR58      -0.0009
     48  CE1      -32.1080   29.3580  -17.1320 C.ar   58  TYR58       0.0417
     49  CE2      -30.1750   28.1900  -16.3240 C.ar   58  TYR58       0.0417
     50  CZ       -31.3470   28.8830  -16.0850 C.ar   58  TYR58       0.1957
     51  OH       -31.7720   29.1080  -14.7960 O.3    58  TYR58      -0.2866
     52  N        -28.7610   17.3020  -28.1110 N.3    98  GLU98      -0.1245
     53  CA       -29.7450   16.6430  -27.2400 C.3    98  GLU98       0.1567
     54  C        -30.2230   15.3310  -27.8440 C.2    98  GLU98       0.2260
     55  O        -30.5290   15.2470  -29.0440 O.2    98  GLU98      -0.2867
     56  CB       -30.9460   17.5580  -26.9720 C.3    98  GLU98       0.0388
     57  CG       -30.5680   18.7720  -26.1340 C.3    98  GLU98       0.1160
     58  CD       -31.7210   19.7230  -25.8190 C.2    98  GLU98       0.3649
     59  OE1      -32.8920   19.4270  -26.1660 O.co2  98  GLU98      -0.2457
     60  OE2      -31.4380   20.7850  -25.2250 O.co2  98  GLU98      -0.2457
     61  N        -35.0710   13.7620  -24.0080 N.3   108  ARG108     -0.1231
     62  CA       -34.1240   14.6560  -24.6600 C.3   108  ARG108      0.1694
     63  C        -33.0380   15.1310  -23.7030 C.2   108  ARG108      0.2592
     64  O        -32.3730   16.1280  -23.9660 O.2   108  ARG108     -0.2718
     65  CB       -34.8620   15.8610  -25.2470 C.3   108  ARG108      0.0321
     66  CG       -35.9250   15.4830  -26.2660 C.3   108  ARG108      0.0489
     67  CD       -36.7940   16.6680  -26.6450 C.3   108  ARG108      0.2205
     68  NE       -37.6410   16.3710  -27.8010 N.pl3 108  ARG108     -0.0865
     69  CZ       -38.9670   16.2710  -27.7530 C.cat 108  ARG108      0.5346
     70  NH1      -39.6040   16.4390  -26.6000 N.pl3 108  ARG108      0.1354
     71  NH2      -39.6570   16.0000  -28.8560 N.pl3 108  ARG108      0.1354
     72  N        -32.8570   14.4090  -22.6000 N.am  109  PHE109     -0.1976
     73  CA       -32.0330   14.8980  -21.5030 C.3   109  PHE109      0.1639
     74  C        -30.6110   14.3360  -21.4670 C.2   109  PHE109      0.2290
     75  O        -29.8360   14.6900  -20.5900 O.2   109  PHE109     -0.2864
     76  CB       -32.7670   14.6350  -20.1900 C.3   109  PHE109      0.0560
     77  CG       -34.0880   15.3220  -20.1310 C.ar  109  PHE109     -0.0200
     78  CD1      -34.2050   16.6240  -20.5900 C.ar  109  PHE109     -0.0042
     79  CD2      -35.2150   14.6690  -19.6540 C.ar  109  PHE109     -0.0042
     80  CE1      -35.4320   17.2820  -20.5640 C.ar  109  PHE109     -0.0003
     81  CE2      -36.4460   15.3240  -19.6270 C.ar  109  PHE109     -0.0003
     82  CZ       -36.5450   16.6280  -20.0870 C.ar  109  PHE109     -0.0000
@<TRIPOS>BOND
     1    30    29    2
     2    29    28    1
     3    31    28    1
     4    31    32    1
     5    28    27    1
     6    25    24    2
     7    27    24   am
     8     1     2    1
     9    24    23    1
    10     4     3    2
    11    55    54    2
    12    71    69    1
    13     3     2    1
    14    52    53    1
    15    23    26    1
    16    23    22    1
    17    54    53    1
    18    68    69    2
    19    68    67    1
    20    69    70    1
    21    53    56    1
    22     5     6    1
    23     8     7    2
    24    33    34    1
    25    56    57    1
    26    67    66    1
    27    66    65    1
    28    59    58   ar
    29    57    58    1
    30     7     6    1
    31    36    35    2
    32     6     9    1
    33    58    60   ar
    34    34    35    1
    35    34    37    1
    36    65    62    1
    37    12    10   ar
    38    12    14   ar
    39    17    18    2
    40    17    16    1
    41     9    10    1
    42    39    37    1
    43    37    38    1
    44    62    61    1
    45    62    63    1
    46    10    11   ar
    47    21    19    1
    48    14    13   ar
    49    16    19    1
    50    16    15    1
    51    64    63    2
    52    63    72   am
    53    19    20    1
    54    11    13   ar
    55    72    73    1
    56    40    41    1
    57    73    74    1
    58    73    76    1
    59    74    75    2
    60    43    42    2
    61    41    42    1
    62    41    44    1
    63    78    80   ar
    64    78    77   ar
    65    80    82   ar
    66    76    77    1
    67    44    45    1
    68    77    79   ar
    69    82    81   ar
    70    79    81   ar
    71    45    46   ar
    72    45    47   ar
    73    46    48   ar
    74    47    49   ar
    75    48    50   ar
    76    49    50   ar
    77    50    51    1
