@<TRIPOS>MOLECULE
tmp/4ptvB01.pdb
 215 211 0 0 0
SMALL
GASTEIGER

@<TRIPOS>ATOM
      1  N         40.0970   88.1690   15.0730 N.3   163  GLU163     -0.1245
      2  CA        39.9970   89.4130   15.8340 C.3   163  GLU163      0.1567
      3  C         38.5630   89.8210   16.1960 C.2   163  GLU163      0.2260
      4  O         38.0810   90.8440   15.7210 O.2   163  GLU163     -0.2867
      5  CB        40.7020   90.5520   15.0660 C.3   163  GLU163      0.0388
      6  CG        42.1350   90.1730   14.6560 C.3   163  GLU163      0.1160
      7  CD        42.8980   91.2910   13.9580 C.2   163  GLU163      0.3649
      8  OE1       44.1000   91.0990   13.6530 O.co2 163  GLU163     -0.2457
      9  OE2       42.3090   92.3580   13.7060 O.co2 163  GLU163     -0.2457
     10  N         37.5570   91.1610   18.9150 N.3   165  TRP165     -0.1227
     11  CA        37.6070   92.5110   19.4830 C.3   165  TRP165      0.1737
     12  C         37.3250   93.5860   18.4220 C.2   165  TRP165      0.2595
     13  O         36.4980   94.4870   18.6270 O.2   165  TRP165     -0.2718
     14  CB        38.9490   92.7920   20.1710 C.3   165  TRP165      0.0564
     15  CG        38.9190   94.0980   20.9200 C.ar  165  TRP165      0.0003
     16  CD1       38.6320   94.2900   22.2500 C.ar  165  TRP165      0.0946
     17  CD2       39.1340   95.4020   20.3630 C.ar  165  TRP165      0.0152
     18  NE1       38.6810   95.6450   22.5510 N.ar  165  TRP165     -0.2442
     19  CE2       38.9940   96.3390   21.4100 C.ar  165  TRP165      0.0810
     20  CE3       39.4620   95.8640   19.0830 C.ar  165  TRP165      0.0012
     21  CZ2       39.1490   97.7110   21.2040 C.ar  165  TRP165      0.0191
     22  CZ3       39.6120   97.2180   18.8830 C.ar  165  TRP165      0.0001
     23  CH2       39.4540   98.1280   19.9370 C.ar  165  TRP165      0.0015
     24  N         38.0100   93.4880   17.2870 N.am  166  VAL166     -0.1980
     25  CA        37.8880   94.4960   16.2350 C.3   166  VAL166      0.1595
     26  C         36.4780   94.4990   15.6400 C.2   166  VAL166      0.2287
     27  O         35.8510   95.5620   15.4550 O.2   166  VAL166     -0.2864
     28  CB        38.9310   94.2650   15.1130 C.3   166  VAL166      0.0276
     29  CG1       38.7020   95.2550   13.9650 C.3   166  VAL166      0.0022
     30  CG2       40.3580   94.4030   15.6630 C.3   166  VAL166      0.0022
     31  N         35.2860   98.0330   16.7390 N.3   170  GLU170     -0.1245
     32  CA        35.4260   98.8920   15.5570 C.3   170  GLU170      0.1567
     33  C         34.1710   98.9090   14.6760 C.2   170  GLU170      0.2260
     34  O         33.8160   99.9470   14.0990 O.2   170  GLU170     -0.2867
     35  CB        36.6730   98.5320   14.7420 C.3   170  GLU170      0.0388
     36  CG        38.0050   98.8920   15.4150 C.3   170  GLU170      0.1160
     37  CD        38.1250  100.3710   15.7840 C.2   170  GLU170      0.3649
     38  OE1       37.3740  101.2160   15.2450 O.co2 170  GLU170     -0.2457
     39  OE2       38.9830  100.6960   16.6340 O.co2 170  GLU170     -0.2457
     40  N         32.5320  102.1660   17.6320 N.3   174  PHE174     -0.1241
     41  CA        33.1690  103.3870   17.1410 C.3   174  PHE174      0.1605
     42  C         32.8380  103.6630   15.6690 C.2   174  PHE174      0.2264
     43  O         33.1320  104.7420   15.1480 O.2   174  PHE174     -0.2867
     44  CB        34.6860  103.2880   17.3490 C.3   174  PHE174      0.0534
     45  CG        35.0790  102.9100   18.7630 C.ar  174  PHE174     -0.0203
     46  CD1       34.6940  103.7010   19.8390 C.ar  174  PHE174     -0.0042
     47  CD2       35.8370  101.7700   19.0100 C.ar  174  PHE174     -0.0042
     48  CE1       35.0410  103.3540   21.1440 C.ar  174  PHE174     -0.0003
     49  CE2       36.1950  101.4150   20.3070 C.ar  174  PHE174     -0.0003
     50  CZ        35.7950  102.2110   21.3780 C.ar  174  PHE174     -0.0000
     51  N         28.1750  101.3820   22.3400 N.3   184  PHE184     -0.1241
     52  CA        29.0900  100.5280   23.0910 C.3   184  PHE184      0.1605
     53  C         28.3900   99.2890   23.6470 C.2   184  PHE184      0.2264
     54  O         28.9650   98.1970   23.6500 O.2   184  PHE184     -0.2867
     55  CB        29.7940  101.3130   24.2040 C.3   184  PHE184      0.0534
     56  CG        31.0290  100.6400   24.7280 C.ar  184  PHE184     -0.0203
     57  CD1       32.2750  100.9000   24.1640 C.ar  184  PHE184     -0.0042
     58  CD2       30.9470   99.7370   25.7800 C.ar  184  PHE184     -0.0042
     59  CE1       33.4210  100.2700   24.6460 C.ar  184  PHE184     -0.0003
     60  CE2       32.0860   99.1030   26.2650 C.ar  184  PHE184     -0.0003
     61  CZ        33.3240   99.3720   25.7010 C.ar  184  PHE184     -0.0000
     62  N         43.5880   89.3520   18.0760 N.3   219  ASN219     -0.1240
     63  CA        44.5800   90.4190   18.1480 C.3   219  ASN219      0.1653
     64  C         44.9080   90.6940   19.6100 C.2   219  ASN219      0.2266
     65  O         44.0120   90.8000   20.4630 O.2   219  ASN219     -0.2867
     66  CB        44.0940   91.7070   17.4640 C.3   219  ASN219      0.1155
     67  CG        42.7930   92.2240   18.0470 C.2   219  ASN219      0.2627
     68  OD1       41.7200   91.6570   17.8150 O.2   219  ASN219     -0.2716
     69  ND2       42.8770   93.3110   18.8070 N.am  219  ASN219     -0.0877
     70  N         47.3340   93.1420   22.2010 N.3   221  THR221     -0.1218
     71  CA        48.1640   94.3210   22.3510 C.3   221  THR221      0.1862
     72  C         48.5620   94.4800   23.8110 C.2   221  THR221      0.2287
     73  O         47.7410   94.9080   24.6300 O.2   221  THR221     -0.2866
     74  CB        47.3860   95.5870   21.9260 C.3   221  THR221      0.1770
     75  OG1       47.0030   95.4750   20.5480 O.3   221  THR221     -0.2211
     76  CG2       48.2400   96.8350   22.1130 C.3   221  THR221      0.0375
     77  N         43.0560   98.8140   30.3110 N.3   239  LEU239     -0.1245
     78  CA        43.0810   98.8470   28.8540 C.3   239  LEU239      0.1561
     79  C         43.5470   97.5050   28.3150 C.2   239  LEU239      0.2260
     80  O         43.0650   97.0300   27.2770 O.2   239  LEU239     -0.2867
     81  CB        43.9810   99.9640   28.3350 C.3   239  LEU239      0.0270
     82  CG        43.3430  101.3450   28.3560 C.3   239  LEU239      0.0019
     83  CD1       44.0860  102.2880   27.4150 C.3   239  LEU239      0.0001
     84  CD2       41.8760  101.2350   27.9770 C.3   239  LEU239      0.0001
     85  N         40.6370   95.2100   28.4660 N.3   242  TYR242     -0.1227
     86  CA        39.6670   95.7070   27.4910 C.3   242  TYR242      0.1736
     87  C         39.8600   95.0280   26.1400 C.2   242  TYR242      0.2595
     88  O         38.8870   94.6580   25.4650 O.2   242  TYR242     -0.2718
     89  CB        39.8450   97.2290   27.3960 C.3   242  TYR242      0.0548
     90  CG        39.2340   97.9580   26.2230 C.ar  242  TYR242     -0.0200
     91  CD1       37.8730   97.8760   25.9420 C.ar  242  TYR242     -0.0009
     92  CD2       40.0190   98.7930   25.4380 C.ar  242  TYR242     -0.0009
     93  CE1       37.3230   98.5800   24.8780 C.ar  242  TYR242      0.0417
     94  CE2       39.4830   99.5110   24.3880 C.ar  242  TYR242      0.0417
     95  CZ        38.1360   99.4030   24.1120 C.ar  242  TYR242      0.1957
     96  OH        37.6140  100.1200   23.0590 O.3   242  TYR242     -0.2866
     97  N         41.1200   94.8270   25.7660 N.am  243  ILE243     -0.1980
     98  CA        41.4480   94.1990   24.4830 C.3   243  ILE243      0.1595
     99  C         41.7620   92.7040   24.5680 C.2   243  ILE243      0.2287
    100  O         41.2470   91.9070   23.7730 O.2   243  ILE243     -0.2864
    101  CB        42.6260   94.9150   23.8080 C.3   243  ILE243      0.0276
    102  CG1       42.2810   96.3970   23.6210 C.3   243  ILE243      0.0022
    103  CG2       42.9740   94.2330   22.4700 C.3   243  ILE243      0.0022
    104  CD1       43.2920   97.1540   22.8140 C.3   243  ILE243      0.0001
    105  N         31.5170   97.6280   33.2530 N.3   264  TYR264     -0.1241
    106  CA        30.5480   97.6390   32.1640 C.3   264  TYR264      0.1605
    107  C         29.1290   97.5770   32.6990 C.2   264  TYR264      0.2264
    108  O         28.2480   98.3300   32.2670 O.2   264  TYR264     -0.2867
    109  CB        30.7820   96.4350   31.2510 C.3   264  TYR264      0.0534
    110  CG        31.9920   96.5530   30.3580 C.ar  264  TYR264     -0.0201
    111  CD1       32.4770   97.8010   29.9660 C.ar  264  TYR264     -0.0009
    112  CD2       32.6520   95.4190   29.9040 C.ar  264  TYR264     -0.0009
    113  CE1       33.5840   97.9110   29.1350 C.ar  264  TYR264      0.0417
    114  CE2       33.7570   95.5160   29.0680 C.ar  264  TYR264      0.0417
    115  CZ        34.2180   96.7650   28.6920 C.ar  264  TYR264      0.1957
    116  OH        35.3210   96.8790   27.8680 O.3   264  TYR264     -0.2866
    117  N         51.0270   93.2640   16.4380 N.3   293  TYR293     -0.1227
    118  CA        51.5840   94.3680   15.6650 C.3   293  TYR293      0.1736
    119  C         52.3880   95.3430   16.5160 C.2   293  TYR293      0.2596
    120  O         53.4700   95.7710   16.1090 O.2   293  TYR293     -0.2718
    121  CB        50.4770   95.1160   14.9130 C.3   293  TYR293      0.0548
    122  CG        49.8830   94.2970   13.8010 C.ar  293  TYR293     -0.0200
    123  CD1       50.4320   94.3240   12.5250 C.ar  293  TYR293     -0.0009
    124  CD2       48.8050   93.4520   14.0380 C.ar  293  TYR293     -0.0009
    125  CE1       49.8950   93.5570   11.4980 C.ar  293  TYR293      0.0417
    126  CE2       48.2740   92.6830   13.0290 C.ar  293  TYR293      0.0417
    127  CZ        48.8230   92.7370   11.7650 C.ar  293  TYR293      0.1957
    128  OH        48.2790   91.9830   10.7580 O.3   293  TYR293     -0.2866
    129  N         51.8600   95.7070   17.6870 N.am  294  SER294     -0.1938
    130  CA        52.4810   96.7480   18.5150 C.3   294  SER294      0.2055
    131  C         52.0250   96.6300   19.9710 C.2   294  SER294      0.2643
    132  O         51.2780   95.7170   20.3290 O.2   294  SER294     -0.2714
    133  CB        52.1130   98.1370   17.9700 C.3   294  SER294      0.2130
    134  OG        53.0960   99.1300   18.2610 O.3   294  SER294     -0.2179
    135  N         52.4850   97.5580   20.8040 N.am  295  ARG295     -0.1963
    136  CA        52.0200   97.6480   22.1880 C.3   295  ARG295      0.1729
    137  C         51.2500   98.9490   22.3590 C.2   295  ARG295      0.2616
    138  O         51.1770   99.7580   21.4310 O.2   295  ARG295     -0.2715
    139  CB        53.2050   97.6560   23.1470 C.3   295  ARG295      0.0348
    140  CG        54.0720   98.8930   23.0010 C.3   295  ARG295      0.0492
    141  CD        55.0020   99.0860   24.2060 C.3   295  ARG295      0.2205
    142  NE        55.9290  100.2100   24.0250 N.pl3 295  ARG295     -0.0865
    143  CZ        56.8230  100.6000   24.9280 C.cat 295  ARG295      0.5346
    144  NH1       57.6240  101.6330   24.6750 N.pl3 295  ARG295      0.1354
    145  NH2       56.9260   99.9600   26.0870 N.pl3 295  ARG295      0.1354
    146  N         50.6730   99.1540   23.5390 N.am  296  MET296     -0.1977
    147  CA        50.1990  100.4870   23.9100 C.3   296  MET296      0.1605
    148  C         50.8010  100.9080   25.2390 C.2   296  MET296      0.2287
    149  O         50.9520  100.0910   26.1460 O.2   296  MET296     -0.2864
    150  CB        48.6660  100.5790   23.9320 C.3   296  MET296      0.0413
    151  CG        47.9640   99.6160   24.8720 C.3   296  MET296      0.0598
    152  SD        46.1780   99.5150   24.5560 S.3   296  MET296     -0.1393
    153  CE        45.7900   97.9180   25.2910 C.3   296  MET296      0.0692
    154  N         36.6450  108.7620   30.2120 N.3   305  ASN305     -0.1225
    155  CA        36.2860  107.4230   29.7450 C.3   305  ASN305      0.1785
    156  C         36.2530  106.4630   30.9370 C.2   305  ASN305      0.2597
    157  O         36.8280  106.7550   31.9860 O.2   305  ASN305     -0.2718
    158  CB        37.1600  106.9120   28.5800 C.3   305  ASN305      0.1169
    159  CG        38.4860  106.3120   29.0340 C.2   305  ASN305      0.2627
    160  OD1       38.5220  105.2770   29.6970 O.2   305  ASN305     -0.2716
    161  ND2       39.5860  106.9360   28.6290 N.am  305  ASN305     -0.0877
    162  N         35.5830  105.3260   30.7650 N.am  306  LEU306     -0.1966
    163  CA        35.3140  104.3940   31.8620 C.3   306  LEU306      0.1728
    164  C         36.5530  103.8220   32.5590 C.2   306  LEU306      0.2616
    165  O         36.4660  103.3650   33.6940 O.2   306  LEU306     -0.2715
    166  CB        34.4390  103.2370   31.3760 C.3   306  LEU306      0.0311
    167  CG        33.0750  103.5490   30.7710 C.3   306  LEU306      0.0022
    168  CD1       32.1700  102.3310   30.8180 C.3   306  LEU306      0.0001
    169  CD2       32.4210  104.7360   31.4610 C.3   306  LEU306      0.0001
    170  N         37.6950  103.8340   31.8790 N.am  307  PHE307     -0.1974
    171  CA        38.8990  103.1940   32.4000 C.3   307  PHE307      0.1639
    172  C         39.8780  104.1980   32.9820 C.2   307  PHE307      0.2290
    173  O         40.9710  103.8150   33.3960 O.2   307  PHE307     -0.2864
    174  CB        39.6010  102.4110   31.2890 C.3   307  PHE307      0.0560
    175  CG        38.7120  101.4250   30.5830 C.ar  307  PHE307     -0.0200
    176  CD1       37.9300  100.5330   31.3030 C.ar  307  PHE307     -0.0042
    177  CD2       38.6570  101.3910   29.1970 C.ar  307  PHE307     -0.0042
    178  CE1       37.1050   99.6240   30.6470 C.ar  307  PHE307     -0.0003
    179  CE2       37.8420  100.4810   28.5410 C.ar  307  PHE307     -0.0003
    180  CZ        37.0630   99.5990   29.2720 C.ar  307  PHE307     -0.0000
    181  N         41.8980  106.0610   31.5780 N.3   309  ALA309     -0.1231
    182  CA        43.1840  105.7630   30.9740 C.3   309  ALA309      0.1694
    183  C         43.2680  106.4100   29.6040 C.2   309  ALA309      0.2592
    184  O         42.2590  106.5340   28.9100 O.2   309  ALA309     -0.2718
    185  CB        43.3670  104.2680   30.8540 C.3   309  ALA309      0.0304
    186  N         44.4670  106.8270   29.2130 N.am  310  GLU310     -0.1966
    187  CA        44.6820  107.2650   27.8450 C.3   310  GLU310      0.1733
    188  C         46.0200  106.7530   27.3320 C.2   310  GLU310      0.2616
    189  O         46.9620  106.5490   28.1040 O.2   310  GLU310     -0.2715
    190  CB        44.5730  108.7840   27.6990 C.3   310  GLU310      0.0429
    191  CG        45.7780  109.5640   28.1690 C.3   310  GLU310      0.1163
    192  CD        45.7480  111.0000   27.6770 C.2   310  GLU310      0.3649
    193  OE1       44.6370  111.5380   27.4830 O.co2 310  GLU310     -0.2457
    194  OE2       46.8310  111.5860   27.4680 O.co2 310  GLU310     -0.2457
    195  N         46.0860  106.5240   26.0240 N.am  311  VAL311     -0.1977
    196  CA        47.2770  105.9600   25.4100 C.3   311  VAL311      0.1596
    197  C         48.2740  107.0650   25.0360 C.2   311  VAL311      0.2287
    198  O         47.8950  108.1320   24.5510 O.2   311  VAL311     -0.2864
    199  CB        46.9200  105.0630   24.2030 C.3   311  VAL311      0.0276
    200  CG1       45.9290  103.9840   24.6210 C.3   311  VAL311      0.0022
    201  CG2       46.3090  105.8790   23.1020 C.3   311  VAL311      0.0022
    202  N         52.0450  103.1690   14.1540 N.3   324  TRP324     -0.1241
    203  CA        52.2490  102.1980   15.2340 C.3   324  TRP324      0.1605
    204  C         53.7080  102.1420   15.6620 C.2   324  TRP324      0.2264
    205  O         54.5960  102.1280   14.8140 O.2   324  TRP324     -0.2867
    206  CB        51.8070  100.8030   14.7900 C.3   324  TRP324      0.0550
    207  CG        50.3640  100.7290   14.4050 C.ar  324  TRP324      0.0003
    208  CD1       49.3920  101.6510   14.6780 C.ar  324  TRP324      0.0946
    209  CD2       49.7250   99.6770   13.6610 C.ar  324  TRP324      0.0152
    210  NE1       48.1900  101.2350   14.1550 N.ar  324  TRP324     -0.2442
    211  CE2       48.3650  100.0310   13.5280 C.ar  324  TRP324      0.0810
    212  CE3       50.1720   98.4820   13.0910 C.ar  324  TRP324      0.0012
    213  CZ2       47.4430   99.2190   12.8530 C.ar  324  TRP324      0.0191
    214  CZ3       49.2500   97.6710   12.4230 C.ar  324  TRP324      0.0001
    215  CH2       47.9050   98.0500   12.3070 C.ar  324  TRP324      0.0015
@<TRIPOS>BOND
     1   128   127    1
     2   125   127   ar
     3   125   123   ar
     4   127   126   ar
     5   215   214   ar
     6   215   213   ar
     7   214   212   ar
     8   123   122   ar
     9   213   211   ar
    10   126   124   ar
    11   212   209   ar
    12   211   209   ar
    13   211   210   ar
    14     8     7   ar
    15   209   207   ar
    16     9     7   ar
    17   122   124   ar
    18   122   121    1
    19     7     6    1
    20    29    28    1
    21    34    33    2
    22   202   203    1
    23   210   208   ar
    24   207   208   ar
    25   207   206    1
    26     6     5    1
    27    33    32    1
    28    35    36    1
    29    35    32    1
    30   206   203    1
    31   205   204    2
    32   121   118    1
    33     5     2    1
    34     1     2    1
    35    28    30    1
    36    28    25    1
    37    43    42    2
    38   203   204    1
    39    38    37   ar
    40    36    37    1
    41    27    26    2
    42    32    31    1
    43    26    25    1
    44   118   117    1
    45   118   119    1
    46    42    41    1
    47     4     3    2
    48    37    39   ar
    49     2     3    1
    50   120   119    2
    51    25    24    1
    52   119   129   am
    53    41    44    1
    54    41    40    1
    55    24    12   am
    56    44    45    1
    57    66    67    1
    58    66    63    1
    59   129   130    1
    60    68    67    2
    61   133   134    1
    62   133   130    1
    63    67    69   am
    64    62    63    1
    65    63    64    1
    66    12    13    2
    67    12    11    1
    68   130   131    1
    69    45    47   ar
    70    45    46   ar
    71    22    20   ar
    72    22    23   ar
    73    10    11    1
    74    47    49   ar
    75    20    17   ar
    76    11    14    1
    77    64    65    2
    78    46    48   ar
    79    23    21   ar
    80   131   132    2
    81   131   135   am
    82    14    15    1
    83    49    50   ar
    84    17    15   ar
    85    17    19   ar
    86    75    74    1
    87   135   136    1
    88    15    16   ar
    89    48    50   ar
    90    21    19   ar
    91    19    18   ar
    92   138   137    2
    93    74    76    1
    94    74    71    1
    95   136   137    1
    96   136   139    1
    97    70    71    1
    98    16    18   ar
    99    51    52    1
   100    71    72    1
   101   137   146   am
   102   103   101    1
   103   104   102    1
   104   140   139    1
   105   140   141    1
   106    96    95    1
   107    52    53    1
   108    52    55    1
   109   201   199    1
   110   146   147    1
   111   102   101    1
   112    53    54    2
   113   100    99    2
   114   101    98    1
   115    72    73    2
   116   147   150    1
   117   147   148    1
   118   150   151    1
   119   142   141    1
   120   142   143    2
   121    95    94   ar
   122    95    93   ar
   123    57    59   ar
   124    57    56   ar
   125   199   200    1
   126   199   196    1
   127    55    56    1
   128    94    92   ar
   129    98    99    1
   130    98    97    1
   131   198   197    2
   132   152   151    1
   133   152   153    1
   134    59    61   ar
   135   144   143    1
   136    56    58   ar
   137    93    91   ar
   138   143   145    1
   139   197   196    1
   140   148   149    2
   141   196   195    1
   142    92    90   ar
   143    88    87    2
   144    61    60   ar
   145    97    87   am
   146    58    60   ar
   147    91    90   ar
   148   195   188   am
   149    87    86    1
   150    90    89    1
   151    80    79    2
   152   188   187    1
   153   188   189    2
   154    89    86    1
   155    83    82    1
   156   194   192   ar
   157   193   192   ar
   158    86    85    1
   159   192   191    1
   160   190   187    1
   161   190   191    1
   162   187   186    1
   163   116   115    1
   164    84    82    1
   165    79    78    1
   166    81    82    1
   167    81    78    1
   168   179   177   ar
   169   179   180   ar
   170   158   159    1
   171   158   155    1
   172   161   159   am
   173   115   114   ar
   174   115   113   ar
   175    78    77    1
   176   184   183    2
   177   159   160    2
   178   114   112   ar
   179   113   111   ar
   180   177   175   ar
   181   186   183   am
   182   180   178   ar
   183   183   182    1
   184   155   154    1
   185   155   156    1
   186   112   110   ar
   187   111   110   ar
   188   110   109    1
   189   175   174    1
   190   175   176   ar
   191   178   176   ar
   192   162   156   am
   193   162   163    1
   194   167   168    1
   195   167   166    1
   196   167   169    1
   197   185   182    1
   198   156   157    2
   199   182   181    1
   200   109   106    1
   201   174   171    1
   202   166   163    1
   203   163   164    1
   204   170   171    1
   205   170   164   am
   206   106   107    1
   207   106   105    1
   208   108   107    2
   209   171   172    1
   210   164   165    2
   211   172   173    2
