@<TRIPOS>MOLECULE
tmp/4ptvB00.pdb
 192 191 0 0 0
SMALL
GASTEIGER

@<TRIPOS>ATOM
      1  N         39.5250   91.6200    1.3550 N.3    17  GLN17      -0.1245
      2  CA        40.6890   92.4700    1.1060 C.3    17  GLN17       0.1566
      3  C         41.3960   92.1920   -0.2100 C.2    17  GLN17       0.2260
      4  O         42.0440   93.0800   -0.7600 O.2    17  GLN17      -0.2867
      5  CB        41.6860   92.4070    2.2710 C.3    17  GLN17       0.0367
      6  CG        41.1120   92.9690    3.5730 C.3    17  GLN17       0.0905
      7  CD        42.0880   92.9000    4.7410 C.2    17  GLN17       0.2608
      8  OE1       42.1140   91.9200    5.4850 O.2    17  GLN17      -0.2717
      9  NE2       42.8970   93.9460    4.9070 N.am   17  GLN17      -0.0878
     10  N         36.3410   86.3590    8.6460 N.3   118  HIS118     -0.1226
     11  CA        37.2400   87.5110    8.6680 C.3   118  HIS118      0.1752
     12  C         36.4610   88.7380    8.1810 C.2   118  HIS118      0.2596
     13  O         36.8620   89.4230    7.2330 O.2   118  HIS118     -0.2718
     14  CB        38.4400   87.2260    7.7730 C.3   118  HIS118      0.0759
     15  CG        39.6520   88.0440    8.0790 C.ar  118  HIS118      0.0818
     16  ND1       40.8910   87.4760    8.2750 N.ar  118  HIS118     -0.2268
     17  CD2       39.8280   89.3850    8.1660 C.ar  118  HIS118      0.1154
     18  CE1       41.7790   88.4340    8.4840 C.ar  118  HIS118      0.1986
     19  NE2       41.1590   89.5980    8.4210 N.ar  118  HIS118     -0.2212
     20  N         35.3060   88.9540    8.8180 N.am  119  TRP119     -0.1976
     21  CA        34.6040   90.2460    8.8680 C.3   119  TRP119      0.1640
     22  C         33.5210   90.5000    7.8190 C.2   119  TRP119      0.2290
     23  O         32.8080   91.5150    7.9110 O.2   119  TRP119     -0.2864
     24  CB        35.5780   91.4410    8.8780 C.3   119  TRP119      0.0576
     25  CG        36.6810   91.3880    9.9200 C.ar  119  TRP119      0.0006
     26  CD1       36.8930   90.4140   10.8720 C.ar  119  TRP119      0.0946
     27  CD2       37.7180   92.3630   10.1070 C.ar  119  TRP119      0.0152
     28  NE1       38.0000   90.7380   11.6360 N.ar  119  TRP119     -0.2442
     29  CE2       38.5270   91.9190   11.1800 C.ar  119  TRP119      0.0810
     30  CE3       38.0440   93.5600    9.4660 C.ar  119  TRP119      0.0012
     31  CZ2       39.6450   92.6450   11.6270 C.ar  119  TRP119      0.0191
     32  CZ3       39.1530   94.2830    9.9160 C.ar  119  TRP119      0.0001
     33  CH2       39.9410   93.8190   10.9790 C.ar  119  TRP119      0.0015
     34  N         38.4750   85.7220   13.2510 N.3   162  ASN162     -0.1225
     35  CA        39.6330   86.6200   13.2620 C.3   162  ASN162      0.1785
     36  C         39.3140   87.8940   14.0290 C.2   162  ASN162      0.2597
     37  O         38.3660   88.6140   13.6760 O.2   162  ASN162     -0.2718
     38  CB        40.0350   87.0000   11.8280 C.3   162  ASN162      0.1169
     39  CG        41.2570   87.9250   11.7820 C.2   162  ASN162      0.2627
     40  OD1       42.3950   87.4790   11.9620 O.2   162  ASN162     -0.2716
     41  ND2       41.0240   89.2150   11.5120 N.am  162  ASN162     -0.0877
     42  N         40.0970   88.1690   15.0730 N.am  163  GLU163     -0.1979
     43  CA        39.9970   89.4130   15.8340 C.3   163  GLU163      0.1602
     44  C         38.5630   89.8210   16.1960 C.2   163  GLU163      0.2287
     45  O         38.0810   90.8440   15.7210 O.2   163  GLU163     -0.2864
     46  CB        40.7020   90.5520   15.0660 C.3   163  GLU163      0.0415
     47  CG        42.1350   90.1730   14.6560 C.3   163  GLU163      0.1163
     48  CD        42.8980   91.2910   13.9580 C.2   163  GLU163      0.3649
     49  OE1       44.1000   91.0990   13.6530 O.co2 163  GLU163     -0.2457
     50  OE2       42.3090   92.3580   13.7060 O.co2 163  GLU163     -0.2457
     51  N         38.0100   93.4880   17.2870 N.3   166  VAL166     -0.1245
     52  CA        37.8880   94.4960   16.2350 C.3   166  VAL166      0.1561
     53  C         36.4780   94.4990   15.6400 C.2   166  VAL166      0.2260
     54  O         35.8510   95.5620   15.4550 O.2   166  VAL166     -0.2867
     55  CB        38.9310   94.2650   15.1130 C.3   166  VAL166      0.0252
     56  CG1       38.7020   95.2550   13.9650 C.3   166  VAL166      0.0019
     57  CG2       40.3580   94.4030   15.6630 C.3   166  VAL166      0.0019
     58  N         35.2860   98.0330   16.7390 N.3   170  GLU170     -0.1245
     59  CA        35.4260   98.8920   15.5570 C.3   170  GLU170      0.1567
     60  C         34.1710   98.9090   14.6760 C.2   170  GLU170      0.2260
     61  O         33.8160   99.9470   14.0990 O.2   170  GLU170     -0.2867
     62  CB        36.6730   98.5320   14.7420 C.3   170  GLU170      0.0388
     63  CG        38.0050   98.8920   15.4150 C.3   170  GLU170      0.1160
     64  CD        38.1250  100.3710   15.7840 C.2   170  GLU170      0.3649
     65  OE1       37.3740  101.2160   15.2450 O.co2 170  GLU170     -0.2457
     66  OE2       38.9830  100.6960   16.6340 O.co2 170  GLU170     -0.2457
     67  N         34.3920  100.4790   11.2310 N.3   177  HIS177     -0.1241
     68  CA        34.2520   99.3270   10.3510 C.3   177  HIS177      0.1621
     69  C         32.7750   98.9610   10.1300 C.2   177  HIS177      0.2264
     70  O         31.9070   99.3620   10.9060 O.2   177  HIS177     -0.2867
     71  CB        34.9590   98.1120   10.9680 C.3   177  HIS177      0.0745
     72  CG        36.4520   98.1690   10.8930 C.ar  177  HIS177      0.0817
     73  ND1       37.2530   97.1590   11.3790 N.ar  177  HIS177     -0.2268
     74  CD2       37.2910   99.1050   10.3840 C.ar  177  HIS177      0.1154
     75  CE1       38.5230   97.4680   11.1740 C.ar  177  HIS177      0.1986
     76  NE2       38.5740   98.6390   10.5640 N.ar  177  HIS177     -0.2212
     77  N         43.5880   89.3520   18.0760 N.3   219  ASN219     -0.1240
     78  CA        44.5800   90.4190   18.1480 C.3   219  ASN219      0.1653
     79  C         44.9080   90.6940   19.6100 C.2   219  ASN219      0.2266
     80  O         44.0120   90.8000   20.4630 O.2   219  ASN219     -0.2867
     81  CB        44.0940   91.7070   17.4640 C.3   219  ASN219      0.1155
     82  CG        42.7930   92.2240   18.0470 C.2   219  ASN219      0.2627
     83  OD1       41.7200   91.6570   17.8150 O.2   219  ASN219     -0.2716
     84  ND2       42.8770   93.3110   18.8070 N.am  219  ASN219     -0.0877
     85  N         51.0270   93.2640   16.4380 N.3   293  TYR293     -0.1241
     86  CA        51.5840   94.3680   15.6650 C.3   293  TYR293      0.1605
     87  C         52.3880   95.3430   16.5160 C.2   293  TYR293      0.2264
     88  O         53.4700   95.7710   16.1090 O.2   293  TYR293     -0.2867
     89  CB        50.4770   95.1160   14.9130 C.3   293  TYR293      0.0534
     90  CG        49.8830   94.2970   13.8010 C.ar  293  TYR293     -0.0201
     91  CD1       50.4320   94.3240   12.5250 C.ar  293  TYR293     -0.0009
     92  CD2       48.8050   93.4520   14.0380 C.ar  293  TYR293     -0.0009
     93  CE1       49.8950   93.5570   11.4980 C.ar  293  TYR293      0.0417
     94  CE2       48.2740   92.6830   13.0290 C.ar  293  TYR293      0.0417
     95  CZ        48.8230   92.7370   11.7650 C.ar  293  TYR293      0.1957
     96  OH        48.2790   91.9830   10.7580 O.3   293  TYR293     -0.2866
     97  N         51.3820  103.2890    9.6930 N.3   322  MET322     -0.1245
     98  CA        50.1400  103.3270   10.4640 C.3   322  MET322      0.1570
     99  C         50.2440  104.2750   11.6520 C.2   322  MET322      0.2261
    100  O         49.2300  104.6340   12.2500 O.2   322  MET322     -0.2867
    101  CB        49.7640  101.9300   10.9830 C.3   322  MET322      0.0387
    102  CG        49.5070  100.8880    9.9090 C.3   322  MET322      0.0595
    103  SD        48.2920  101.4570    8.7050 S.3   322  MET322     -0.1393
    104  CE        46.8440  101.6310    9.7490 C.3   322  MET322      0.0692
    105  N         52.0450  103.1690   14.1540 N.3   324  TRP324     -0.1241
    106  CA        52.2490  102.1980   15.2340 C.3   324  TRP324      0.1605
    107  C         53.7080  102.1420   15.6620 C.2   324  TRP324      0.2264
    108  O         54.5960  102.1280   14.8140 O.2   324  TRP324     -0.2867
    109  CB        51.8070  100.8030   14.7900 C.3   324  TRP324      0.0550
    110  CG        50.3640  100.7290   14.4050 C.ar  324  TRP324      0.0003
    111  CD1       49.3920  101.6510   14.6780 C.ar  324  TRP324      0.0946
    112  CD2       49.7250   99.6770   13.6610 C.ar  324  TRP324      0.0152
    113  NE1       48.1900  101.2350   14.1550 N.ar  324  TRP324     -0.2442
    114  CE2       48.3650  100.0310   13.5280 C.ar  324  TRP324      0.0810
    115  CE3       50.1720   98.4820   13.0910 C.ar  324  TRP324      0.0012
    116  CZ2       47.4430   99.2190   12.8530 C.ar  324  TRP324      0.0191
    117  CZ3       49.2500   97.6710   12.4230 C.ar  324  TRP324      0.0001
    118  CH2       47.9050   98.0500   12.3070 C.ar  324  TRP324      0.0015
    119  N         49.2650   86.4080   12.4220 N.3   351  GLU351     -0.1245
    120  CA        49.5800   87.6740   11.7390 C.3   351  GLU351      0.1567
    121  C         50.6720   88.4630   12.4500 C.2   351  GLU351      0.2260
    122  O         50.6010   88.6870   13.6650 O.2   351  GLU351     -0.2867
    123  CB        48.3580   88.5950   11.6690 C.3   351  GLU351      0.0388
    124  CG        47.2500   88.1760   10.7380 C.3   351  GLU351      0.1160
    125  CD        46.0670   89.1230   10.8090 C.2   351  GLU351      0.3649
    126  OE1       46.2510   90.2600   11.3150 O.co2 351  GLU351     -0.2457
    127  OE2       44.9630   88.7240   10.3660 O.co2 351  GLU351     -0.2457
    128  N         51.6280   89.0620    7.7870 N.3   398  TRP398     -0.1241
    129  CA        50.5850   89.8660    7.1390 C.3   398  TRP398      0.1605
    130  C         51.2720   90.9590    6.3380 C.2   398  TRP398      0.2264
    131  O         52.0080   91.7690    6.9180 O.2   398  TRP398     -0.2867
    132  CB        49.6190   90.4950    8.1540 C.3   398  TRP398      0.0550
    133  CG        48.5240   91.2580    7.4500 C.ar  398  TRP398      0.0003
    134  CD1       48.5410   92.5750    7.0850 C.ar  398  TRP398      0.0946
    135  CD2       47.2830   90.7250    6.9680 C.ar  398  TRP398      0.0152
    136  NE1       47.3820   92.8970    6.4160 N.ar  398  TRP398     -0.2442
    137  CE2       46.5910   91.7810    6.3360 C.ar  398  TRP398      0.0810
    138  CE3       46.6850   89.4620    7.0240 C.ar  398  TRP398      0.0012
    139  CZ2       45.3330   91.6070    5.7570 C.ar  398  TRP398      0.0191
    140  CZ3       45.4380   89.2920    6.4590 C.ar  398  TRP398      0.0001
    141  CH2       44.7710   90.3570    5.8350 C.ar  398  TRP398      0.0015
    142  N         43.0200   97.7510    2.7150 N.3   405  GLU405     -0.1231
    143  CA        43.1660   97.7880    4.1680 C.3   405  GLU405      0.1699
    144  C         42.0110   98.5290    4.8550 C.2   405  GLU405      0.2592
    145  O         42.2070   99.5390    5.5380 O.2   405  GLU405     -0.2718
    146  CB        44.5030   98.4140    4.5480 C.3   405  GLU405      0.0402
    147  CG        45.7030   97.5970    4.1070 C.3   405  GLU405      0.1161
    148  CD        45.8320   96.2620    4.8610 C.2   405  GLU405      0.3649
    149  OE1       45.0840   96.0370    5.8500 O.co2 405  GLU405     -0.2457
    150  OE2       46.6990   95.4420    4.4660 O.co2 405  GLU405     -0.2457
    151  N         40.8080   98.0060    4.6460 N.am  406  TRP406     -0.1962
    152  CA        39.6050   98.4610    5.3400 C.3   406  TRP406      0.1771
    153  C         39.3700   99.9590    5.1610 C.2   406  TRP406      0.2619
    154  O         39.2810  100.4140    4.0230 O.2   406  TRP406     -0.2715
    155  CB        39.6290   97.9950    6.7950 C.3   406  TRP406      0.0590
    156  CG        39.9270   96.4870    6.9060 C.ar  406  TRP406      0.0006
    157  CD1       41.0350   95.9130    7.4460 C.ar  406  TRP406      0.0946
    158  CD2       39.1060   95.4010    6.4270 C.ar  406  TRP406      0.0152
    159  NE1       40.9490   94.5350    7.3600 N.ar  406  TRP406     -0.2442
    160  CE2       39.7720   94.2010    6.7420 C.ar  406  TRP406      0.0810
    161  CE3       37.8610   95.3330    5.7880 C.ar  406  TRP406      0.0012
    162  CZ2       39.2330   92.9440    6.4410 C.ar  406  TRP406      0.0191
    163  CZ3       37.3340   94.0820    5.4730 C.ar  406  TRP406      0.0001
    164  CH2       38.0180   92.9080    5.7990 C.ar  406  TRP406      0.0015
    165  N         39.2750  100.7280    6.2450 N.am  407  ALA407     -0.1963
    166  CA        38.9220  102.1590    6.1100 C.3   407  ALA407      0.1728
    167  C         40.0350  103.0190    5.4860 C.2   407  ALA407      0.2616
    168  O         39.7880  104.1430    5.0300 O.2   407  ALA407     -0.2715
    169  CB        38.4650  102.7450    7.4400 C.3   407  ALA407      0.0334
    170  N         41.2500  102.4770    5.4850 N.am  408  TYR408     -0.1974
    171  CA        42.3980  103.0870    4.8230 C.3   408  TYR408      0.1639
    172  C         42.4510  102.8030    3.3220 C.2   408  TYR408      0.2290
    173  O         43.2250  103.4340    2.6010 O.2   408  TYR408     -0.2864
    174  CB        43.7010  102.6160    5.4800 C.3   408  TYR408      0.0560
    175  CG        43.8770  103.1430    6.8830 C.ar  408  TYR408     -0.0198
    176  CD1       44.3930  104.4200    7.1070 C.ar  408  TYR408     -0.0009
    177  CD2       43.5290  102.3710    7.9890 C.ar  408  TYR408     -0.0009
    178  CE1       44.5550  104.9100    8.3840 C.ar  408  TYR408      0.0417
    179  CE2       43.6740  102.8630    9.2750 C.ar  408  TYR408      0.0417
    180  CZ        44.1910  104.1260    9.4630 C.ar  408  TYR408      0.1957
    181  OH        44.3460  104.6160   10.7400 O.3   408  TYR408     -0.2866
    182  N         50.9190   96.4630    3.2550 N.3   414  PHE414     -0.1241
    183  CA        51.5380   95.5220    4.2030 C.3   414  PHE414      0.1605
    184  C         52.2060   94.3360    3.5020 C.2   414  PHE414      0.2264
    185  O         52.8170   93.4910    4.1570 O.2   414  PHE414     -0.2867
    186  CB        50.4730   94.9240    5.1420 C.3   414  PHE414      0.0534
    187  CG        50.0430   95.8370    6.2680 C.ar  414  PHE414     -0.0203
    188  CD1       50.5460   95.6490    7.5550 C.ar  414  PHE414     -0.0042
    189  CD2       49.1240   96.8630    6.0430 C.ar  414  PHE414     -0.0042
    190  CE1       50.1430   96.4880    8.6120 C.ar  414  PHE414     -0.0003
    191  CE2       48.7030   97.7030    7.0800 C.ar  414  PHE414     -0.0003
    192  CZ        49.2210   97.5210    8.3690 C.ar  414  PHE414     -0.0000
@<TRIPOS>BOND
     1     4     3    2
     2     3     2    1
     3     2     1    1
     4     2     5    1
     5     5     6    1
     6   173   172    2
     7   142   143    1
     8   182   183    1
     9   172   171    1
    10   184   185    2
    11   184   183    1
    12     6     7    1
    13   154   153    2
    14   147   146    1
    15   147   148    1
    16   143   146    1
    17   143   144    1
    18   183   186    1
    19   150   148   ar
    20   151   144   am
    21   151   152    1
    22     7     9   am
    23     7     8    2
    24   171   174    1
    25   171   170    1
    26   144   145    2
    27   148   149   ar
    28   168   167    2
    29   186   187    1
    30   153   152    1
    31   153   165   am
    32   152   155    1
    33   163   161   ar
    34   163   164   ar
    35   174   175    1
    36   170   167   am
    37   167   166    1
    38   139   141   ar
    39   139   137   ar
    40   161   158   ar
    41   164   162   ar
    42   141   140   ar
    43   189   187   ar
    44   189   191   ar
    45   166   165    1
    46   166   169    1
    47   187   188   ar
    48   137   136   ar
    49   137   135   ar
    50   130   131    2
    51   130   129    1
    52   136   134   ar
    53   158   160   ar
    54   158   156   ar
    55   162   160   ar
    56   140   138   ar
    57   160   159   ar
    58   155   156    1
    59   175   176   ar
    60   175   177   ar
    61   156   157   ar
    62   135   138   ar
    63   135   133   ar
    64   191   192   ar
    65   134   133   ar
    66   176   178   ar
    67   129   128    1
    68   129   132    1
    69    13    12    2
    70   159   157   ar
    71   133   132    1
    72   188   190   ar
    73    14    15    1
    74    14    11    1
    75    22    23    2
    76    22    21    1
    77   177   179   ar
    78    15    17   ar
    79    15    16   ar
    80    17    19   ar
    81    12    11    1
    82    12    20   am
    83    16    18   ar
    84   192   190   ar
    85   178   180   ar
    86    19    18   ar
    87    10    11    1
    88   103   104    1
    89   103   102    1
    90    20    21    1
    91    21    24    1
    92    24    25    1
    93   179   180   ar
    94   180   181    1
    95    30    32   ar
    96    30    27   ar
    97    97    98    1
    98   102   101    1
    99    32    33   ar
   100    25    27   ar
   101    25    26   ar
   102    27    29   ar
   103    69    68    1
   104    69    70    2
   105    68    71    1
   106    68    67    1
   107   127   125   ar
   108    74    76   ar
   109    74    72   ar
   110    98   101    1
   111    98    99    1
   112    76    75   ar
   113   124   125    1
   114   124   123    1
   115    96    95    1
   116   125   126   ar
   117    26    28   ar
   118    72    71    1
   119    72    73   ar
   120    33    31   ar
   121    75    73   ar
   122    29    31   ar
   123    29    28   ar
   124    93    95   ar
   125    93    91   ar
   126    41    39   am
   127    99   100    2
   128   123   120    1
   129   120   119    1
   130   120   121    1
   131    95    94   ar
   132    39    38    1
   133    39    40    2
   134    38    35    1
   135   118   117   ar
   136   118   116   ar
   137   117   115   ar
   138   121   122    2
   139    91    90   ar
   140   116   114   ar
   141    94    92   ar
   142   115   112   ar
   143    34    35    1
   144    35    36    1
   145   114   112   ar
   146   114   113   ar
   147    49    48   ar
   148   112   110   ar
   149    37    36    2
   150    50    48   ar
   151    90    92   ar
   152    90    89    1
   153    48    47    1
   154    56    55    1
   155    36    42   am
   156    61    60    2
   157   105   106    1
   158   113   111   ar
   159   110   111   ar
   160   110   109    1
   161    47    46    1
   162    60    59    1
   163    62    63    1
   164    62    59    1
   165   109   106    1
   166   108   107    2
   167    89    86    1
   168    46    43    1
   169    42    43    1
   170    55    57    1
   171    55    52    1
   172   106   107    1
   173    65    64   ar
   174    63    64    1
   175    54    53    2
   176    59    58    1
   177    53    52    1
   178    86    85    1
   179    86    87    1
   180    45    44    2
   181    64    66   ar
   182    43    44    1
   183    88    87    2
   184    52    51    1
   185    81    82    1
   186    81    78    1
   187    83    82    2
   188    82    84   am
   189    77    78    1
   190    78    79    1
   191    79    80    2
