@<TRIPOS>MOLECULE
tmp/4ptwA00.pdb
 133 135 0 0 0
SMALL
GASTEIGER

@<TRIPOS>ATOM
      1  N          7.9440  109.4070   23.9320 N.3    17  GLN17      -0.1245
      2  CA         8.2570  110.8060   24.1910 C.3    17  GLN17       0.1566
      3  C          7.7440  111.3060   25.5540 C.2    17  GLN17       0.2260
      4  O          8.2720  112.2880   26.0930 O.2    17  GLN17      -0.2867
      5  CB         7.7710  111.6740   23.0370 C.3    17  GLN17       0.0367
      6  CG         8.4950  111.3360   21.7260 C.3    17  GLN17       0.0905
      7  CD         7.9750  112.1280   20.5640 C.2    17  GLN17       0.2608
      8  OE1        7.0270  111.7210   19.9170 O.2    17  GLN17      -0.2717
      9  NE2        8.5880  113.2650   20.2930 N.am   17  GLN17      -0.0878
     10  N          4.4830  104.0830   16.8400 N.3   118  HIS118     -0.1226
     11  CA         5.1320  105.3740   16.7790 C.3   118  HIS118      0.1752
     12  C          6.5870  105.2120   17.2390 C.2   118  HIS118      0.2596
     13  O          7.0480  105.8990   18.1550 O.2   118  HIS118     -0.2718
     14  CB         4.3720  106.3800   17.6320 C.3   118  HIS118      0.0759
     15  CG         4.6650  107.8220   17.3230 C.ar  118  HIS118      0.0818
     16  ND1        3.6680  108.7670   17.2010 N.ar  118  HIS118     -0.2268
     17  CD2        5.8350  108.4960   17.2030 C.ar  118  HIS118      0.1154
     18  CE1        4.2100  109.9530   16.9820 C.ar  118  HIS118      0.1986
     19  NE2        5.5240  109.8180   16.9920 N.ar  118  HIS118     -0.2212
     20  N          7.2730  104.2680   16.5910 N.am  119  TRP119     -0.1976
     21  CA         8.7500  104.2010   16.4880 C.3   119  TRP119      0.1640
     22  C          9.4780  103.3330   17.5200 C.2   119  TRP119      0.2290
     23  O         10.6620  103.0340   17.3530 O.2   119  TRP119     -0.2864
     24  CB         9.4000  105.5920   16.4190 C.3   119  TRP119      0.0576
     25  CG         8.7990  106.5200   15.3880 C.ar  119  TRP119      0.0006
     26  CD1        7.7730  106.2490   14.5200 C.ar  119  TRP119      0.0946
     27  CD2        9.1820  107.8760   15.1400 C.ar  119  TRP119      0.0152
     28  NE1        7.5240  107.3450   13.7270 N.ar  119  TRP119     -0.2442
     29  CE2        8.3650  108.3620   14.1010 C.ar  119  TRP119      0.0810
     30  CE3       10.1470  108.7240   15.6880 C.ar  119  TRP119      0.0012
     31  CZ2        8.4830  109.6590   13.5990 C.ar  119  TRP119      0.0191
     32  CZ3       10.2600  110.0240   15.1870 C.ar  119  TRP119      0.0001
     33  CH2        9.4290  110.4730   14.1570 C.ar  119  TRP119      0.0015
     34  N          2.7840  105.6660   12.3400 N.3   162  ASN162     -0.1225
     35  CA         3.1090  107.0840   12.2760 C.3   162  ASN162      0.1785
     36  C          4.3920  107.3240   11.4700 C.2   162  ASN162      0.2597
     37  O          5.4810  106.8760   11.8590 O.2   162  ASN162     -0.2718
     38  CB         3.2810  107.6540   13.6900 C.3   162  ASN162      0.1169
     39  CG         3.6030  109.1440   13.6860 C.2   162  ASN162      0.2627
     40  OD1        2.7040  109.9760   13.5450 O.2   162  ASN162     -0.2716
     41  ND2        4.8940  109.4890   13.8350 N.am  162  ASN162     -0.0877
     42  N          4.2550  108.0330   10.3510 N.am  163  GLU163     -0.1979
     43  CA         5.3990  108.5150    9.5740 C.3   163  GLU163      0.1602
     44  C          6.3850  107.4210    9.1590 C.2   163  GLU163      0.2287
     45  O          7.5540  107.4460    9.5630 O.2   163  GLU163     -0.2864
     46  CB         6.1340  109.6280   10.3430 C.3   163  GLU163      0.0415
     47  CG         5.2250  110.7930   10.7450 C.3   163  GLU163      0.1163
     48  CD         5.9710  112.0060   11.2950 C.2   163  GLU163      0.3649
     49  OE1        5.3700  113.1040   11.3260 O.co2 163  GLU163     -0.2457
     50  OE2        7.1420  111.8820   11.7010 O.co2 163  GLU163     -0.2457
     51  N          4.2970  120.1640    8.8640 N.3   293  TYR293     -0.1241
     52  CA         5.0630  121.2010    9.5660 C.3   293  TYR293      0.1605
     53  C          5.6410  122.2800    8.6480 C.2   293  TYR293      0.2264
     54  O          5.6990  123.4540    9.0090 O.2   293  TYR293     -0.2867
     55  CB         6.1870  120.5880   10.4020 C.3   293  TYR293      0.0534
     56  CG         5.6790  119.7400   11.5450 C.ar  293  TYR293     -0.0201
     57  CD1        5.3590  120.3070   12.7730 C.ar  293  TYR293     -0.0009
     58  CD2        5.5210  118.3720   11.3940 C.ar  293  TYR293     -0.0009
     59  CE1        4.8990  119.5230   13.8230 C.ar  293  TYR293      0.0417
     60  CE2        5.0540  117.5880   12.4340 C.ar  293  TYR293      0.0417
     61  CZ         4.7480  118.1680   13.6430 C.ar  293  TYR293      0.1957
     62  OH         4.2790  117.3780   14.6740 O.3   293  TYR293     -0.2866
     63  N         12.9390  125.1090   10.7740 N.3   324  TRP324     -0.1241
     64  CA        11.9730  124.8580    9.7170 C.3   324  TRP324      0.1605
     65  C         11.2330  126.1290    9.3120 C.2   324  TRP324      0.2264
     66  O         10.7460  126.8710   10.1660 O.2   324  TRP324     -0.2867
     67  CB        10.9280  123.8440   10.1860 C.3   324  TRP324      0.0550
     68  CG        11.4640  122.5410   10.6590 C.ar  324  TRP324      0.0003
     69  CD1       12.6860  122.0020   10.3860 C.ar  324  TRP324      0.0946
     70  CD2       10.7850  121.5990   11.4960 C.ar  324  TRP324      0.0152
     71  NE1       12.8110  120.7800   11.0030 N.ar  324  TRP324     -0.2442
     72  CE2       11.6590  120.5100   11.6940 C.ar  324  TRP324      0.0810
     73  CE3        9.5220  121.5710   12.0980 C.ar  324  TRP324      0.0012
     74  CZ2       11.3120  119.4040   12.4670 C.ar  324  TRP324      0.0191
     75  CZ3        9.1790  120.4700   12.8730 C.ar  324  TRP324      0.0001
     76  CH2       10.0710  119.4020   13.0470 C.ar  324  TRP324      0.0015
     77  N         -0.9540  115.6800   13.2230 N.3   351  GLU351     -0.1245
     78  CA         0.0850  116.4790   13.8930 C.3   351  GLU351      0.1567
     79  C          0.2850  117.7720   13.1290 C.2   351  GLU351      0.2260
     80  O          0.3570  117.7660   11.8970 O.2   351  GLU351     -0.2867
     81  CB         1.4560  115.7760   13.9400 C.3   351  GLU351      0.0388
     82  CG         1.6040  114.6400   14.9250 C.3   351  GLU351      0.1160
     83  CD         2.9980  113.9730   14.9110 C.2   351  GLU351      0.3649
     84  OE1        4.0550  114.6250   14.6120 O.co2 351  GLU351     -0.2457
     85  OE2        3.0110  112.7570   15.2110 O.co2 351  GLU351     -0.2457
     86  N          0.3490  119.0260   17.7050 N.3   398  TRP398     -0.1241
     87  CA         1.5410  118.4610   18.3210 C.3   398  TRP398      0.1605
     88  C          2.2080  119.6090   19.0880 C.2   398  TRP398      0.2264
     89  O          2.6430  120.5840   18.4620 O.2   398  TRP398     -0.2867
     90  CB         2.5220  117.8880   17.2760 C.3   398  TRP398      0.0550
     91  CG         3.6700  117.2600   17.9820 C.ar  398  TRP398      0.0003
     92  CD1        4.8410  117.8610   18.3630 C.ar  398  TRP398      0.0946
     93  CD2        3.7120  115.9290   18.4950 C.ar  398  TRP398      0.0152
     94  NE1        5.6300  116.9610   19.0540 N.ar  398  TRP398     -0.2442
     95  CE2        4.9540  115.7700   19.1530 C.ar  398  TRP398      0.0810
     96  CE3        2.8260  114.8430   18.4410 C.ar  398  TRP398      0.0012
     97  CZ2        5.3280  114.5730   19.7650 C.ar  398  TRP398      0.0191
     98  CZ3        3.1950  113.6560   19.0460 C.ar  398  TRP398      0.0001
     99  CH2        4.4400  113.5270   19.7010 C.ar  398  TRP398      0.0015
    100  N         12.1110  115.2740   22.4250 N.3   405  GLU405     -0.1231
    101  CA        12.0890  115.5090   20.9780 C.3   405  GLU405      0.1699
    102  C         13.1870  114.7090   20.2680 C.2   405  GLU405      0.2592
    103  O         14.1010  115.2700   19.6570 O.2   405  GLU405     -0.2718
    104  CB        12.1800  117.0160   20.6700 C.3   405  GLU405      0.0402
    105  CG        12.1050  117.4140   19.1660 C.3   405  GLU405      0.1161
    106  CD        10.9400  116.7820   18.4040 C.2   405  GLU405      0.3649
    107  OE1        9.8160  116.7110   18.9570 O.co2 405  GLU405     -0.2457
    108  OE2       11.1540  116.3620   17.2420 O.co2 405  GLU405     -0.2457
    109  N         13.0900  113.3880   20.3710 N.am  406  TRP406     -0.1976
    110  CA        13.9730  112.4800   19.6310 C.3   406  TRP406      0.1640
    111  C         15.4620  112.8340   19.7660 C.2   406  TRP406      0.2290
    112  O         15.9650  112.9450   20.8950 O.2   406  TRP406     -0.2864
    113  CB        13.4980  112.3630   18.1710 C.3   406  TRP406      0.0576
    114  CG        12.0690  111.9190   18.0990 C.ar  406  TRP406      0.0006
    115  CD1       11.0260  112.5950   17.5310 C.ar  406  TRP406      0.0946
    116  CD2       11.5090  110.7110   18.6540 C.ar  406  TRP406      0.0152
    117  NE1        9.8620  111.8760   17.6760 N.ar  406  TRP406     -0.2442
    118  CE2       10.1270  110.7230   18.3690 C.ar  406  TRP406      0.0810
    119  CE3       12.0450  109.6170   19.3470 C.ar  406  TRP406      0.0012
    120  CZ2        9.2690  109.6750   18.7440 C.ar  406  TRP406      0.0191
    121  CZ3       11.1950  108.5840   19.7310 C.ar  406  TRP406      0.0001
    122  CH2        9.8200  108.6210   19.4260 C.ar  406  TRP406      0.0015
    123  N          7.5080  121.5630   22.0980 N.3   414  PHE414     -0.1241
    124  CA         6.3720  121.6730   21.1810 C.3   414  PHE414      0.1605
    125  C          5.0240  121.7740   21.9160 C.2   414  PHE414      0.2264
    126  O          3.9840  121.8920   21.2740 O.2   414  PHE414     -0.2867
    127  CB         6.3000  120.4180   20.3070 C.3   414  PHE414      0.0534
    128  CG         7.1540  120.4630   19.0650 C.ar  414  PHE414     -0.0203
    129  CD1        6.6070  120.8620   17.8400 C.ar  414  PHE414     -0.0042
    130  CD2        8.4780  120.0540   19.1040 C.ar  414  PHE414     -0.0042
    131  CE1        7.3850  120.8850   16.6950 C.ar  414  PHE414     -0.0003
    132  CE2        9.2630  120.0670   17.9550 C.ar  414  PHE414     -0.0003
    133  CZ         8.7110  120.4750   16.7480 C.ar  414  PHE414     -0.0000
@<TRIPOS>BOND
     1    53    54    2
     2    53    52    1
     3    51    52    1
     4    44    45    2
     5    44    43    1
     6    65    64    1
     7    65    66    2
     8    52    55    1
     9    43    46    1
    10    43    42    1
    11    64    67    1
    12    64    63    1
    13    67    68    1
    14    46    47    1
    15    42    36   am
    16    69    68   ar
    17    69    71   ar
    18    55    56    1
    19    68    70   ar
    20    47    48    1
    21    71    72   ar
    22    48    49   ar
    23    48    50   ar
    24    58    56   ar
    25    58    60   ar
    26    36    37    2
    27    36    35    1
    28    70    72   ar
    29    70    73   ar
    30    56    57   ar
    31    72    74   ar
    32    80    79    2
    33    73    75   ar
    34    35    34    1
    35    35    38    1
    36    60    61   ar
    37    74    76   ar
    38    57    59   ar
    39    75    76   ar
    40    79    78    1
    41    77    78    1
    42    40    39    2
    43    31    29   ar
    44    31    33   ar
    45    61    59   ar
    46    61    62    1
    47    39    38    1
    48    39    41   am
    49    28    29   ar
    50    28    26   ar
    51    78    81    1
    52    81    82    1
    53    29    27   ar
    54    33    32   ar
    55    26    25   ar
    56    84    83   ar
    57    83    82    1
    58    83    85   ar
    59    27    25   ar
    60    27    30   ar
    61    32    30   ar
    62    25    24    1
    63    24    21    1
    64    21    20    1
    65    21    22    1
    66    20    12   am
    67   131   133   ar
    68   131   129   ar
    69   133   132   ar
    70    11    10    1
    71    11    12    1
    72    11    14    1
    73    18    19   ar
    74    18    16   ar
    75    19    17   ar
    76    16    15   ar
    77    17    15   ar
    78    12    13    2
    79   108   106   ar
    80    90    91    1
    81    90    87    1
    82    15    14    1
    83    23    22    2
    84   115   117   ar
    85   115   114   ar
    86   117   118   ar
    87    86    87    1
    88   129   128   ar
    89   132   130   ar
    90    91    92   ar
    91    91    93   ar
    92   114   113    1
    93   114   116   ar
    94   113   110    1
    95    87    88    1
    96    92    94   ar
    97   118   116   ar
    98   118   120   ar
    99   106   107   ar
   100   106   105    1
   101    96    93   ar
   102    96    98   ar
   103    89    88    2
   104    93    95   ar
   105   116   119   ar
   106   120   122   ar
   107    98    99   ar
   108    94    95   ar
   109   128   130   ar
   110   128   127    1
   111    95    97   ar
   112   105   104    1
   113   119   121   ar
   114   122   121   ar
   115   110   111    1
   116   110   109    1
   117   103   102    2
   118    99    97   ar
   119   111   112    2
   120     8     7    2
   121   102   109   am
   122   102   101    1
   123     9     7   am
   124   127   124    1
   125     7     6    1
   126   104   101    1
   127   101   100    1
   128   124   125    1
   129   124   123    1
   130   126   125    2
   131     6     5    1
   132     5     2    1
   133     1     2    1
   134     2     3    1
   135     3     4    2
