@<TRIPOS>MOLECULE
tmp/4ptwA01.pdb
 120 116 0 0 0
SMALL
GASTEIGER

@<TRIPOS>ATOM
      1  N          7.9680  107.1510    6.5240 N.3   165  TRP165     -0.1241
      2  CA         9.1260  107.7490    5.8570 C.3   165  TRP165      0.1605
      3  C         10.2360  108.0070    6.8530 C.2   165  TRP165      0.2264
      4  O         11.4060  107.7120    6.5910 O.2   165  TRP165     -0.2867
      5  CB         8.7790  109.0710    5.1420 C.3   165  TRP165      0.0550
      6  CG         9.9460  109.6130    4.3350 C.ar  165  TRP165      0.0003
      7  CD1       10.2030  109.3800    3.0080 C.ar  165  TRP165      0.0946
      8  CD2       11.0340  110.4310    4.8130 C.ar  165  TRP165      0.0152
      9  NE1       11.3640  110.0090    2.6340 N.ar  165  TRP165     -0.2442
     10  CE2       11.8970  110.6540    3.7230 C.ar  165  TRP165      0.0810
     11  CE3       11.3600  110.9860    6.0590 C.ar  165  TRP165      0.0012
     12  CZ2       13.0560  111.4260    3.8330 C.ar  165  TRP165      0.0191
     13  CZ3       12.5110  111.7490    6.1680 C.ar  165  TRP165      0.0001
     14  CH2       13.3470  111.9620    5.0590 C.ar  165  TRP165      0.0015
     15  N         15.2000  108.2100    8.3660 N.3   170  GLU170     -0.1245
     16  CA        15.9290  108.7590    9.5090 C.3   170  GLU170      0.1567
     17  C         16.4840  107.6590   10.3830 C.2   170  GLU170      0.2260
     18  O         17.5560  107.8130   10.9790 O.2   170  GLU170     -0.2867
     19  CB        15.0580  109.6940   10.3550 C.3   170  GLU170      0.0388
     20  CG        14.6820  110.9990    9.6610 C.3   170  GLU170      0.1160
     21  CD        15.8810  111.8770    9.3410 C.2   170  GLU170      0.3649
     22  OE1       17.0020  111.6280    9.8530 O.co2 170  GLU170     -0.2457
     23  OE2       15.6950  112.8320    8.5620 O.co2 170  GLU170     -0.2457
     24  N         19.9610  107.5450    7.3460 N.3   174  PHE174     -0.1241
     25  CA        20.7710  108.6440    7.8510 C.3   174  PHE174      0.1605
     26  C         21.2280  108.4250    9.3010 C.2   174  PHE174      0.2264
     27  O         22.1130  109.1110    9.7960 O.2   174  PHE174     -0.2867
     28  CB        20.0040  109.9570    7.6840 C.3   174  PHE174      0.0534
     29  CG        19.4790  110.1630    6.2860 C.ar  174  PHE174     -0.0203
     30  CD1       20.3110  109.9840    5.1880 C.ar  174  PHE174     -0.0042
     31  CD2       18.1510  110.4860    6.0680 C.ar  174  PHE174     -0.0042
     32  CE1       19.8350  110.1530    3.8900 C.ar  174  PHE174     -0.0003
     33  CE2       17.6600  110.6640    4.7720 C.ar  174  PHE174     -0.0003
     34  CZ        18.5030  110.4910    3.6820 C.ar  174  PHE174     -0.0000
     35  N         21.0270  103.0940    2.7720 N.3   184  PHE184     -0.1241
     36  CA        19.8520  103.5110    2.0160 C.3   184  PHE184      0.1605
     37  C         19.1020  102.3090    1.4460 C.2   184  PHE184      0.2264
     38  O         17.8720  102.3300    1.3660 O.2   184  PHE184     -0.2867
     39  CB        20.2510  104.5020    0.9090 C.3   184  PHE184      0.0534
     40  CG        19.1060  105.3220    0.3810 C.ar  184  PHE184     -0.0203
     41  CD1       18.8890  106.6100    0.8410 C.ar  184  PHE184     -0.0042
     42  CD2       18.2430  104.8020   -0.5800 C.ar  184  PHE184     -0.0042
     43  CE1       17.8370  107.3660    0.3600 C.ar  184  PHE184     -0.0003
     44  CE2       17.1810  105.5530   -1.0630 C.ar  184  PHE184     -0.0003
     45  CZ        16.9820  106.8380   -0.5980 C.ar  184  PHE184     -0.0000
     46  N         11.7410  115.0810   -5.4370 N.3   239  LEU239     -0.1245
     47  CA        11.8930  115.0800   -3.9910 C.3   239  LEU239      0.1561
     48  C         10.5250  114.9090   -3.3650 C.2   239  LEU239      0.2260
     49  O         10.3940  114.2870   -2.3140 O.2   239  LEU239     -0.2867
     50  CB        12.5330  116.3730   -3.4960 C.3   239  LEU239      0.0270
     51  CG        14.0320  116.5210   -3.7160 C.3   239  LEU239      0.0019
     52  CD1       14.5800  117.5610   -2.7530 C.3   239  LEU239      0.0001
     53  CD2       14.7470  115.1860   -3.5400 C.3   239  LEU239      0.0001
     54  N          9.8170  111.3520   -3.3290 N.3   242  TYR242     -0.1227
     55  CA        10.7130  110.7300   -2.3600 C.3   242  TYR242      0.1736
     56  C         10.0980  110.6750   -0.9600 C.2   242  TYR242      0.2595
     57  O         10.2270  109.6680   -0.2480 O.2   242  TYR242     -0.2718
     58  CB        12.0350  111.5080   -2.3920 C.3   242  TYR242      0.0548
     59  CG        13.0220  111.3320   -1.2520 C.ar  242  TYR242     -0.0200
     60  CD1       13.4900  110.0760   -0.8790 C.ar  242  TYR242     -0.0009
     61  CD2       13.5570  112.4450   -0.6120 C.ar  242  TYR242     -0.0009
     62  CE1       14.4300  109.9360    0.1440 C.ar  242  TYR242      0.0417
     63  CE2       14.4930  112.3180    0.3990 C.ar  242  TYR242      0.0417
     64  CZ        14.9240  111.0660    0.7740 C.ar  242  TYR242      0.1957
     65  OH        15.8490  110.9530    1.7840 O.3   242  TYR242     -0.2866
     66  N          9.4080  111.7470   -0.5810 N.am  243  ILE243     -0.1980
     67  CA         8.7850  111.8320    0.7430 C.3   243  ILE243      0.1595
     68  C          7.3150  111.4280    0.7180 C.2   243  ILE243      0.2287
     69  O          6.8470  110.6200    1.5340 O.2   243  ILE243     -0.2864
     70  CB         8.9400  113.2570    1.3190 C.3   243  ILE243      0.0276
     71  CG1       10.4320  113.5920    1.4600 C.3   243  ILE243      0.0022
     72  CG2        8.2370  113.3800    2.6700 C.3   243  ILE243      0.0022
     73  CD1       10.7200  114.8590    2.2320 C.3   243  ILE243      0.0001
     74  N          9.4110  122.1510    1.3480 N.3   296  MET296     -0.1245
     75  CA        10.7680  122.2950    0.8430 C.3   296  MET296      0.1570
     76  C         10.7830  123.0600   -0.4810 C.2   296  MET296      0.2261
     77  O          9.8420  122.9570   -1.2800 O.2   296  MET296     -0.2867
     78  CB        11.4710  120.9440    0.7230 C.3   296  MET296      0.0387
     79  CG        10.6280  119.8480    0.1270 C.3   296  MET296      0.0595
     80  SD        11.4070  118.2260    0.3180 S.3   296  MET296     -0.1393
     81  CE        10.1960  117.2530   -0.5620 C.3   296  MET296      0.0692
     82  N         23.4080  114.4990   -5.3320 N.3   305  ASN305     -0.1225
     83  CA        22.5980  113.3470   -4.8970 C.3   305  ASN305      0.1785
     84  C         21.8720  112.6500   -6.0400 C.2   305  ASN305      0.2597
     85  O         21.8960  113.1030   -7.1860 O.2   305  ASN305     -0.2718
     86  CB        21.6180  113.6450   -3.7430 C.3   305  ASN305      0.1169
     87  CG        20.4980  114.5980   -4.1360 C.2   305  ASN305      0.2627
     88  OD1       19.7130  114.3290   -5.0490 O.2   305  ASN305     -0.2716
     89  ND2       20.4000  115.7100   -3.4140 N.am  305  ASN305     -0.0877
     90  N         21.2030  111.5570   -5.6880 N.am  306  LEU306     -0.1966
     91  CA        20.5700  110.6510   -6.6370 C.3   306  LEU306      0.1728
     92  C         19.4160  111.2650   -7.4210 C.2   306  LEU306      0.2616
     93  O         19.1240  110.8380   -8.5340 O.2   306  LEU306     -0.2715
     94  CB        20.0560  109.4240   -5.8850 C.3   306  LEU306      0.0311
     95  CG        20.0090  108.1310   -6.6860 C.3   306  LEU306      0.0022
     96  CD1       21.4010  107.8320   -7.1940 C.3   306  LEU306      0.0001
     97  CD2       19.4940  107.0000   -5.8150 C.3   306  LEU306      0.0001
     98  N         18.7360  112.2460   -6.8370 N.am  307  PHE307     -0.1974
     99  CA        17.5830  112.8410   -7.5010 C.3   307  PHE307      0.1639
    100  C         17.9970  114.0570   -8.3210 C.2   307  PHE307      0.2290
    101  O         17.1620  114.6630   -8.9990 O.2   307  PHE307     -0.2864
    102  CB        16.5050  113.2470   -6.4860 C.3   307  PHE307      0.0560
    103  CG        16.3000  112.2490   -5.3730 C.ar  307  PHE307     -0.0200
    104  CD1       15.5370  111.1160   -5.5690 C.ar  307  PHE307     -0.0042
    105  CD2       16.8710  112.4560   -4.1280 C.ar  307  PHE307     -0.0042
    106  CE1       15.3470  110.2100   -4.5510 C.ar  307  PHE307     -0.0003
    107  CE2       16.6850  111.5500   -3.1030 C.ar  307  PHE307     -0.0003
    108  CZ        15.9200  110.4280   -3.3160 C.ar  307  PHE307     -0.0000
    109  N         18.7780  116.8490   -7.0390 N.3   309  ALA309     -0.1245
    110  CA        17.9170  117.8690   -6.4520 C.3   309  ALA309      0.1562
    111  C         18.4860  118.3820   -5.1430 C.2   309  ALA309      0.2260
    112  O         18.8880  117.6060   -4.2770 O.2   309  ALA309     -0.2867
    113  CB        16.5220  117.3210   -6.2410 C.3   309  ALA309      0.0290
    114  N         18.0270  121.0570   -1.7890 N.3   311  VAL311     -0.1245
    115  CA        17.0750  121.8350   -1.0030 C.3   311  VAL311      0.1561
    116  C         17.6370  123.2180   -0.6750 C.2   311  VAL311      0.2260
    117  O         18.7490  123.3420   -0.1490 O.2   311  VAL311     -0.2867
    118  CB        16.6810  121.1240    0.3070 C.3   311  VAL311      0.0252
    119  CG1       15.9180  122.0800    1.2150 C.3   311  VAL311      0.0019
    120  CG2       15.8540  119.8870    0.0100 C.3   311  VAL311      0.0019
@<TRIPOS>BOND
     1   101   100    2
     2    93    92    2
     3   100    99    1
     4    99    98    1
     5    99   102    1
     6    92    98   am
     7    92    91    1
     8    96    95    1
     9    85    84    2
    10   109   110    1
    11    95    94    1
    12    95    97    1
    13    91    94    1
    14    91    90    1
    15   102   103    1
    16   110   113    1
    17   110   111    1
    18    84    90   am
    19    84    83    1
    20   104   103   ar
    21   104   106   ar
    22    46    47    1
    23   103   105   ar
    24    82    83    1
    25   111   112    2
    26    88    87    2
    27    83    86    1
    28   106   108   ar
    29    87    86    1
    30    87    89   am
    31   105   107   ar
    32    47    50    1
    33    47    48    1
    34    51    53    1
    35    51    50    1
    36    51    52    1
    37    48    49    2
    38    54    55    1
    39   108   107   ar
    40    58    55    1
    41    58    59    1
    42    55    56    1
    43   114   115    1
    44    77    76    2
    45    59    60   ar
    46    59    61   ar
    47    44    45   ar
    48    44    42   ar
    49   115   116    1
    50   115   118    1
    51    56    66   am
    52    56    57    2
    53    60    62   ar
    54   116   117    2
    55    61    63   ar
    56    45    43   ar
    57    66    67    1
    58    42    40   ar
    59    81    80    1
    60    76    75    1
    61   120   118    1
    62    79    80    1
    63    79    78    1
    64    62    64   ar
    65   118   119    1
    66    43    41   ar
    67    40    41   ar
    68    40    39    1
    69    63    64   ar
    70    68    67    1
    71    68    69    2
    72    78    75    1
    73    67    70    1
    74    64    65    1
    75    75    74    1
    76    39    36    1
    77    70    71    1
    78    70    72    1
    79    38    37    2
    80    37    36    1
    81    71    73    1
    82    36    35    1
    83     9     7   ar
    84     9    10   ar
    85     7     6   ar
    86    34    32   ar
    87    34    33   ar
    88    10    12   ar
    89    10     8   ar
    90    12    14   ar
    91    32    30   ar
    92     6     8   ar
    93     6     5    1
    94    33    31   ar
    95     8    11   ar
    96    14    13   ar
    97     5     2    1
    98    30    29   ar
    99     2     1    1
   100     2     3    1
   101    11    13   ar
   102    31    29   ar
   103    29    28    1
   104     4     3    2
   105    24    25    1
   106    28    25    1
   107    25    26    1
   108    15    16    1
   109    23    21   ar
   110    26    27    2
   111    21    20    1
   112    21    22   ar
   113    16    19    1
   114    16    17    1
   115    20    19    1
   116    17    18    2
