@<TRIPOS>MOLECULE
tmp/4ptxA00.pdb
 141 142 0 0 0
SMALL
GASTEIGER

@<TRIPOS>ATOM
      1  N          8.0420  109.5720   23.8600 N.3    17  GLN17      -0.1245
      2  CA         8.3640  110.9720   24.1030 C.3    17  GLN17       0.1566
      3  C          7.8380  111.4960   25.4500 C.2    17  GLN17       0.2260
      4  O          8.3740  112.4800   25.9620 O.2    17  GLN17      -0.2867
      5  CB         7.8550  111.8410   22.9430 C.3    17  GLN17       0.0367
      6  CG         8.5680  111.5020   21.6230 C.3    17  GLN17       0.0905
      7  CD         8.0960  112.3750   20.4710 C.2    17  GLN17       0.2608
      8  OE1        7.1350  112.0370   19.7930 O.2    17  GLN17      -0.2717
      9  NE2        8.7710  113.5110   20.2580 N.am   17  GLN17      -0.0878
     10  N          4.5340  104.2990   16.8740 N.3   118  HIS118     -0.1226
     11  CA         5.1850  105.5990   16.8210 C.3   118  HIS118      0.1752
     12  C          6.6580  105.4460   17.2120 C.2   118  HIS118      0.2596
     13  O          7.1640  106.1670   18.0900 O.2   118  HIS118     -0.2718
     14  CB         4.4610  106.6070   17.7200 C.3   118  HIS118      0.0759
     15  CG         4.6830  108.0440   17.3330 C.ar  118  HIS118      0.0818
     16  ND1        3.6480  108.9440   17.1880 N.ar  118  HIS118     -0.2268
     17  CD2        5.8230  108.7440   17.1090 C.ar  118  HIS118      0.1154
     18  CE1        4.1380  110.1330   16.8700 C.ar  118  HIS118      0.1986
     19  NE2        5.4570  110.0400   16.8220 N.ar  118  HIS118     -0.2212
     20  N          7.2950  104.4430   16.5810 N.am  119  TRP119     -0.1976
     21  CA         8.7520  104.3040   16.4100 C.3   119  TRP119      0.1640
     22  C          9.5000  103.4690   17.4620 C.2   119  TRP119      0.2290
     23  O         10.6970  103.2170   17.2910 O.2   119  TRP119     -0.2864
     24  CB         9.4320  105.6820   16.3390 C.3   119  TRP119      0.0576
     25  CG         8.8540  106.6570   15.3330 C.ar  119  TRP119      0.0006
     26  CD1        7.8270  106.4440   14.4580 C.ar  119  TRP119      0.0946
     27  CD2        9.2940  108.0050   15.1140 C.ar  119  TRP119      0.0152
     28  NE1        7.5970  107.5820   13.7110 N.ar  119  TRP119     -0.2442
     29  CE2        8.4870  108.5520   14.1000 C.ar  119  TRP119      0.0810
     30  CE3       10.2950  108.8030   15.6860 C.ar  119  TRP119      0.0012
     31  CZ2        8.6450  109.8690   13.6430 C.ar  119  TRP119      0.0191
     32  CZ3       10.4610  110.1040   15.2210 C.ar  119  TRP119      0.0001
     33  CH2        9.6400  110.6220   14.2100 C.ar  119  TRP119      0.0015
     34  N          2.7940  105.8190   12.3770 N.3   162  ASN162     -0.1225
     35  CA         3.2090  107.2300   12.2970 C.3   162  ASN162      0.1785
     36  C          4.4470  107.4470   11.4170 C.2   162  ASN162      0.2597
     37  O          5.5150  106.9300   11.7370 O.2   162  ASN162     -0.2718
     38  CB         3.5250  107.7720   13.6930 C.3   162  ASN162      0.1169
     39  CG         3.7800  109.2760   13.6910 C.2   162  ASN162      0.2627
     40  OD1        2.8600  110.0630   13.5020 O.2   162  ASN162     -0.2716
     41  ND2        5.0310  109.6760   13.9070 N.am  162  ASN162     -0.0877
     42  N          4.3030  108.2230   10.3380 N.am  163  GLU163     -0.1979
     43  CA         5.4280  108.6760    9.4940 C.3   163  GLU163      0.1602
     44  C          6.4230  107.6070    9.0640 C.2   163  GLU163      0.2287
     45  O          7.5920  107.6360    9.4640 O.2   163  GLU163     -0.2864
     46  CB         6.1870  109.8020   10.2030 C.3   163  GLU163      0.0415
     47  CG         5.2600  110.9340   10.5650 C.3   163  GLU163      0.1163
     48  CD         5.9460  112.1260   11.2040 C.2   163  GLU163      0.3649
     49  OE1        5.2700  113.1650   11.3130 O.co2 163  GLU163     -0.2457
     50  OE2        7.1300  112.0370   11.5950 O.co2 163  GLU163     -0.2457
     51  N          3.7700  111.9980    7.2420 N.3   219  ASN219     -0.1240
     52  CA         4.3290  113.3370    7.1760 C.3   219  ASN219      0.1653
     53  C          4.3650  113.7130    5.7110 C.2   219  ASN219      0.2266
     54  O          4.8680  112.9560    4.8830 O.2   219  ASN219     -0.2867
     55  CB         5.7310  113.4110    7.7990 C.3   219  ASN219      0.1155
     56  CG         6.7300  112.4760    7.1180 C.2   219  ASN219      0.2627
     57  OD1        6.6390  111.2530    7.2380 O.2   219  ASN219     -0.2716
     58  ND2        7.6950  113.0520    6.4140 N.am  219  ASN219     -0.0877
     59  N          4.3000  120.2850    8.9500 N.3   293  TYR293     -0.1241
     60  CA         5.0400  121.3640    9.6260 C.3   293  TYR293      0.1605
     61  C          5.5940  122.4420    8.6940 C.2   293  TYR293      0.2264
     62  O          5.6280  123.6200    9.0620 O.2   293  TYR293     -0.2867
     63  CB         6.1940  120.7820   10.4390 C.3   293  TYR293      0.0534
     64  CG         5.7150  119.9290   11.6020 C.ar  293  TYR293     -0.0201
     65  CD1        5.5050  120.4890   12.8580 C.ar  293  TYR293     -0.0009
     66  CD2        5.4450  118.5740   11.4340 C.ar  293  TYR293     -0.0009
     67  CE1        5.0540  119.7030   13.9250 C.ar  293  TYR293      0.0417
     68  CE2        4.9980  117.7810   12.4940 C.ar  293  TYR293      0.0417
     69  CZ         4.8060  118.3520   13.7370 C.ar  293  TYR293      0.1957
     70  OH         4.3610  117.5670   14.7940 O.3   293  TYR293     -0.2866
     71  N         12.9040  125.3740   10.7560 N.3   324  TRP324     -0.1241
     72  CA        11.9410  125.1180    9.6840 C.3   324  TRP324      0.1605
     73  C         11.2400  126.3960    9.2540 C.2   324  TRP324      0.2264
     74  O         10.8090  127.1780   10.1020 O.2   324  TRP324     -0.2867
     75  CB        10.8870  124.1110   10.1340 C.3   324  TRP324      0.0550
     76  CG        11.4380  122.8190   10.6260 C.ar  324  TRP324      0.0003
     77  CD1       12.6710  122.2770   10.3510 C.ar  324  TRP324      0.0946
     78  CD2       10.7700  121.8880   11.4850 C.ar  324  TRP324      0.0152
     79  NE1       12.8050  121.0620   10.9940 N.ar  324  TRP324     -0.2442
     80  CE2       11.6530  120.8030   11.6950 C.ar  324  TRP324      0.0810
     81  CE3        9.5100  121.8640   12.0910 C.ar  324  TRP324      0.0012
     82  CZ2       11.3140  119.7100   12.4910 C.ar  324  TRP324      0.0191
     83  CZ3        9.1750  120.7750   12.8820 C.ar  324  TRP324      0.0001
     84  CH2       10.0760  119.7180   13.0800 C.ar  324  TRP324      0.0015
     85  N         -1.0020  115.9130   13.1830 N.3   351  GLU351     -0.1245
     86  CA         0.0330  116.7420   13.8260 C.3   351  GLU351      0.1567
     87  C          0.2550  118.0500   13.0730 C.2   351  GLU351      0.2260
     88  O          0.3790  118.0590   11.8490 O.2   351  GLU351     -0.2867
     89  CB         1.3950  116.0290   13.9130 C.3   351  GLU351      0.0388
     90  CG         1.4680  114.8320   14.8470 C.3   351  GLU351      0.1160
     91  CD         2.8620  114.2720   14.9800 C.2   351  GLU351      0.3649
     92  OE1        3.8250  115.0560   14.8290 O.co2 351  GLU351     -0.2457
     93  OE2        2.9910  113.0550   15.2450 O.co2 351  GLU351     -0.2457
     94  N          0.3960  119.2450   17.7230 N.3   398  TRP398     -0.1241
     95  CA         1.6130  118.7240   18.3480 C.3   398  TRP398      0.1605
     96  C          2.2900  119.8620   19.1340 C.2   398  TRP398      0.2264
     97  O          2.6760  120.8610   18.5320 O.2   398  TRP398     -0.2867
     98  CB         2.5920  118.1440   17.2970 C.3   398  TRP398      0.0550
     99  CG         3.7530  117.4780   18.0090 C.ar  398  TRP398      0.0003
    100  CD1        4.9150  118.0610   18.4270 C.ar  398  TRP398      0.0946
    101  CD2        3.7890  116.1230   18.4720 C.ar  398  TRP398      0.0152
    102  NE1        5.6910  117.1340   19.1140 N.ar  398  TRP398     -0.2442
    103  CE2        5.0170  115.9390   19.1460 C.ar  398  TRP398      0.0810
    104  CE3        2.9010  115.0430   18.3700 C.ar  398  TRP398      0.0012
    105  CZ2        5.3830  114.7180   19.7090 C.ar  398  TRP398      0.0191
    106  CZ3        3.2610  113.8350   18.9370 C.ar  398  TRP398      0.0001
    107  CH2        4.4950  113.6800   19.5990 C.ar  398  TRP398      0.0015
    108  N         12.2030  115.4490   22.2690 N.3   405  GLU405     -0.1231
    109  CA        12.1690  115.6830   20.8220 C.3   405  GLU405      0.1699
    110  C         13.2930  114.8970   20.1450 C.2   405  GLU405      0.2592
    111  O         14.1910  115.4620   19.5020 O.2   405  GLU405     -0.2718
    112  CB        12.2700  117.1830   20.5220 C.3   405  GLU405      0.0402
    113  CG        12.2350  117.5860   19.0210 C.3   405  GLU405      0.1161
    114  CD        11.0920  116.9670   18.2320 C.2   405  GLU405      0.3649
    115  OE1       10.0000  116.7520   18.8090 O.co2 405  GLU405     -0.2457
    116  OE2       11.2870  116.7110   17.0150 O.co2 405  GLU405     -0.2457
    117  N         13.2480  113.5820   20.3370 N.am  406  TRP406     -0.1976
    118  CA        14.1170  112.6510   19.6320 C.3   406  TRP406      0.1640
    119  C         15.5950  113.0500   19.7150 C.2   406  TRP406      0.2290
    120  O         16.1120  113.2580   20.8220 O.2   406  TRP406     -0.2864
    121  CB        13.6290  112.5210   18.1890 C.3   406  TRP406      0.0576
    122  CG        12.1540  112.1020   18.1160 C.ar  406  TRP406      0.0006
    123  CD1       11.1230  112.8250   17.5900 C.ar  406  TRP406      0.0946
    124  CD2       11.5650  110.8790   18.6230 C.ar  406  TRP406      0.0152
    125  NE1        9.9350  112.1270   17.7080 N.ar  406  TRP406     -0.2442
    126  CE2       10.1810  110.9350   18.3410 C.ar  406  TRP406      0.0810
    127  CE3       12.0800  109.7400   19.2590 C.ar  406  TRP406      0.0012
    128  CZ2        9.3080  109.8970   18.6680 C.ar  406  TRP406      0.0191
    129  CZ3       11.2070  108.7130   19.6030 C.ar  406  TRP406      0.0001
    130  CH2        9.8390  108.7960   19.3010 C.ar  406  TRP406      0.0015
    131  N          7.6120  121.8340   22.1330 N.3   414  PHE414     -0.1241
    132  CA         6.4800  121.9240   21.1930 C.3   414  PHE414      0.1605
    133  C          5.1370  122.0550   21.9120 C.2   414  PHE414      0.2264
    134  O          4.0910  122.2280   21.2780 O.2   414  PHE414     -0.2867
    135  CB         6.4100  120.6720   20.3040 C.3   414  PHE414      0.0534
    136  CG         7.2580  120.7400   19.0550 C.ar  414  PHE414     -0.0203
    137  CD1        6.6960  121.1240   17.8410 C.ar  414  PHE414     -0.0042
    138  CD2        8.5970  120.3850   19.0900 C.ar  414  PHE414     -0.0042
    139  CE1        7.4720  121.1750   16.6830 C.ar  414  PHE414     -0.0003
    140  CE2        9.3800  120.4310   17.9360 C.ar  414  PHE414     -0.0003
    141  CZ         8.8130  120.8250   16.7330 C.ar  414  PHE414     -0.0000
@<TRIPOS>BOND
     1    54    53    2
     2    53    52    1
     3    58    56   am
     4    56    57    2
     5    56    55    1
     6    52    51    1
     7    52    55    1
     8    61    62    2
     9    61    60    1
    10    59    60    1
    11    44    45    2
    12    44    43    1
    13    73    72    1
    14    73    74    2
    15    43    46    1
    16    43    42    1
    17    60    63    1
    18    72    75    1
    19    72    71    1
    20    75    76    1
    21    46    47    1
    22    42    36   am
    23    77    76   ar
    24    77    79   ar
    25    63    64    1
    26    47    48    1
    27    76    78   ar
    28    79    80   ar
    29    48    49   ar
    30    48    50   ar
    31    36    37    2
    32    36    35    1
    33    66    64   ar
    34    66    68   ar
    35    78    80   ar
    36    78    81   ar
    37    64    65   ar
    38    80    82   ar
    39    88    87    2
    40    81    83   ar
    41    35    34    1
    42    35    38    1
    43    82    84   ar
    44    68    69   ar
    45    65    67   ar
    46    83    84   ar
    47    87    86    1
    48    85    86    1
    49    40    39    2
    50    31    29   ar
    51    31    33   ar
    52    39    38    1
    53    39    41   am
    54    28    29   ar
    55    28    26   ar
    56    69    67   ar
    57    69    70    1
    58    86    89    1
    59    89    90    1
    60    29    27   ar
    61    33    32   ar
    62    26    25   ar
    63    92    91   ar
    64    90    91    1
    65    91    93   ar
    66    27    25   ar
    67    27    30   ar
    68    32    30   ar
    69    25    24    1
    70    24    21    1
    71    21    20    1
    72    21    22    1
    73    20    12   am
    74   139   141   ar
    75   139   137   ar
    76   141   140   ar
    77    11    10    1
    78    11    12    1
    79    11    14    1
    80    19    18   ar
    81    19    17   ar
    82    18    16   ar
    83   116   114   ar
    84    17    15   ar
    85    16    15   ar
    86    12    13    2
    87    23    22    2
    88    98    99    1
    89    98    95    1
    90    15    14    1
    91   123   125   ar
    92   123   122   ar
    93   125   126   ar
    94    94    95    1
    95   137   136   ar
    96   140   138   ar
    97    99   100   ar
    98    99   101   ar
    99   122   121    1
   100   122   124   ar
   101   121   118    1
   102   114   115   ar
   103   114   113    1
   104   126   124   ar
   105   126   128   ar
   106    95    96    1
   107   104   101   ar
   108   104   106   ar
   109   100   102   ar
   110   101   103   ar
   111    97    96    2
   112   124   127   ar
   113   128   130   ar
   114   106   107   ar
   115   113   112    1
   116   136   138   ar
   117   136   135    1
   118   102   103   ar
   119   103   105   ar
   120   127   129   ar
   121   130   129   ar
   122   111   110    2
   123   107   105   ar
   124   118   119    1
   125   118   117    1
   126   119   120    2
   127     8     7    2
   128   110   117   am
   129   110   109    1
   130     9     7   am
   131   135   132    1
   132     7     6    1
   133   112   109    1
   134   109   108    1
   135   132   133    1
   136   132   131    1
   137   134   133    2
   138     6     5    1
   139     5     2    1
   140     1     2    1
   141     2     3    1
   142     3     4    2
