@<TRIPOS>MOLECULE
tmp/4pu0B00.pdb
 139 137 0 0 0
SMALL
GASTEIGER

@<TRIPOS>ATOM
      1  N        107.7160   23.1490   -4.8610 N.3     9  SER9       -0.1203
      2  CA       108.1640   21.9570   -4.1440 C.3     9  SER9        0.2005
      3  C        107.9740   20.6350   -4.9330 C.2     9  SER9        0.2461
      4  O        106.9220   20.4250   -5.5230 O.2     9  SER9       -0.2732
      5  CB       107.4760   21.8570   -2.7970 C.3     9  SER9        0.2103
      6  OG       108.0890   20.8400   -2.0140 O.3     9  SER9       -0.2182
      7  N        108.9920   19.7350   -4.9240 N.am   10  PRO10      -0.2717
      8  CA       108.8760   18.4070   -5.5390 C.3    10  PRO10       0.1535
      9  C        107.9630   17.4430   -4.7790 C.2    10  PRO10       0.2598
     10  O        107.6330   16.3870   -5.3080 O.2    10  PRO10      -0.2715
     11  CB       110.3100   17.8730   -5.4930 C.3    10  PRO10       0.0310
     12  CG       110.8930   18.5130   -4.3190 C.3    10  PRO10       0.0237
     13  CD       110.3260   19.9170   -4.3290 C.3    10  PRO10       0.0939
     14  N        107.5930   17.7810   -3.5520 N.am   11  ARG11      -0.1978
     15  CA       106.7010   16.9200   -2.7830 C.3    11  ARG11       0.1597
     16  C        105.4370   17.6900   -2.4510 C.2    11  ARG11       0.2287
     17  O        105.4030   18.8840   -2.5530 O.2    11  ARG11      -0.2864
     18  CB       107.3980   16.4010   -1.5240 C.3    11  ARG11       0.0334
     19  CG       108.5520   15.4270   -1.8120 C.3    11  ARG11       0.0492
     20  CD       108.0740   14.2130   -2.5940 C.3    11  ARG11       0.2205
     21  NE       109.1390   13.2430   -2.8180 N.pl3  11  ARG11      -0.0865
     22  CZ       109.4670   12.2790   -1.9670 C.cat  11  ARG11       0.5346
     23  NH1      108.8170   12.1510   -0.8160 N.pl3  11  ARG11       0.1354
     24  NH2      110.4490   11.4390   -2.2670 N.pl3  11  ARG11       0.1354
     25  N        103.6010   20.4550    1.0920 N.3    14  SER14      -0.1202
     26  CA       104.9060   21.0000    1.4110 C.3    14  SER14       0.2020
     27  C        104.7740   22.2570    2.2400 C.2    14  SER14       0.2619
     28  O        103.7030   22.8660    2.2920 O.2    14  SER14      -0.2717
     29  CB       105.6500   21.2800    0.1140 C.3    14  SER14       0.2103
     30  OG       105.2200   22.4620   -0.4990 O.3    14  SER14      -0.2182
     31  N        105.8420   22.6510    2.9190 N.am   15  ARG15      -0.1965
     32  CA       105.7760   23.8620    3.7290 C.3    15  ARG15       0.1729
     33  C        105.4910   25.0610    2.8750 C.2    15  ARG15       0.2616
     34  O        104.6520   25.8940    3.2300 O.2    15  ARG15      -0.2715
     35  CB       107.0870   24.1310    4.4460 C.3    15  ARG15       0.0348
     36  CG       107.2750   23.2270    5.5730 C.3    15  ARG15       0.0492
     37  CD       108.3740   23.6830    6.4510 C.3    15  ARG15       0.2205
     38  NE       108.5470   22.7060    7.5040 N.pl3  15  ARG15      -0.0865
     39  CZ       109.0900   21.5190    7.3010 C.cat  15  ARG15       0.5346
     40  NH1      109.5290   21.2030    6.0940 N.pl3  15  ARG15       0.1354
     41  NH2      109.2030   20.6650    8.3080 N.pl3  15  ARG15       0.1354
     42  N        106.1910   25.1560    1.7480 N.am   16  SER16      -0.1950
     43  CA       106.0790   26.3520    0.9450 C.3    16  SER16       0.1924
     44  C        104.7110   26.4130    0.2650 C.2    16  SER16       0.2314
     45  O        104.1740   27.4840    0.0580 O.2    16  SER16      -0.2863
     46  CB       107.2510   26.4780   -0.0370 C.3    16  SER16       0.2116
     47  OG       107.1450   25.5780   -1.0970 O.3    16  SER16      -0.2180
     48  N        110.9230   25.6590   -1.9540 N.3    75  PRO75      -0.2102
     49  CA       111.8810   25.3520   -0.8880 C.3    75  PRO75       0.1504
     50  C        113.2690   25.8860   -1.2800 C.2    75  PRO75       0.2576
     51  O        113.5520   26.0350   -2.4640 O.2    75  PRO75      -0.2718
     52  CB       111.8940   23.8190   -0.8830 C.3    75  PRO75       0.0282
     53  CG       111.5040   23.4530   -2.2430 C.3    75  PRO75       0.0208
     54  CD       110.5040   24.4480   -2.6690 C.3    75  PRO75       0.0893
     55  N        114.1360   26.1610   -0.3240 N.am   76  VAL76      -0.1966
     56  CA       115.5270   26.4650   -0.6650 C.3    76  VAL76       0.1727
     57  C        116.3650   25.1890   -0.7460 C.2    76  VAL76       0.2616
     58  O        116.6040   24.5390    0.2690 O.2    76  VAL76      -0.2715
     59  CB       116.1550   27.4260    0.3670 C.3    76  VAL76       0.0290
     60  CG1      117.6380   27.5510    0.1280 C.3    76  VAL76       0.0023
     61  CG2      115.4600   28.7860    0.2510 C.3    76  VAL76       0.0023
     62  N        116.8140   24.8430   -1.9510 N.am   77  TYR77      -0.1960
     63  CA       117.7390   23.6930   -2.1480 C.3    77  TYR77       0.1771
     64  C        119.1160   24.1830   -2.6340 C.2    77  TYR77       0.2619
     65  O        119.2050   24.9100   -3.6210 O.2    77  TYR77      -0.2715
     66  CB       117.1600   22.6640   -3.1650 C.3    77  TYR77       0.0574
     67  CG       115.8770   21.9320   -2.7400 C.ar   77  TYR77      -0.0198
     68  CD1      115.4440   21.9420   -1.4070 C.ar   77  TYR77      -0.0009
     69  CD2      115.1100   21.2190   -3.6670 C.ar   77  TYR77      -0.0009
     70  CE1      114.2810   21.2730   -1.0160 C.ar   77  TYR77       0.0417
     71  CE2      113.9290   20.5220   -3.2720 C.ar   77  TYR77       0.0417
     72  CZ       113.5280   20.5650   -1.9460 C.ar   77  TYR77       0.1957
     73  OH       112.3820   19.9070   -1.5230 O.3    77  TYR77      -0.2866
     74  N        120.1680   23.7810   -1.9340 N.am   78  LYS78      -0.1963
     75  CA       121.5480   24.0860   -2.3220 C.3    78  LYS78       0.1728
     76  C        121.7280   25.5880   -2.6160 C.2    78  LYS78       0.2616
     77  O        122.1960   25.9800   -3.6880 O.2    78  LYS78      -0.2715
     78  CB       121.9620   23.2520   -3.5320 C.3    78  LYS78       0.0311
     79  CG       121.6220   21.7630   -3.4040 C.3    78  LYS78       0.0038
     80  CD       122.4980   21.0730   -2.4080 C.3    78  LYS78       0.0206
     81  CE       122.1600   19.5910   -2.2540 C.3    78  LYS78       0.1093
     82  NZ       122.8500   19.0830   -1.0910 N.3    78  LYS78      -0.1314
     83  N        121.3310   26.4160   -1.6520 N.am   79  ALA79      -0.1977
     84  CA       121.5000   27.8490   -1.7650 C.3    79  ALA79       0.1597
     85  C        120.7880   28.4440   -2.9710 C.2    79  ALA79       0.2287
     86  O        121.1770   29.4990   -3.4510 O.2    79  ALA79      -0.2864
     87  CB       122.9870   28.1850   -1.8030 C.3    79  ALA79       0.0319
     88  N        110.6850   28.7780    1.7820 N.3   107  THR107     -0.1203
     89  CA       110.9160   28.1690    3.0780 C.3   107  THR107      0.1994
     90  C        112.2950   27.5060    3.0290 C.2   107  THR107      0.2618
     91  O        112.7100   27.0450    1.9870 O.2   107  THR107     -0.2717
     92  CB       109.8820   27.0670    3.3680 C.3   107  THR107      0.1784
     93  OG1      110.0980   26.0360    2.4320 O.3   107  THR107     -0.2211
     94  CG2      108.4560   27.5620    3.2170 C.3   107  THR107      0.0376
     95  N        113.0040   27.4410    4.1460 N.am  108  GLY108     -0.1942
     96  CA       114.2780   26.7510    4.1510 C.3   108  GLY108      0.2014
     97  C        114.6560   26.3540    5.5510 C.2   108  GLY108      0.2639
     98  O        114.1110   26.8830    6.5120 O.2   108  GLY108     -0.2714
     99  N        115.6040   25.4290    5.6730 N.am  109  GLY109     -0.1939
    100  CA       115.9700   24.9010    6.9700 C.3   109  GLY109      0.2014
    101  C        116.7780   25.8440    7.8390 C.2   109  GLY109      0.2639
    102  O        116.6940   25.7700    9.0660 O.2   109  GLY109     -0.2714
    103  N        117.5660   26.7130    7.2100 N.am  110  THR110     -0.1950
    104  CA       118.4900   27.6080    7.9250 C.3   110  THR110      0.1897
    105  C        118.2860   29.0770    7.5140 C.2   110  THR110      0.2313
    106  O        118.1320   29.3900    6.3430 O.2   110  THR110     -0.2863
    107  CB       119.9830   27.2060    7.6680 C.3   110  THR110      0.1794
    108  OG1      120.3180   27.3780    6.2860 O.3   110  THR110     -0.2208
    109  CG2      120.2270   25.7570    8.0150 C.3   110  THR110      0.0378
    110  N        120.5510   30.4420    4.6750 N.3   113  HIS113     -0.1241
    111  CA       120.2330   30.4200    3.2570 C.3   113  HIS113      0.1621
    112  C        119.0100   31.3030    2.9180 C.2   113  HIS113      0.2264
    113  O        118.4460   31.2020    1.8490 O.2   113  HIS113     -0.2867
    114  CB       120.0680   28.9650    2.7680 C.3   113  HIS113      0.0745
    115  CG       121.3760   28.2490    2.5480 C.ar  113  HIS113      0.0817
    116  ND1      121.5500   27.2920    1.5710 N.ar  113  HIS113     -0.2268
    117  CD2      122.5710   28.3550    3.1780 C.ar  113  HIS113      0.1154
    118  CE1      122.7900   26.8320    1.6160 C.ar  113  HIS113      0.1986
    119  NE2      123.4320   27.4630    2.5810 N.ar  113  HIS113     -0.2212
    120  N        111.8770   26.7790    8.3890 N.3   141  ASP141     -0.1239
    121  CA       110.9480   25.6470    8.6150 C.3   141  ASP141      0.1674
    122  C        110.2470   25.6580    9.9650 C.2   141  ASP141      0.2266
    123  O        109.0990   25.3020   10.0780 O.2   141  ASP141     -0.2867
    124  CB       111.6890   24.3240    8.5180 C.3   141  ASP141      0.1410
    125  CG       112.1960   24.0490    7.1360 C.2   141  ASP141      0.3668
    126  OD1      111.7040   24.7320    6.2140 O.co2 141  ASP141     -0.2456
    127  OD2      113.0830   23.1670    6.9750 O.co2 141  ASP141     -0.2456
    128  N        101.5510   22.2570    7.9210 N.3   147  TYR147     -0.1241
    129  CA       101.3290   22.3300    6.4840 C.3   147  TYR147      0.1605
    130  C        100.5900   21.0730    5.8920 C.2   147  TYR147      0.2264
    131  O        100.5530   20.9230    4.6850 O.2   147  TYR147     -0.2867
    132  CB       102.6670   22.5070    5.7840 C.3   147  TYR147      0.0534
    133  CG       103.6190   21.3170    5.8620 C.ar  147  TYR147     -0.0201
    134  CD1      103.6990   20.3890    4.8170 C.ar  147  TYR147     -0.0009
    135  CD2      104.4710   21.1520    6.9560 C.ar  147  TYR147     -0.0009
    136  CE1      104.5830   19.2910    4.8870 C.ar  147  TYR147      0.0417
    137  CE2      105.3590   20.0710    7.0350 C.ar  147  TYR147      0.0417
    138  CZ       105.4170   19.1540    5.9960 C.ar  147  TYR147      0.1957
    139  OH       106.2800   18.1030    6.0830 O.3   147  TYR147     -0.2866
@<TRIPOS>BOND
     1     8    11    1
     2     8     7    1
     3     8     9    1
     4     4     3    2
     5    11    12    1
     6    10     9    2
     7     3     7   am
     8     3     2    1
     9     7    13    1
    10     1     2    1
    11     9    14   am
    12    13    12    1
    13     2     5    1
    14    77    76    2
    15    69    71   ar
    16    69    67   ar
    17    65    64    2
    18    14    15    1
    19    78    79    1
    20    78    75    1
    21    86    85    2
    22    79    80    1
    23    71    72   ar
    24    66    67    1
    25    66    63    1
    26    85    84    1
    27    21    20    1
    28    21    22    2
    29     5     6    1
    30    15    16    1
    31    15    18    1
    32    67    68   ar
    33    54    53    1
    34    54    48    1
    35    64    63    1
    36    64    74   am
    37    76    75    1
    38    76    83   am
    39    20    19    1
    40    17    16    2
    41    51    50    2
    42    80    81    1
    43    75    74    1
    44    24    22    1
    45    81    82    1
    46    53    52    1
    47    63    62    1
    48    22    23    1
    49    48    49    1
    50    62    57   am
    51    72    73    1
    52    72    70   ar
    53    19    18    1
    54    87    84    1
    55    84    83    1
    56    68    70   ar
    57    50    49    1
    58    50    55   am
    59    47    46    1
    60    49    52    1
    61    57    56    1
    62    57    58    2
    63    56    55    1
    64    56    59    1
    65    30    29    1
    66    46    43    1
    67    45    44    2
    68    29    26    1
    69    60    59    1
    70    61    59    1
    71    44    43    1
    72    43    42    1
    73    25    26    1
    74    26    27    1
    75   116   118   ar
    76   116   115   ar
    77   118   119   ar
    78    42    33   am
    79    88    89    1
    80   113   112    2
    81    91    90    2
    82    27    28    2
    83    27    31   am
    84    93    92    1
    85   115   114    1
    86   115   117   ar
    87   119   117   ar
    88   114   111    1
    89    33    34    2
    90    33    32    1
    91   112   111    1
    92    31    32    1
    93    90    89    1
    94    90    95   am
    95    89    92    1
    96    94    92    1
    97   111   110    1
    98    32    35    1
    99    95    96    1
   100    96    97    1
   101    35    36    1
   102   131   130    2
   103   134   136   ar
   104   134   133   ar
   105   136   138   ar
   106    97    99   am
   107    97    98    2
   108    36    37    1
   109    99   100    1
   110   132   133    1
   111   132   129    1
   112   133   135   ar
   113   130   129    1
   114   138   139    1
   115   138   137   ar
   116    40    39    1
   117   126   125   ar
   118   108   107    1
   119   106   105    2
   120    37    38    1
   121   129   128    1
   122   135   137   ar
   123   100   101    1
   124   127   125   ar
   125   125   124    1
   126   103   101   am
   127   103   104    1
   128    39    38    2
   129    39    41    1
   130   105   104    1
   131   107   104    1
   132   107   109    1
   133   101   102    2
   134   120   121    1
   135   124   121    1
   136   121   122    1
   137   122   123    2
