@<TRIPOS>MOLECULE
tmp/4pu2A00.pdb
 141 135 0 0 0
SMALL
GASTEIGER

@<TRIPOS>ATOM
      1  N         21.1830  -41.6030   28.0700 N.3   111  GLN111     -0.1245
      2  CA        20.2430  -42.0460   27.0490 C.3   111  GLN111      0.1566
      3  C         20.9540  -43.0770   26.1850 C.2   111  GLN111      0.2260
      4  O         21.9510  -42.7640   25.5340 O.2   111  GLN111     -0.2867
      5  CB        19.7370  -40.8760   26.2020 C.3   111  GLN111      0.0367
      6  CG        18.8230  -41.3010   25.0560 C.3   111  GLN111      0.0905
      7  CD        17.6600  -42.1600   25.5210 C.2   111  GLN111      0.2608
      8  OE1       17.0950  -41.9390   26.5920 O.2   111  GLN111     -0.2717
      9  NE2       17.3050  -43.1550   24.7180 N.am  111  GLN111     -0.0878
     10  N         19.1390  -45.8370   24.2300 N.3   113  GLU113     -0.1231
     11  CA        18.4440  -46.3480   23.0530 C.3   113  GLU113      0.1684
     12  C         18.6300  -45.3960   21.8760 C.2   113  GLU113      0.2434
     13  O         18.4730  -44.1860   22.0320 O.2   113  GLU113     -0.2733
     14  CB        16.9520  -46.5530   23.3200 C.3   113  GLU113      0.0402
     15  CG        16.2460  -47.2660   22.1640 C.3   113  GLU113      0.1161
     16  CD        14.7400  -47.3290   22.3160 C.2   113  GLU113      0.3649
     17  OE1       14.2280  -46.9510   23.3880 O.co2 113  GLU113     -0.2457
     18  OE2       14.0640  -47.7570   21.3560 O.co2 113  GLU113     -0.2457
     19  N         18.9530  -45.9380   20.6870 N.am  114  PRO114     -0.2729
     20  CA        19.1880  -47.3550   20.3770 C.3   114  PRO114      0.1401
     21  C         20.6060  -47.8400   20.7000 C.2   114  PRO114      0.2269
     22  O         20.7630  -48.9560   21.1990 O.2   114  PRO114     -0.2865
     23  CB        18.9260  -47.4250   18.8700 C.3   114  PRO114      0.0296
     24  CG        19.2810  -46.0830   18.3730 C.3   114  PRO114      0.0237
     25  CD        18.9010  -45.1180   19.4650 C.3   114  PRO114      0.0939
     26  N         16.6840  -33.2950   26.5460 N.3   246  PHE246     -0.1227
     27  CA        16.3160  -34.6450   26.1330 C.3   246  PHE246      0.1736
     28  C         15.8430  -34.6640   24.6830 C.2   246  PHE246      0.2595
     29  O         14.9860  -33.8710   24.2900 O.2   246  PHE246     -0.2718
     30  CB        15.2250  -35.1910   27.0560 C.3   246  PHE246      0.0547
     31  CG        15.1400  -36.6910   27.0850 C.ar  246  PHE246     -0.0202
     32  CD1       16.1270  -37.4460   27.6990 C.ar  246  PHE246     -0.0042
     33  CD2       14.0600  -37.3460   26.5200 C.ar  246  PHE246     -0.0042
     34  CE1       16.0410  -38.8270   27.7330 C.ar  246  PHE246     -0.0003
     35  CE2       13.9680  -38.7230   26.5530 C.ar  246  PHE246     -0.0003
     36  CZ        14.9580  -39.4650   27.1610 C.ar  246  PHE246     -0.0000
     37  N         16.4020  -35.5790   23.8950 N.am  247  ASN247     -0.1974
     38  CA        16.1190  -35.6460   22.4650 C.3   247  ASN247      0.1688
     39  C         14.7120  -36.1310   22.1380 C.2   247  ASN247      0.2292
     40  O         14.1220  -35.7060   21.1470 O.2   247  ASN247     -0.2864
     41  CB        17.1270  -36.5650   21.7690 C.3   247  ASN247      0.1181
     42  CG        18.4840  -35.9180   21.5880 C.2   247  ASN247      0.2629
     43  OD1       18.6040  -34.6940   21.5180 O.2   247  ASN247     -0.2716
     44  ND2       19.5200  -36.7450   21.4990 N.am  247  ASN247     -0.0877
     45  N         10.7740  -37.9050   23.9040 N.3   248  GLY248     -0.1210
     46  CA         9.7470  -37.5950   24.8810 C.3   248  GLY248      0.1956
     47  C         10.0430  -38.2320   26.2230 C.2   248  GLY248      0.2611
     48  O         10.0180  -37.5710   27.2580 O.2   248  GLY248     -0.2717
     49  N         10.3250  -39.5270   26.2010 N.am  249  ALA249     -0.1979
     50  CA        10.6250  -40.2640   27.4190 C.3   249  ALA249      0.1597
     51  C         11.2890  -41.5870   27.0710 C.2   249  ALA249      0.2287
     52  O         11.2900  -41.9970   25.9100 O.2   249  ALA249     -0.2864
     53  CB         9.3620  -40.4920   28.2300 C.3   249  ALA249      0.0319
     54  N         12.0040  -45.7550   28.4220 N.3   250  GLU250     -0.1245
     55  CA        11.4350  -46.8130   29.2530 C.3   250  GLU250      0.1567
     56  C         12.4630  -47.6740   29.9840 C.2   250  GLU250      0.2260
     57  O         12.2360  -48.8690   30.1730 O.2   250  GLU250     -0.2867
     58  CB        10.5560  -47.7280   28.3910 C.3   250  GLU250      0.0388
     59  CG        11.3180  -48.5780   27.3630 C.3   250  GLU250      0.1160
     60  CD        11.3440  -47.9670   25.9770 C.2   250  GLU250      0.3649
     61  OE1       11.2210  -46.7260   25.8570 O.co2 250  GLU250     -0.2457
     62  OE2       11.4880  -48.7370   25.0000 O.co2 250  GLU250     -0.2457
     63  N          2.4680  -44.7780   28.3110 N.3   283  HIS283     -0.1226
     64  CA         3.3050  -45.3780   27.2770 C.3   283  HIS283      0.1752
     65  C          4.5700  -46.0040   27.8550 C.2   283  HIS283      0.2595
     66  O          4.8490  -47.1810   27.6210 O.2   283  HIS283     -0.2718
     67  CB         3.6780  -44.3240   26.2310 C.3   283  HIS283      0.0759
     68  CG         4.5650  -44.8370   25.1420 C.ar  283  HIS283      0.0818
     69  ND1        4.0850  -45.2230   23.9100 N.ar  283  HIS283     -0.2268
     70  CD2        5.9070  -45.0190   25.0940 C.ar  283  HIS283      0.1154
     71  CE1        5.0880  -45.6250   23.1530 C.ar  283  HIS283      0.1986
     72  NE2        6.2060  -45.5120   23.8490 N.ar  283  HIS283     -0.2212
     73  N          5.3300  -45.2210   28.6140 N.am  284  GLU284     -0.1979
     74  CA         6.5950  -45.7030   29.1540 C.3   284  GLU284      0.1602
     75  C          6.3800  -46.8500   30.1390 C.2   284  GLU284      0.2287
     76  O          7.1970  -47.7640   30.2130 O.2   284  GLU284     -0.2864
     77  CB         7.3690  -44.5720   29.8380 C.3   284  GLU284      0.0415
     78  CG         7.6890  -43.3810   28.9420 C.3   284  GLU284      0.1163
     79  CD         8.3020  -43.7810   27.6130 C.2   284  GLU284      0.3649
     80  OE1        9.0920  -44.7480   27.5820 O.co2 284  GLU284     -0.2457
     81  OE2        7.9900  -43.1260   26.5950 O.co2 284  GLU284     -0.2457
     82  N          5.6690  -50.1560   28.3340 N.3   287  HIS287     -0.1241
     83  CA         6.8750  -50.7460   27.7580 C.3   287  HIS287      0.1621
     84  C          7.4810  -51.8330   28.6450 C.2   287  HIS287      0.2264
     85  O          8.2350  -52.6800   28.1640 O.2   287  HIS287     -0.2867
     86  CB         7.9370  -49.6730   27.5070 C.3   287  HIS287      0.0745
     87  CG         7.9230  -49.1160   26.1200 C.ar  287  HIS287      0.0817
     88  ND1        7.8790  -49.9110   24.9960 N.ar  287  HIS287     -0.2268
     89  CD2        7.9730  -47.8370   25.6710 C.ar  287  HIS287      0.1154
     90  CE1        7.8860  -49.1510   23.9160 C.ar  287  HIS287      0.1986
     91  NE2        7.9450  -47.8870   24.3020 N.ar  287  HIS287     -0.2212
     92  N          7.1950  -50.5250   19.7980 N.3   306  GLU306     -0.1245
     93  CA         6.6950  -49.1560   19.6700 C.3   306  GLU306      0.1567
     94  C          5.2760  -49.0960   19.1030 C.2   306  GLU306      0.2260
     95  O          4.4380  -48.3530   19.6080 O.2   306  GLU306     -0.2867
     96  CB         7.6330  -48.3210   18.7930 C.3   306  GLU306      0.0388
     97  CG         9.0320  -48.1010   19.3710 C.3   306  GLU306      0.1160
     98  CD         9.0200  -47.4460   20.7450 C.2   306  GLU306      0.3649
     99  OE1        7.9920  -46.8440   21.1220 O.co2 306  GLU306     -0.2457
    100  OE2       10.0450  -47.5350   21.4530 O.co2 306  GLU306     -0.2457
    101  N         18.6800  -44.1250   14.2910 N.3   358  ASN358     -0.1240
    102  CA        17.9870  -42.9980   14.9150 C.3   358  ASN358      0.1653
    103  C         17.0350  -42.2840   13.9560 C.2   358  ASN358      0.2266
    104  O         16.1380  -41.5610   14.3890 O.2   358  ASN358     -0.2867
    105  CB        19.0020  -41.9960   15.4750 C.3   358  ASN358      0.1155
    106  CG        19.4910  -42.3720   16.8650 C.2   358  ASN358      0.2627
    107  OD1       18.6940  -42.5820   17.7790 O.2   358  ASN358     -0.2716
    108  ND2       20.8050  -42.4600   17.0280 N.am  358  ASN358     -0.0877
    109  N         12.9130  -43.7160   14.1100 N.3   361  TYR361     -0.1241
    110  CA        11.9320  -43.5170   15.1690 C.3   361  TYR361      0.1605
    111  C         10.8780  -42.5610   14.6380 C.2   361  TYR361      0.2264
    112  O         10.7990  -41.4040   15.0470 O.2   361  TYR361     -0.2867
    113  CB        12.6020  -42.9880   16.4370 C.3   361  TYR361      0.0534
    114  CG        13.3610  -44.0780   17.1590 C.ar  361  TYR361     -0.0201
    115  CD1       14.5530  -44.5740   16.6470 C.ar  361  TYR361     -0.0009
    116  CD2       12.8680  -44.6350   18.3310 C.ar  361  TYR361     -0.0009
    117  CE1       15.2410  -45.5820   17.2890 C.ar  361  TYR361      0.0417
    118  CE2       13.5500  -45.6440   18.9810 C.ar  361  TYR361      0.0417
    119  CZ        14.7350  -46.1130   18.4550 C.ar  361  TYR361      0.1957
    120  OH        15.4170  -47.1160   19.0980 O.3   361  TYR361     -0.2866
    121  N          5.8340  -45.8000   14.5830 N.3   365  TYR365     -0.1241
    122  CA         5.0200  -45.5750   15.7740 C.3   365  TYR365      0.1605
    123  C          3.5200  -45.5980   15.4980 C.2   365  TYR365      0.2264
    124  O          2.8070  -46.4770   15.9820 O.2   365  TYR365     -0.2867
    125  CB         5.3880  -44.2370   16.4130 C.3   365  TYR365      0.0534
    126  CG         6.5920  -44.2970   17.3210 C.ar  365  TYR365     -0.0201
    127  CD1        7.8750  -44.4150   16.8030 C.ar  365  TYR365     -0.0009
    128  CD2        6.4450  -44.2240   18.7000 C.ar  365  TYR365     -0.0009
    129  CE1        8.9780  -44.4660   17.6350 C.ar  365  TYR365      0.0417
    130  CE2        7.5400  -44.2730   19.5380 C.ar  365  TYR365      0.0417
    131  CZ         8.8030  -44.3940   19.0010 C.ar  365  TYR365      0.1957
    132  OH         9.8950  -44.4440   19.8340 O.3   365  TYR365     -0.2866
    133  N         20.7730  -35.7550   15.7260 N.3   797  GLN797     -0.1245
    134  CA        19.3920  -36.2350   15.7930 C.3   797  GLN797      0.1566
    135  C         18.3900  -35.1080   15.5860 C.2   797  GLN797      0.2260
    136  O         17.4030  -35.2670   14.8680 O.2   797  GLN797     -0.2867
    137  CB        19.1250  -36.9220   17.1320 C.3   797  GLN797      0.0367
    138  CG        19.7260  -38.3120   17.2390 C.3   797  GLN797      0.0905
    139  CD        19.5510  -38.9130   18.6170 C.2   797  GLN797      0.2608
    140  OE1       20.4580  -38.8560   19.4440 O.2   797  GLN797     -0.2717
    141  NE2       18.3830  -39.4950   18.8720 N.am  797  GLN797     -0.0878
@<TRIPOS>BOND
     1   103   104    2
     2   103   102    1
     3   109   110    1
     4   101   102    1
     5   121   122    1
     6   111   112    2
     7   111   110    1
     8   136   135    2
     9   102   105    1
    10   110   113    1
    11   105   106    1
    12   123   122    1
    13   123   124    2
    14   135   134    1
    15   133   134    1
    16   122   125    1
    17   134   137    1
    18   125   126    1
    19   113   114    1
    20   115   114   ar
    21   115   117   ar
    22   127   126   ar
    23   127   129   ar
    24   106   108   am
    25   106   107    2
    26   137   138    1
    27   114   116   ar
    28   138   139    1
    29   117   119   ar
    30   126   128   ar
    31   129   131   ar
    32   116   118   ar
    33    24    23    1
    34    24    25    1
    35   119   118   ar
    36   119   120    1
    37   139   141   am
    38   139   140    2
    39   128   130   ar
    40    96    97    1
    41    96    93    1
    42    23    20    1
    43   131   130   ar
    44   131   132    1
    45    94    95    2
    46    94    93    1
    47    97    98    1
    48    25    19    1
    49    93    92    1
    50    20    19    1
    51    20    21    1
    52    19    12   am
    53    21    22    2
    54    98    99   ar
    55    98   100   ar
    56    40    39    2
    57    18    16   ar
    58    44    42   am
    59    43    42    2
    60    42    41    1
    61    41    38    1
    62    12    13    2
    63    12    11    1
    64    39    38    1
    65    15    16    1
    66    15    14    1
    67    16    17   ar
    68    38    37    1
    69    11    14    1
    70    11    10    1
    71    71    72   ar
    72    71    69   ar
    73    72    70   ar
    74    37    28   am
    75    45    46    1
    76    69    68   ar
    77    90    91   ar
    78    90    88   ar
    79    29    28    2
    80    91    89   ar
    81    28    27    1
    82     9     7   am
    83    46    47    1
    84    88    87   ar
    85    62    60   ar
    86     6     7    1
    87     6     5    1
    88    70    68   ar
    89    68    67    1
    90     7     8    2
    91     4     3    2
    92    89    87   ar
    93    61    60   ar
    94    52    51    2
    95    60    59    1
    96    87    86    1
    97    27    26    1
    98    27    30    1
    99     3     2    1
   100    49    47   am
   101    49    50    1
   102     5     2    1
   103    47    48    2
   104    67    64    1
   105    33    35   ar
   106    33    31   ar
   107    35    36   ar
   108    81    79   ar
   109     2     1    1
   110    30    31    1
   111    51    50    1
   112    31    32   ar
   113    36    34   ar
   114    64    65    1
   115    64    63    1
   116    59    58    1
   117    50    53    1
   118    86    83    1
   119    80    79   ar
   120    79    78    1
   121    66    65    2
   122    32    34   ar
   123    83    82    1
   124    83    84    1
   125    65    73   am
   126    85    84    2
   127    58    55    1
   128    54    55    1
   129    73    74    1
   130    78    77    1
   131    74    77    1
   132    74    75    1
   133    55    56    1
   134    56    57    2
   135    75    76    2
