@<TRIPOS>MOLECULE
tmp/4pu5A00.pdb
 218 204 0 0 0
SMALL
GASTEIGER

@<TRIPOS>ATOM
      1  N         51.6610   27.4190   41.9140 N.3    75  GLU75      -0.1245
      2  CA        51.3240   26.7210   43.1480 C.3    75  GLU75       0.1567
      3  C         49.8540   26.3410   43.1640 C.2    75  GLU75       0.2260
      4  O         49.3640   25.8050   44.1540 O.2    75  GLU75      -0.2867
      5  CB        51.5890   27.6100   44.3590 C.3    75  GLU75       0.0388
      6  CG        53.0420   27.9200   44.6410 C.3    75  GLU75       0.1160
      7  CD        53.1880   28.8580   45.8220 C.2    75  GLU75       0.3649
      8  OE1       53.2040   28.3660   46.9770 O.co2  75  GLU75      -0.2457
      9  OE2       53.2580   30.0840   45.5900 O.co2  75  GLU75      -0.2457
     10  N         59.1960   34.6110   36.8080 N.3   105  ALA105     -0.1245
     11  CA        59.4180   35.7200   37.7160 C.3   105  ALA105      0.1562
     12  C         60.8720   36.1420   37.6100 C.2   105  ALA105      0.2260
     13  O         61.7680   35.3040   37.6070 O.2   105  ALA105     -0.2867
     14  CB        59.0830   35.3170   39.1430 C.3   105  ALA105      0.0290
     15  N         53.5360   32.3740   36.9200 N.3   153  VAL153     -0.1231
     16  CA        53.8780   32.9380   38.2240 C.3   153  VAL153      0.1692
     17  C         53.2860   32.0660   39.3260 C.2   153  VAL153      0.2592
     18  O         52.3730   31.2710   39.0950 O.2   153  VAL153     -0.2718
     19  CB        53.3960   34.4000   38.4170 C.3   153  VAL153      0.0266
     20  CG1       54.0260   35.3240   37.3870 C.3   153  VAL153      0.0020
     21  CG2       51.8840   34.4920   38.3680 C.3   153  VAL153      0.0020
     22  N         53.8130   32.2400   40.5320 N.am  154  ALA154     -0.1966
     23  CA        53.4460   31.4200   41.6760 C.3   154  ALA154      0.1728
     24  C         52.1680   31.9190   42.3600 C.2   154  ALA154      0.2617
     25  O         51.3940   32.6760   41.7770 O.2   154  ALA154     -0.2715
     26  CB        54.6040   31.3940   42.6540 C.3   154  ALA154      0.0334
     27  N         51.9370   31.4660   43.5880 N.am  155  GLY155     -0.1940
     28  CA        50.7790   31.8820   44.3560 C.3   155  GLY155      0.2014
     29  C         49.5820   30.9650   44.1880 C.2   155  GLY155      0.2639
     30  O         49.3490   30.4190   43.1000 O.2   155  GLY155     -0.2714
     31  N         48.8010   30.8060   45.2560 N.am  156  VAL156     -0.1963
     32  CA        47.7080   29.8350   45.2480 C.3   156  VAL156      0.1727
     33  C         46.4140   30.3290   44.6010 C.2   156  VAL156      0.2616
     34  O         45.5670   29.5180   44.2380 O.2   156  VAL156     -0.2715
     35  CB        47.3770   29.3280   46.6710 C.3   156  VAL156      0.0290
     36  CG1       48.6230   28.7660   47.3340 C.3   156  VAL156      0.0023
     37  CG2       46.7590   30.4370   47.5230 C.3   156  VAL156      0.0023
     38  N         46.2460   31.6400   44.4660 N.am  157  GLN157     -0.1977
     39  CA        44.9900   32.1720   43.9480 C.3   157  GLN157      0.1601
     40  C         44.9600   32.0900   42.4250 C.2   157  GLN157      0.2287
     41  O         46.0040   32.1500   41.7730 O.2   157  GLN157     -0.2864
     42  CB        44.7470   33.6150   44.4040 C.3   157  GLN157      0.0394
     43  CG        44.6130   33.7790   45.9160 C.3   157  GLN157      0.0908
     44  CD        43.5530   32.8710   46.5190 C.2   157  GLN157      0.2608
     45  OE1       42.5120   32.6230   45.9170 O.2   157  GLN157     -0.2717
     46  NE2       43.8200   32.3680   47.7160 N.am  157  GLN157     -0.0878
     47  N         44.7940   33.1600   38.6770 N.3   159  LYS159     -0.1245
     48  CA        45.3500   34.3590   38.0820 C.3   159  LYS159      0.1561
     49  C         45.9010   34.0670   36.7020 C.2   159  LYS159      0.2260
     50  O         46.0680   32.9100   36.3170 O.2   159  LYS159     -0.2867
     51  CB        46.4830   34.9080   38.9520 C.3   159  LYS159      0.0271
     52  CG        47.6440   33.9310   39.1180 C.3   159  LYS159      0.0035
     53  CD        48.8120   34.5190   39.8930 C.3   159  LYS159      0.0206
     54  CE        48.4970   34.6990   41.3640 C.3   159  LYS159      0.1093
     55  NZ        48.4420   33.3910   42.0670 N.3   159  LYS159     -0.1314
     56  N         49.8370   41.0810   36.3750 N.3   181  ILE181     -0.1245
     57  CA        49.2490   39.8880   36.9500 C.3   181  ILE181      0.1561
     58  C         47.8130   40.2140   37.3010 C.2   181  ILE181      0.2260
     59  O         47.5470   41.1440   38.0640 O.2   181  ILE181     -0.2867
     60  CB        50.0130   39.4370   38.1990 C.3   181  ILE181      0.0252
     61  CG1       51.4620   39.0990   37.8260 C.3   181  ILE181      0.0019
     62  CG2       49.3260   38.2400   38.8520 C.3   181  ILE181      0.0019
     63  CD1       52.3620   38.8540   39.0100 C.3   181  ILE181      0.0001
     64  N         44.4630   38.9590   39.0360 N.3   183  LYS183     -0.1245
     65  CA        44.0570   38.0300   40.0790 C.3   183  LYS183      0.1561
     66  C         42.5420   37.9880   40.2090 C.2   183  LYS183      0.2260
     67  O         41.8820   39.0270   40.2940 O.2   183  LYS183     -0.2867
     68  CB        44.6820   38.4430   41.4140 C.3   183  LYS183      0.0271
     69  CG        46.1970   38.5420   41.3710 C.3   183  LYS183      0.0035
     70  CD        46.7580   39.1260   42.6550 C.3   183  LYS183      0.0206
     71  CE        46.5860   38.1670   43.8150 C.3   183  LYS183      0.1093
     72  NZ        47.3560   38.5940   45.0160 N.3   183  LYS183     -0.1314
     73  N         41.8450   43.4460   48.4620 N.3   194  GLU194     -0.1245
     74  CA        43.2410   43.6320   48.0760 C.3   194  GLU194      0.1567
     75  C         43.4760   45.0110   47.4420 C.2   194  GLU194      0.2260
     76  O         44.5000   45.6430   47.6860 O.2   194  GLU194     -0.2867
     77  CB        43.6990   42.5050   47.1420 C.3   194  GLU194      0.0388
     78  CG        45.2130   42.4210   46.9730 C.3   194  GLU194      0.1160
     79  CD        45.6650   41.1660   46.2490 C.2   194  GLU194      0.3649
     80  OE1       44.8220   40.2760   46.0040 O.co2 194  GLU194     -0.2457
     81  OE2       46.8700   41.0760   45.9290 O.co2 194  GLU194     -0.2457
     82  N         53.3450   47.8110   44.8630 N.3   209  ALA209     -0.1245
     83  CA        52.9690   47.6340   43.4680 C.3   209  ALA209      0.1562
     84  C         51.6900   48.3970   43.1520 C.2   209  ALA209      0.2260
     85  O         50.8010   48.5280   43.9980 O.2   209  ALA209     -0.2867
     86  CB        52.7940   46.1550   43.1490 C.3   209  ALA209      0.0290
     87  N         47.4400   43.8920   38.6700 N.3   224  VAL224     -0.1231
     88  CA        48.6480   44.3170   39.3610 C.3   224  VAL224      0.1692
     89  C         49.7720   44.5230   38.3620 C.2   224  VAL224      0.2592
     90  O         50.0840   43.6260   37.5770 O.2   224  VAL224     -0.2718
     91  CB        49.0950   43.2560   40.3810 C.3   224  VAL224      0.0266
     92  CG1       50.2390   43.7840   41.2560 C.3   224  VAL224      0.0020
     93  CG2       47.9140   42.8210   41.2330 C.3   224  VAL224      0.0020
     94  N         50.3820   45.7050   38.3990 N.am  225  GLU225     -0.1966
     95  CA        51.4970   46.0230   37.5230 C.3   225  GLU225      0.1733
     96  C         52.7620   45.3630   38.0410 C.2   225  GLU225      0.2616
     97  O         53.1160   45.5140   39.2150 O.2   225  GLU225     -0.2715
     98  CB        51.6950   47.5350   37.4560 C.3   225  GLU225      0.0429
     99  CG        52.7710   47.9800   36.4850 C.3   225  GLU225      0.1163
    100  CD        52.8840   49.4870   36.4060 C.2   225  GLU225      0.3649
    101  OE1       51.8440   50.1560   36.2610 O.co2 225  GLU225     -0.2457
    102  OE2       54.0130   50.0030   36.4940 O.co2 225  GLU225     -0.2457
    103  N         53.4490   44.6280   37.1690 N.am  226  ARG226     -0.1963
    104  CA        54.6490   43.9210   37.5760 C.3   226  ARG226      0.1729
    105  C         55.8270   44.8790   37.7270 C.2   226  ARG226      0.2616
    106  O         56.0510   45.7400   36.8750 O.2   226  ARG226     -0.2715
    107  CB        54.9920   42.8230   36.5700 C.3   226  ARG226      0.0348
    108  CG        53.9650   41.6940   36.5010 C.3   226  ARG226      0.0492
    109  CD        54.3690   40.6210   35.5080 C.3   226  ARG226      0.2205
    110  NE        55.5400   39.8810   35.9670 N.pl3 226  ARG226     -0.0865
    111  CZ        55.7600   38.5900   35.7340 C.cat 226  ARG226      0.5346
    112  NH1       54.8950   37.8660   35.0380 N.pl3 226  ARG226      0.1354
    113  NH2       56.8540   38.0180   36.2100 N.pl3 226  ARG226      0.1354
    114  N         56.5820   44.7220   38.8200 N.am  227  PHE227     -0.1960
    115  CA        57.7680   45.5360   39.0600 C.3   227  PHE227      0.1771
    116  C         59.0480   44.8460   38.5750 C.2   227  PHE227      0.2619
    117  O         60.1340   45.4250   38.6610 O.2   227  PHE227     -0.2715
    118  CB        57.8870   45.9190   40.5420 C.3   227  PHE227      0.0574
    119  CG        57.6740   44.7820   41.4900 C.ar  227  PHE227     -0.0200
    120  CD1       58.5620   43.7260   41.5350 C.ar  227  PHE227     -0.0042
    121  CD2       56.5940   44.7740   42.3560 C.ar  227  PHE227     -0.0042
    122  CE1       58.3710   42.6830   42.4100 C.ar  227  PHE227     -0.0003
    123  CE2       56.4020   43.7290   43.2360 C.ar  227  PHE227     -0.0003
    124  CZ        57.2860   42.6840   43.2580 C.ar  227  PHE227     -0.0000
    125  N         58.9190   43.6150   38.0790 N.am  228  ASP228     -0.1971
    126  CA        60.0360   42.9460   37.4110 C.3   228  ASP228      0.1709
    127  C         59.9400   43.1440   35.8940 C.2   228  ASP228      0.2293
    128  O         60.5840   42.4280   35.1230 O.2   228  ASP228     -0.2864
    129  CB        60.1140   41.4550   37.7730 C.3   228  ASP228      0.1436
    130  CG        58.8890   40.6710   37.3560 C.2   228  ASP228      0.3671
    131  OD1       57.8400   41.2830   37.0730 O.co2 228  ASP228     -0.2456
    132  OD2       58.9780   39.4250   37.3290 O.co2 228  ASP228     -0.2456
    133  N         64.2400   39.3900   40.1010 N.3   243  ILE243     -0.1245
    134  CA        63.7990   39.3270   41.4860 C.3   243  ILE243      0.1561
    135  C         63.8820   37.8980   42.0100 C.2   243  ILE243      0.2260
    136  O         63.9040   36.9380   41.2330 O.2   243  ILE243     -0.2867
    137  CB        62.3430   39.8260   41.6540 C.3   243  ILE243      0.0252
    138  CG1       61.3710   38.9270   40.8750 C.3   243  ILE243      0.0019
    139  CG2       62.2230   41.2690   41.1820 C.3   243  ILE243      0.0019
    140  CD1       59.9140   39.1510   41.1970 C.3   243  ILE243      0.0001
    141  N         62.1010   35.7330   45.6300 N.3   245  ASP245     -0.1239
    142  CA        61.3430   35.8740   46.8710 C.3   245  ASP245      0.1674
    143  C         62.2310   35.4720   48.0390 C.2   245  ASP245      0.2266
    144  O         63.3560   35.0050   47.8420 O.2   245  ASP245     -0.2867
    145  CB        60.0010   35.1240   46.8490 C.3   245  ASP245      0.1410
    146  CG        60.1480   33.6210   46.7080 C.2   245  ASP245      0.3668
    147  OD1       61.1470   33.0420   47.1800 O.co2 245  ASP245     -0.2456
    148  OD2       59.2310   33.0020   46.1250 O.co2 245  ASP245     -0.2456
    149  N         57.7070   28.2080   52.9690 N.3   257  LYS257     -0.1245
    150  CA        57.1430   29.5440   52.8190 C.3   257  LYS257      0.1561
    151  C         56.5710   30.0510   54.1470 C.2   257  LYS257      0.2260
    152  O         56.7400   31.2140   54.4820 O.2   257  LYS257     -0.2867
    153  CB        56.0880   29.5900   51.7100 C.3   257  LYS257      0.0271
    154  CG        54.8310   28.8050   51.9990 C.3   257  LYS257      0.0035
    155  CD        53.9940   28.6120   50.7450 C.3   257  LYS257      0.0206
    156  CE        53.0650   29.7770   50.4750 C.3   257  LYS257      0.1093
    157  NZ        52.0740   29.3670   49.4470 N.3   257  LYS257     -0.1314
    158  N         48.7020   36.4540   56.1530 N.3   311  ASP311     -0.1239
    159  CA        49.3190   35.5990   55.1370 C.3   311  ASP311      0.1674
    160  C         50.5890   36.2050   54.5480 C.2   311  ASP311      0.2266
    161  O         50.9010   35.9990   53.3730 O.2   311  ASP311     -0.2867
    162  CB        48.3250   35.2760   54.0220 C.3   311  ASP311      0.1410
    163  CG        48.6880   34.0080   53.2700 C.2   311  ASP311      0.3668
    164  OD1       49.1180   33.0360   53.9240 O.co2 311  ASP311     -0.2456
    165  OD2       48.5540   33.9820   52.0290 O.co2 311  ASP311     -0.2456
    166  N         53.7470   35.5410   54.2560 N.3   313  HIS313     -0.1241
    167  CA        54.7290   34.4660   54.3140 C.3   313  HIS313      0.1621
    168  C         55.9470   34.7840   53.4350 C.2   313  HIS313      0.2264
    169  O         56.0360   35.8690   52.8610 O.2   313  HIS313     -0.2867
    170  CB        54.0690   33.1500   53.8830 C.3   313  HIS313      0.0745
    171  CG        53.4070   33.2260   52.5450 C.ar  313  HIS313      0.0817
    172  ND1       54.1190   33.4230   51.3850 N.ar  313  HIS313     -0.2268
    173  CD2       52.1060   33.1530   52.1800 C.ar  313  HIS313      0.1154
    174  CE1       53.2860   33.4650   50.3600 C.ar  313  HIS313      0.1986
    175  NE2       52.0570   33.3020   50.8150 N.ar  313  HIS313     -0.2212
    176  N         57.0930   33.8410   50.4930 N.3   315  LYS315     -0.1231
    177  CA        56.9400   34.1120   49.0640 C.3   315  LYS315      0.1693
    178  C         56.2000   35.4360   48.8030 C.2   315  LYS315      0.2592
    179  O         56.0210   35.8290   47.6500 O.2   315  LYS315     -0.2718
    180  CB        56.2610   32.9290   48.3510 C.3   315  LYS315      0.0285
    181  CG        57.0770   31.6290   48.4120 C.3   315  LYS315      0.0035
    182  CD        56.4350   30.4730   47.6420 C.3   315  LYS315      0.0206
    183  CE        56.5240   30.6650   46.1370 C.3   315  LYS315      0.1093
    184  NZ        57.9340   30.6400   45.6610 N.3   315  LYS315     -0.1314
    185  N         55.8020   36.1360   49.8760 N.am  316  ASN316     -0.1974
    186  CA        55.1310   37.4350   49.7620 C.3   316  ASN316      0.1688
    187  C         56.0290   38.6270   50.1050 C.2   316  ASN316      0.2292
    188  O         55.5430   39.7440   50.3340 O.2   316  ASN316     -0.2864
    189  CB        53.8530   37.4620   50.6040 C.3   316  ASN316      0.1181
    190  CG        52.6900   36.7830   49.9180 C.2   316  ASN316      0.2629
    191  OD1       52.7350   36.5230   48.7110 O.2   316  ASN316     -0.2716
    192  ND2       51.6310   36.5150   50.6710 N.am  316  ASN316     -0.0877
    193  N         59.8140   40.0030   48.3390 N.3   318  SER318     -0.1217
    194  CA        60.8240   39.7400   47.3200 C.3   318  SER318      0.1889
    195  C         61.9070   40.8120   47.2930 C.2   318  SER318      0.2288
    196  O         61.7730   41.8720   47.9190 O.2   318  SER318     -0.2866
    197  CB        60.1770   39.6380   45.9310 C.3   318  SER318      0.2089
    198  OG        59.4950   38.4060   45.7540 O.3   318  SER318     -0.2183
    199  N         53.5590   43.4780   47.6450 N.3   332  TYR332     -0.1227
    200  CA        52.4800   42.8970   46.8620 C.3   332  TYR332      0.1736
    201  C         51.7160   41.8970   47.7130 C.2   332  TYR332      0.2595
    202  O         52.1910   41.4890   48.7730 O.2   332  TYR332     -0.2718
    203  CB        53.0420   42.2110   45.6140 C.3   332  TYR332      0.0548
    204  CG        54.0680   41.1580   45.9330 C.ar  332  TYR332     -0.0200
    205  CD1       53.7110   39.8180   46.0380 C.ar  332  TYR332     -0.0009
    206  CD2       55.3940   41.4990   46.1470 C.ar  332  TYR332     -0.0009
    207  CE1       54.6500   38.8530   46.3370 C.ar  332  TYR332      0.0417
    208  CE2       56.3380   40.5450   46.4500 C.ar  332  TYR332      0.0417
    209  CZ        55.9650   39.2240   46.5470 C.ar  332  TYR332      0.1957
    210  OH        56.9150   38.2760   46.8480 O.3   332  TYR332     -0.2866
    211  N         50.5310   41.5110   47.2470 N.am  333  ASP333     -0.1974
    212  CA        49.7140   40.5000   47.9080 C.3   333  ASP333      0.1709
    213  C         49.3620   40.9170   49.3340 C.2   333  ASP333      0.2293
    214  O         49.3920   40.1000   50.2590 O.2   333  ASP333     -0.2864
    215  CB        50.4190   39.1410   47.9030 C.3   333  ASP333      0.1436
    216  CG        49.4630   37.9750   48.1000 C.2   333  ASP333      0.3671
    217  OD1       48.2320   38.1970   48.1510 O.co2 333  ASP333     -0.2456
    218  OD2       49.9360   36.8240   48.1820 O.co2 333  ASP333     -0.2456
@<TRIPOS>BOND
     1   112   111    1
     2   128   127    2
     3   109   110    1
     4   109   108    1
     5   111   110    2
     6   111   113    1
     7   127   126    1
     8   101   100   ar
     9    50    49    2
    10    56    57    1
    11   100    99    1
    12   100   102   ar
    13    99    98    1
    14   108   107    1
    15   107   104    1
    16    49    48    1
    17    10    11    1
    18   106   105    2
    19    15    16    1
    20    57    58    1
    21    57    60    1
    22   131   130   ar
    23   103   104    1
    24   103    96   am
    25    58    59    2
    26   132   130   ar
    27   130   129    1
    28    20    19    1
    29   126   129    1
    30   126   125    1
    31    98    95    1
    32    95    96    1
    33    95    94    1
    34   104   105    1
    35    90    89    2
    36    13    12    2
    37    12    11    1
    38    11    14    1
    39   105   114   am
    40    61    60    1
    41    61    63    1
    42    96    97    2
    43   125   116   am
    44    48    47    1
    45    48    51    1
    46    60    62    1
    47    16    19    1
    48    16    17    1
    49    89    94   am
    50    89    88    1
    51    21    19    1
    52   116   117    2
    53   116   115    1
    54    87    88    1
    55   114   115    1
    56    51    52    1
    57    64    65    1
    58   115   118    1
    59    18    17    2
    60    52    53    1
    61    17    22   am
    62    88    91    1
    63    53    54    1
    64    65    66    1
    65    65    68    1
    66   133   134    1
    67    66    67    2
    68    91    93    1
    69    91    92    1
    70    22    23    1
    71   118   119    1
    72   138   140    1
    73   138   137    1
    74   139   137    1
    75   136   135    2
    76    54    55    1
    77    69    68    1
    78    69    70    1
    79   134   137    1
    80   134   135    1
    81   119   120   ar
    82   119   121   ar
    83   120   122   ar
    84    23    24    1
    85    23    26    1
    86    41    40    2
    87    25    24    2
    88     1     2    1
    89   121   123   ar
    90    24    27   am
    91   122   124   ar
    92    40    39    1
    93    70    71    1
    94    30    29    2
    95     2     3    1
    96     2     5    1
    97    86    83    1
    98    84    83    1
    99    84    85    2
   100     3     4    2
   101   123   124   ar
   102    83    82    1
   103    27    28    1
   104    71    72    1
   105    39    42    1
   106    39    38    1
   107    29    28    1
   108    29    31   am
   109    34    33    2
   110     5     6    1
   111    42    43    1
   112    38    33   am
   113    33    32    1
   114     6     7    1
   115    32    31    1
   116    32    35    1
   117     9     7   ar
   118   203   204    1
   119   203   200    1
   120   141   142    1
   121   184   183    1
   122   198   197    1
   123     7     8   ar
   124    43    44    1
   125    45    44    2
   126    81    79   ar
   127   197   194    1
   128   204   205   ar
   129   204   206   ar
   130    80    79   ar
   131   205   207   ar
   132   148   146   ar
   133   183   182    1
   134   206   208   ar
   135    79    78    1
   136   207   209   ar
   137   208   209   ar
   138    44    46   am
   139   209   210    1
   140    35    36    1
   141    35    37    1
   142   146   145    1
   143   146   147   ar
   144   145   142    1
   145   200   199    1
   146   200   201    1
   147   142   143    1
   148    78    77    1
   149    77    74    1
   150   211   201   am
   151   211   212    1
   152   195   194    1
   153   195   196    2
   154   194   193    1
   155    75    76    2
   156    75    74    1
   157   182   181    1
   158   179   178    2
   159   201   202    2
   160   144   143    2
   161   215   212    1
   162   215   216    1
   163   212   213    1
   164    74    73    1
   165   216   217   ar
   166   216   218   ar
   167   180   181    1
   168   180   177    1
   169   191   190    2
   170   178   177    1
   171   178   185   am
   172   177   176    1
   173   213   214    2
   174   157   156    1
   175   186   185    1
   176   186   187    1
   177   186   189    1
   178   190   189    1
   179   190   192   am
   180   187   188    2
   181   174   175   ar
   182   174   172   ar
   183   156   155    1
   184   155   154    1
   185   175   173   ar
   186   172   171   ar
   187   153   154    1
   188   153   150    1
   189   165   163   ar
   190   173   171   ar
   191   171   170    1
   192   150   149    1
   193   150   151    1
   194   169   168    2
   195   163   164   ar
   196   163   162    1
   197   161   160    2
   198   168   167    1
   199   170   167    1
   200   162   159    1
   201   151   152    2
   202   166   167    1
   203   160   159    1
   204   159   158    1
