@<TRIPOS>MOLECULE
tmp/4pu6B00.pdb
 70 63 0 0 0
SMALL
GASTEIGER

@<TRIPOS>ATOM
      1  N         -3.0850   21.6570   17.3260 N.3     1  THR1       -0.1218
      2  CA        -1.6610   21.7310   17.6410 C.3     1  THR1        0.1862
      3  C         -1.0550   23.0570   17.2150 C.2     1  THR1        0.2287
      4  O         -1.3020   23.5250   16.1160 O.2     1  THR1       -0.2866
      5  CB        -0.8810   20.5620   17.0080 C.3     1  THR1        0.1770
      6  OG1       -1.3480   19.3580   17.5970 O.3     1  THR1       -0.2211
      7  CG2        0.6150   20.6590   17.3120 C.3     1  THR1        0.0375
      8  N         -0.5480   21.1320   22.3370 N.3    19  THR19      -0.1218
      9  CA        -1.7410   20.6280   21.6840 C.3    19  THR19       0.1862
     10  C         -2.8190   20.2040   22.6390 C.2    19  THR19       0.2287
     11  O         -2.5680   20.0130   23.8470 O.2    19  THR19      -0.2866
     12  CB        -1.4490   19.3810   20.8290 C.3    19  THR19       0.1770
     13  OG1       -2.5640   19.1420   19.9680 O.3    19  THR19      -0.2211
     14  CG2       -1.2810   18.1320   21.7140 C.3    19  THR19       0.0375
     15  N         -4.5090   17.5820   21.3270 N.3    21  GLY21      -0.1210
     16  CA        -4.5450   16.2300   20.8130 C.3    21  GLY21       0.1956
     17  C         -5.7090   16.0510   19.8490 C.2    21  GLY21       0.2611
     18  O         -6.4320   17.0100   19.5220 O.2    21  GLY21      -0.2717
     19  N         -5.8800   14.8080   19.4070 N.am   22  LEU22      -0.1979
     20  CA        -6.8570   14.4070   18.3910 C.3    22  LEU22       0.1596
     21  C         -8.2960   14.4240   18.9530 C.2    22  LEU22       0.2287
     22  O         -8.5620   13.9090   20.0450 O.2    22  LEU22      -0.2864
     23  CB        -6.4530   13.0230   17.8670 C.3    22  LEU22       0.0297
     24  CG        -7.1780   12.1740   16.8120 C.3    22  LEU22       0.0022
     25  CD1       -7.8100   10.9040   17.4480 C.3    22  LEU22       0.0001
     26  CD2       -8.2130   12.9650   15.9990 C.3    22  LEU22       0.0001
     27  N         -4.9650    9.0190   25.8130 N.3    29  ARG29      -0.1245
     28  CA        -4.1810    8.9200   24.5660 C.3    29  ARG29       0.1563
     29  C         -3.0920   10.0220   24.5250 C.2    29  ARG29       0.2260
     30  O         -3.3410   11.2170   24.8010 O.2    29  ARG29      -0.2867
     31  CB        -5.0950    8.9900   23.3240 C.3    29  ARG29       0.0307
     32  CG        -4.3620    8.9600   21.9720 C.3    29  ARG29       0.0489
     33  CD        -3.9400   10.3240   21.5170 C.3    29  ARG29       0.2205
     34  NE        -3.4530   10.3730   20.1320 N.pl3  29  ARG29      -0.0865
     35  CZ        -3.2830   11.5220   19.4700 C.cat  29  ARG29       0.5346
     36  NH1       -3.5600   12.6860   20.0840 N.pl3  29  ARG29       0.1354
     37  NH2       -2.8410   11.5270   18.2090 N.pl3  29  ARG29       0.1354
     38  N         -0.2450   11.7720   22.0340 N.3    31  GLY31      -0.1210
     39  CA         0.1860   11.9140   20.6580 C.3    31  GLY31       0.1956
     40  C          1.6580   12.2110   20.5250 C.2    31  GLY31       0.2612
     41  O          2.4490   12.0110   21.4500 O.2    31  GLY31      -0.2717
     42  N          2.0330   12.7220   19.3600 N.am   32  ASP32      -0.1959
     43  CA         3.4170   13.0350   19.0600 C.3    32  ASP32       0.1840
     44  C          3.8850   14.3520   19.7250 C.2    32  ASP32       0.2622
     45  O          5.1020   14.5830   19.9030 O.2    32  ASP32      -0.2715
     46  CB         3.5360   13.2290   17.5540 C.3    32  ASP32       0.1450
     47  CG         2.7700   14.4570   17.0920 C.2    32  ASP32       0.3671
     48  OD1        1.5210   14.4450   17.1820 O.co2  32  ASP32      -0.2456
     49  OD2        3.4090   15.4420   16.6660 O.co2  32  ASP32      -0.2456
     50  N          2.9540   15.2270   20.0750 N.am   33  SER33      -0.1950
     51  CA         3.3920   16.5910   20.5110 C.3    33  SER33       0.1924
     52  C          4.2730   16.6690   21.7510 C.2    33  SER33       0.2314
     53  O          5.0680   17.5990   21.8460 O.2    33  SER33      -0.2863
     54  CB         2.2200   17.5510   20.7170 C.3    33  SER33       0.2116
     55  OG         1.4490   17.6170   19.5430 O.3    33  SER33      -0.2180
     56  N          3.1820   18.6600   13.2420 N.3    51  THR51      -0.1203
     57  CA         1.7450   18.6640   13.4760 C.3    51  THR51       0.1994
     58  C          1.1180   17.7530   12.4640 C.2    51  THR51       0.2618
     59  O          1.7000   17.5020   11.4020 O.2    51  THR51      -0.2717
     60  CB         1.1200   20.1170   13.4060 C.3    51  THR51       0.1784
     61  OG1       -0.3230   20.0500   13.2620 O.3    51  THR51      -0.2211
     62  CG2        1.7560   20.9190   12.2670 C.3    51  THR51       0.0376
     63  N         -0.0510   17.2190   12.7960 N.am   52  GLY52      -0.1956
     64  CA        -0.6780   16.2350   11.9200 C.3    52  GLY52       0.1869
     65  C         -1.1180   15.0010   12.6690 C.2    52  GLY52       0.2309
     66  O         -1.5170   15.0850   13.8510 O.2    52  GLY52      -0.2863
     67  N         -0.6760   12.0860   14.8540 N.3    54  GLY54      -0.1225
     68  CA         0.3050   11.7640   15.8700 C.3    54  GLY54       0.1811
     69  C          0.9510   10.4090   15.6510 C.2    54  GLY54       0.2280
     70  O          2.1870   10.2920   15.6340 O.2    54  GLY54      -0.2866
@<TRIPOS>BOND
     1    59    58    2
     2    64    65    1
     3    64    63    1
     4    62    60    1
     5    58    63   am
     6    58    57    1
     7    65    66    2
     8    56    57    1
     9    61    60    1
    10    60    57    1
    11    67    68    1
    12    70    69    2
    13    69    68    1
    14    26    24    1
    15     4     3    2
    16    49    47   ar
    17    24    25    1
    18    24    23    1
    19     5     7    1
    20     5     6    1
    21     5     2    1
    22    47    48   ar
    23    47    46    1
    24     3     2    1
    25     1     2    1
    26    46    43    1
    27    23    20    1
    28    37    35    1
    29    20    21    1
    30    20    19    1
    31    21    22    2
    32    43    42    1
    33    43    44    1
    34    42    40   am
    35    19    17   am
    36    35    36    1
    37    35    34    2
    38    18    17    2
    39    55    54    1
    40    44    45    2
    41    44    50   am
    42    17    16    1
    43    13    12    1
    44    50    51    1
    45    34    33    1
    46    51    54    1
    47    51    52    1
    48    40    39    1
    49    40    41    2
    50    39    38    1
    51    16    15    1
    52    12     9    1
    53    12    14    1
    54    33    32    1
    55     9     8    1
    56     9    10    1
    57    52    53    2
    58    32    31    1
    59    10    11    2
    60    31    28    1
    61    29    28    1
    62    29    30    2
    63    28    27    1
