@<TRIPOS>MOLECULE
tmp/4pu9A00.pdb
 202 194 0 0 0
SMALL
GASTEIGER

@<TRIPOS>ATOM
      1  N        -14.5340   28.3780  -22.4000 N.3    39  GLU39      -0.1231
      2  CA       -13.8550   27.2610  -22.9950 C.3    39  GLU39       0.1699
      3  C        -14.8770   26.4640  -23.7220 C.2    39  GLU39       0.2592
      4  O        -14.7080   26.1470  -24.9070 O.2    39  GLU39      -0.2718
      5  CB       -13.2080   26.4300  -21.9350 C.3    39  GLU39       0.0402
      6  CG       -12.0110   27.1260  -21.3140 C.3    39  GLU39       0.1161
      7  CD       -10.7650   27.0460  -22.1540 C.2    39  GLU39       0.3649
      8  OE1       -9.7290   27.2410  -21.5300 O.co2  39  GLU39      -0.2457
      9  OE2      -10.8070   26.7480  -23.3730 O.co2  39  GLU39      -0.2457
     10  N        -15.9820   26.1980  -23.0400 N.am   40  VAL40      -0.1980
     11  CA       -17.1090   25.4720  -23.6440 C.3    40  VAL40       0.1595
     12  C        -17.7830   26.2170  -24.8200 C.2    40  VAL40       0.2287
     13  O        -18.0390   25.6320  -25.8950 O.2    40  VAL40      -0.2864
     14  CB       -18.1690   25.1930  -22.5890 C.3    40  VAL40       0.0276
     15  CG1      -19.2560   24.3440  -23.2190 C.3    40  VAL40       0.0022
     16  CG2      -17.5340   24.4680  -21.4050 C.3    40  VAL40       0.0022
     17  N        -15.6910   25.9650  -27.9970 N.3    43  ASN43      -0.1225
     18  CA       -15.7840   24.7440  -28.7050 C.3    43  ASN43       0.1785
     19  C        -17.0220   24.7500  -29.5540 C.2    43  ASN43       0.2597
     20  O        -16.9430   24.3590  -30.6800 O.2    43  ASN43      -0.2718
     21  CB       -15.7260   23.5580  -27.7690 C.3    43  ASN43       0.1169
     22  CG       -14.3600   23.3810  -27.2510 C.2    43  ASN43       0.2627
     23  OD1      -13.3880   23.6490  -27.9410 O.2    43  ASN43      -0.2716
     24  ND2      -14.2600   23.0020  -26.0410 N.am   43  ASN43      -0.0877
     25  N        -18.1110   25.3260  -29.0760 N.am   44  ALA44      -0.1979
     26  CA       -19.2810   25.4930  -29.9210 C.3    44  ALA44       0.1597
     27  C        -19.0000   26.4270  -31.1120 C.2    44  ALA44       0.2287
     28  O        -19.2870   26.1040  -32.2650 O.2    44  ALA44      -0.2864
     29  CB       -20.4260   26.0550  -29.1070 C.3    44  ALA44       0.0319
     30  N        -17.4640   24.6100  -33.9450 N.3    47  GLU47      -0.1245
     31  CA       -18.4760   23.9620  -34.8120 C.3    47  GLU47       0.1567
     32  C        -19.0450   25.0280  -35.7890 C.2    47  GLU47       0.2260
     33  O        -19.2000   24.8000  -36.9770 O.2    47  GLU47      -0.2867
     34  CB       -19.6110   23.3190  -33.9740 C.3    47  GLU47       0.0388
     35  CG       -19.2670   22.0040  -33.3170 C.3    47  GLU47       0.1160
     36  CD       -18.7710   20.9230  -34.2780 C.2    47  GLU47       0.3649
     37  OE1      -17.5880   20.5810  -34.2110 O.co2  47  GLU47      -0.2457
     38  OE2      -19.5430   20.4280  -35.1290 O.co2  47  GLU47      -0.2457
     39  N        -25.2860   23.3630  -28.1920 N.3    70  ASP70      -0.1239
     40  CA       -25.0140   23.6490  -29.5710 C.3    70  ASP70       0.1674
     41  C        -25.7210   22.6120  -30.4940 C.2    70  ASP70       0.2266
     42  O        -25.8480   21.3890  -30.1490 O.2    70  ASP70      -0.2867
     43  CB       -23.4860   23.6820  -29.7870 C.3    70  ASP70       0.1410
     44  CG       -22.8640   22.2940  -29.9160 C.2    70  ASP70       0.3668
     45  OD1      -23.2900   21.5370  -30.8460 O.co2  70  ASP70      -0.2456
     46  OD2      -21.9400   21.9700  -29.1140 O.co2  70  ASP70      -0.2456
     47  N        -22.1990   19.1700  -34.8050 N.3    73  ARG73      -0.1231
     48  CA       -22.1410   17.7310  -35.2420 C.3    73  ARG73       0.1694
     49  C        -22.1770   16.7070  -34.0970 C.2    73  ARG73       0.2593
     50  O        -22.3630   15.4750  -34.3000 O.2    73  ARG73      -0.2718
     51  CB       -20.8760   17.4600  -36.0850 C.3    73  ARG73       0.0321
     52  CG       -20.8010   18.2130  -37.4190 C.3    73  ARG73       0.0489
     53  CD       -19.4080   18.1000  -38.0510 C.3    73  ARG73       0.2205
     54  NE       -18.4630   18.9430  -37.3390 N.pl3  73  ARG73      -0.0865
     55  CZ       -17.2090   19.1930  -37.7030 C.cat  73  ARG73       0.5346
     56  NH1      -16.4610   20.0070  -36.9520 N.pl3  73  ARG73       0.1354
     57  NH2      -16.6950   18.6490  -38.7960 N.pl3  73  ARG73       0.1354
     58  N        -21.9310   17.2100  -32.9020 N.am   74  GLY74      -0.1942
     59  CA       -21.8570   16.3920  -31.7370 C.3    74  GLY74       0.2014
     60  C        -20.4800   15.8160  -31.5490 C.2    74  GLY74       0.2639
     61  O        -19.8510   15.2870  -32.4750 O.2    74  GLY74      -0.2714
     62  N        -19.9980   15.8700  -30.3330 N.am   75  ILE75      -0.1963
     63  CA       -18.7340   15.2160  -30.0630 C.3    75  ILE75       0.1712
     64  C        -18.8470   13.7720  -30.4820 C.2    75  ILE75       0.2458
     65  O        -19.8170   13.1410  -30.1390 O.2    75  ILE75      -0.2730
     66  CB       -18.4310   15.3140  -28.5800 C.3    75  ILE75       0.0289
     67  CG1      -18.0180   16.7750  -28.2820 C.3    75  ILE75       0.0022
     68  CG2      -17.3500   14.3260  -28.1470 C.3    75  ILE75       0.0023
     69  CD1      -18.2710   17.2070  -26.8460 C.3    75  ILE75       0.0001
     70  N        -17.8470   13.2260  -31.1950 N.am   76  PRO76      -0.2727
     71  CA       -17.8030   11.7810  -31.5060 C.3    76  PRO76       0.1402
     72  C        -18.0300   10.8770  -30.3240 C.2    76  PRO76       0.2269
     73  O        -17.5180   11.1480  -29.2480 O.2    76  PRO76      -0.2865
     74  CB       -16.3700   11.5860  -31.9990 C.3    76  PRO76       0.0296
     75  CG       -16.0580   12.9060  -32.6200 C.3    76  PRO76       0.0237
     76  CD       -16.5990   13.8710  -31.6250 C.3    76  PRO76       0.0939
     77  N        -11.8220   12.8510  -24.8200 N.3    91  ILE91      -0.1245
     78  CA       -11.6910   14.2970  -24.8350 C.3    91  ILE91       0.1561
     79  C        -11.9760   14.9290  -23.4630 C.2    91  ILE91       0.2260
     80  O        -11.4870   16.0290  -23.1830 O.2    91  ILE91      -0.2867
     81  CB       -12.5530   15.0090  -25.9150 C.3    91  ILE91       0.0252
     82  CG1      -13.9740   15.2110  -25.4710 C.3    91  ILE91       0.0019
     83  CG2      -12.5380   14.3370  -27.2690 C.3    91  ILE91       0.0019
     84  CD1      -14.2410   16.6780  -25.3120 C.3    91  ILE91       0.0001
     85  N         -5.8070   16.1070  -26.2680 N.3    97  ALA97      -0.1231
     86  CA        -6.5960   15.1660  -27.0230 C.3    97  ALA97       0.1694
     87  C         -7.7150   15.9220  -27.6520 C.2    97  ALA97       0.2593
     88  O         -8.4740   16.5750  -26.9600 O.2    97  ALA97      -0.2718
     89  CB        -7.1350   14.0140  -26.1420 C.3    97  ALA97       0.0304
     90  N         -7.8390   15.7600  -28.9680 N.am   98  GLY98      -0.1942
     91  CA        -8.8130   16.4940  -29.7480 C.3    98  GLY98       0.2014
     92  C         -8.5790   16.3330  -31.2400 C.2    98  GLY98       0.2639
     93  O         -7.7840   15.4940  -31.6710 O.2    98  GLY98      -0.2714
     94  N         -9.3310   17.1190  -32.0010 N.am   99  GLY99      -0.1939
     95  CA        -9.3330   17.1510  -33.4570 C.3    99  GLY99       0.2014
     96  C         -9.0280   18.5000  -34.1150 C.2    99  GLY99       0.2639
     97  O         -9.4180   18.7260  -35.2680 O.2    99  GLY99      -0.2714
     98  N         -8.3370   19.3770  -33.3960 N.am  100  LYS100     -0.1963
     99  CA        -7.8410   20.6040  -33.9710 C.3   100  LYS100      0.1728
    100  C         -6.3130   20.5530  -34.0580 C.2   100  LYS100      0.2616
    101  O         -5.7010   21.5850  -34.3600 O.2   100  LYS100     -0.2715
    102  CB        -8.3270   21.8260  -33.1520 C.3   100  LYS100      0.0311
    103  CG        -9.8620   21.9620  -33.1070 C.3   100  LYS100      0.0038
    104  CD       -10.4140   22.5910  -31.8250 C.3   100  LYS100      0.0206
    105  CE       -11.9370   22.7730  -31.8710 C.3   100  LYS100      0.1093
    106  NZ       -12.6030   23.2020  -30.6100 N.3   100  LYS100     -0.1314
    107  N         -5.7080   19.3660  -33.8370 N.am  101  PHE101     -0.1974
    108  CA        -4.2820   19.1850  -34.1070 C.3   101  PHE101      0.1639
    109  C         -3.8950   19.1300  -35.5770 C.2   101  PHE101      0.2290
    110  O         -2.7080   19.0750  -35.9120 O.2   101  PHE101     -0.2864
    111  CB        -3.7390   17.9440  -33.4370 C.3   101  PHE101      0.0560
    112  CG        -3.7900   18.0040  -31.9650 C.ar  101  PHE101     -0.0200
    113  CD1       -3.5270   19.2070  -31.2880 C.ar  101  PHE101     -0.0042
    114  CD2       -4.0870   16.8600  -31.2210 C.ar  101  PHE101     -0.0042
    115  CE1       -3.5820   19.2610  -29.8990 C.ar  101  PHE101     -0.0003
    116  CE2       -4.1380   16.9170  -29.8390 C.ar  101  PHE101     -0.0003
    117  CZ        -3.8790   18.1170  -29.1770 C.ar  101  PHE101     -0.0000
    118  N        -11.7190   20.8340  -38.4160 N.3   106  TYR106     -0.1241
    119  CA       -11.9520   22.3060  -38.3960 C.3   106  TYR106      0.1605
    120  C        -10.8230   22.9520  -39.1730 C.2   106  TYR106      0.2264
    121  O         -9.6580   22.9580  -38.7070 O.2   106  TYR106     -0.2867
    122  CB       -11.9310   22.8780  -36.9600 C.3   106  TYR106      0.0534
    123  CG       -12.8450   22.2020  -35.9350 C.ar  106  TYR106     -0.0201
    124  CD1      -12.4760   21.0180  -35.3220 C.ar  106  TYR106     -0.0009
    125  CD2      -14.0770   22.7710  -35.5660 C.ar  106  TYR106     -0.0009
    126  CE1      -13.3100   20.4080  -34.3740 C.ar  106  TYR106      0.0417
    127  CE2      -14.8950   22.1780  -34.6240 C.ar  106  TYR106      0.0417
    128  CZ       -14.5120   20.9870  -34.0340 C.ar  106  TYR106      0.1957
    129  OH       -15.3410   20.3480  -33.1120 O.3   106  TYR106     -0.2866
    130  N         -9.6810   26.4810  -30.7870 N.3   111  GLY111     -0.1210
    131  CA        -8.9870   25.4890  -30.0690 C.3   111  GLY111      0.1956
    132  C         -7.7900   25.0120  -30.8130 C.2   111  GLY111      0.2612
    133  O         -7.7390   24.9780  -32.0550 O.2   111  GLY111     -0.2717
    134  N         -6.8080   24.5940  -30.0460 N.am  112  LEU112     -0.1965
    135  CA        -5.6610   24.0110  -30.6570 C.3   112  LEU112      0.1728
    136  C         -4.8580   23.2000  -29.6850 C.2   112  LEU112      0.2616
    137  O         -3.9830   22.4770  -30.1480 O.2   112  LEU112     -0.2715
    138  CB        -4.7850   25.0950  -31.3220 C.3   112  LEU112      0.0311
    139  CG        -3.8860   25.9220  -30.4080 C.3   112  LEU112      0.0022
    140  CD1       -2.7630   26.5870  -31.2000 C.3   112  LEU112      0.0001
    141  CD2       -4.6380   26.9720  -29.5780 C.3   112  LEU112      0.0001
    142  N         -5.1010   23.3490  -28.3680 N.am  113  HIS113     -0.1959
    143  CA        -4.2630   22.6610  -27.3550 C.3   113  HIS113      0.1787
    144  C         -4.7510   21.2810  -26.9510 C.2   113  HIS113      0.2621
    145  O         -3.9940   20.4810  -26.3930 O.2   113  HIS113     -0.2715
    146  CB        -4.1040   23.4930  -26.0550 C.3   113  HIS113      0.0785
    147  CG        -3.4480   24.8190  -26.2580 C.ar  113  HIS113      0.0821
    148  ND1       -3.8650   25.9610  -25.6100 N.ar  113  HIS113     -0.2267
    149  CD2       -2.4300   25.1930  -27.0610 C.ar  113  HIS113      0.1154
    150  CE1       -3.1020   26.9690  -25.9710 C.ar  113  HIS113      0.1986
    151  NE2       -2.2330   26.5360  -26.8600 N.ar  113  HIS113     -0.2212
    152  N         -6.0350   21.0370  -27.1440 N.am  114  GLY114     -0.1940
    153  CA        -6.5730   19.7000  -26.8600 C.3   114  GLY114      0.2014
    154  C         -6.8430   19.4880  -25.3840 C.2   114  GLY114      0.2639
    155  O         -6.7510   18.3560  -24.8850 O.2   114  GLY114     -0.2714
    156  N         -7.2210   20.5750  -24.7110 N.am  115  VAL115     -0.1963
    157  CA        -7.1870   20.6380  -23.2450 C.3   115  VAL115      0.1727
    158  C         -8.4130   21.2550  -22.5780 C.2   115  VAL115      0.2617
    159  O         -8.7710   20.8420  -21.4560 O.2   115  VAL115     -0.2715
    160  CB        -5.9010   21.3990  -22.8570 C.3   115  VAL115      0.0290
    161  CG1       -6.1590   22.6690  -22.0660 C.3   115  VAL115      0.0023
    162  CG2       -4.9170   20.4680  -22.1850 C.3   115  VAL115      0.0023
    163  N         -9.0250   22.2490  -23.2490 N.am  116  GLY116     -0.1940
    164  CA        -9.9690   23.1710  -22.6270 C.3   116  GLY116      0.2014
    165  C        -11.0830   22.5020  -21.8240 C.2   116  GLY116      0.2639
    166  O        -11.2020   22.6420  -20.6110 O.2   116  GLY116     -0.2714
    167  N        -11.9150   21.7640  -22.5150 N.am  117  VAL117     -0.1963
    168  CA       -13.0260   21.0850  -21.8750 C.3   117  VAL117      0.1727
    169  C        -12.5100   19.9760  -20.9700 C.2   117  VAL117      0.2616
    170  O        -13.1120   19.7180  -19.9140 O.2   117  VAL117     -0.2715
    171  CB       -14.0590   20.5790  -22.9120 C.3   117  VAL117      0.0290
    172  CG1      -13.5540   19.3320  -23.5560 C.3   117  VAL117      0.0023
    173  CG2      -15.4420   20.3740  -22.2780 C.3   117  VAL117      0.0023
    174  N        -11.3650   19.3820  -21.2960 N.am  118  SER118     -0.1950
    175  CA       -10.7000   18.5630  -20.2870 C.3   118  SER118      0.1924
    176  C        -10.5670   19.3780  -18.9940 C.2   118  SER118      0.2314
    177  O        -10.8670   18.8900  -17.9140 O.2   118  SER118     -0.2863
    178  CB        -9.3130   18.0980  -20.7390 C.3   118  SER118      0.2116
    179  OG        -9.3440   17.4560  -21.9910 O.3   118  SER118     -0.2180
    180  N        -24.3010   18.9370  -29.1650 N.3   162  THR162     -0.1218
    181  CA       -23.5770   18.6520  -27.9320 C.3   162  THR162      0.1862
    182  C        -24.1310   19.5840  -26.8950 C.2   162  THR162      0.2287
    183  O        -24.3850   20.7520  -27.1840 O.2   162  THR162     -0.2866
    184  CB       -22.1010   18.9330  -28.1290 C.3   162  THR162      0.1770
    185  OG1      -21.6000   18.0860  -29.1700 O.3   162  THR162     -0.2211
    186  CG2      -21.3040   18.7240  -26.8340 C.3   162  THR162      0.0375
    187  N        -23.3100   20.4760  -22.7510 N.3   164  VAL164     -0.1245
    188  CA       -22.4000   20.3140  -21.5740 C.3   164  VAL164      0.1561
    189  C        -22.9070   21.1860  -20.4600 C.2   164  VAL164      0.2260
    190  O        -23.1810   22.3440  -20.6790 O.2   164  VAL164     -0.2867
    191  CB       -20.9650   20.8240  -21.8530 C.3   164  VAL164      0.0252
    192  CG1      -20.0340   20.6040  -20.6670 C.3   164  VAL164      0.0019
    193  CG2      -20.3890   20.2220  -23.1270 C.3   164  VAL164      0.0019
    194  N         -3.6450   32.3820  -24.9090 N.3   323  LYS323     -0.1245
    195  CA        -3.9030   32.8300  -26.2920 C.3   323  LYS323      0.1561
    196  C         -4.0370   34.3800  -26.3670 C.2   323  LYS323      0.2260
    197  O         -4.7450   34.9540  -27.1990 O.2   323  LYS323     -0.2867
    198  CB        -5.1190   32.0960  -26.8730 C.3   323  LYS323      0.0271
    199  CG        -5.1160   30.6010  -26.6120 C.3   323  LYS323      0.0035
    200  CD        -6.3690   29.9410  -27.1930 C.3   323  LYS323      0.0206
    201  CE        -6.6770   28.5810  -26.5570 C.3   323  LYS323      0.1093
    202  NZ        -7.4480   27.6420  -27.4230 N.3   323  LYS323     -0.1314
@<TRIPOS>BOND
     1   120   121    2
     2   120   119    1
     3    57    55    1
     4   118   119    1
     5   119   122    1
     6    53    52    1
     7    53    54    1
     8    55    54    2
     9    55    56    1
    10    52    51    1
    11    33    32    2
    12   122   123    1
    13    51    48    1
    14   123   125   ar
    15   123   124   ar
    16   110   109    2
    17    32    31    1
    18   109   108    1
    19   125   127   ar
    20   124   126   ar
    21    97    96    2
    22    48    47    1
    23    48    49    1
    24    38    36   ar
    25    31    34    1
    26    31    30    1
    27   127   128   ar
    28   126   128   ar
    29   101   100    2
    30    50    49    2
    31    36    37   ar
    32    36    35    1
    33    96    95    1
    34    96    98   am
    35   108   107    1
    36   108   111    1
    37    49    58   am
    38   100    99    1
    39   100   107   am
    40   128   129    1
    41    34    35    1
    42    99    98    1
    43    99   102    1
    44    95    94    1
    45   111   112    1
    46   102   103    1
    47   103   104    1
    48    58    59    1
    49    75    74    1
    50    75    76    1
    51    61    60    2
    52    28    27    2
    53   133   132    2
    54    94    92   am
    55    74    71    1
    56   112   113   ar
    57   112   114   ar
    58   105   104    1
    59   105   106    1
    60    59    60    1
    61    93    92    2
    62    76    70    1
    63    60    62   am
    64    71    70    1
    65    71    72    1
    66   138   135    1
    67   138   139    1
    68   113   115   ar
    69    92    91    1
    70   114   116   ar
    71   140   139    1
    72    70    64   am
    73    27    26    1
    74    45    44   ar
    75   132   131    1
    76   132   134   am
    77   130   131    1
    78    20    19    2
    79   135   134    1
    80   135   136    1
    81    41    42    2
    82    41    40    1
    83    64    65    2
    84    64    63    1
    85   139   141    1
    86    62    63    1
    87    72    73    2
    88   137   136    2
    89    63    66    1
    90    26    29    1
    91    26    25    1
    92    44    43    1
    93    44    46   ar
    94   115   117   ar
    95   116   117   ar
    96    43    40    1
    97    91    90    1
    98   136   142   am
    99    40    39    1
   100    19    25   am
   101    19    18    1
   102   185   184    1
   103   180   181    1
   104    90    87   am
   105    18    17    1
   106    18    21    1
   107    66    67    1
   108    66    68    1
   109   142   143    1
   110    67    69    1
   111   184   181    1
   112   184   186    1
   113    23    22    2
   114   181   182    1
   115    21    22    1
   116    87    86    1
   117    87    88    2
   118   202   201    1
   119   143   144    1
   120   143   146    1
   121    83    81    1
   122    22    24   am
   123   197   196    2
   124   200   199    1
   125   200   201    1
   126   183   182    2
   127   152   144   am
   128   152   153    1
   129   149   151   ar
   130   149   147   ar
   131    86    85    1
   132    86    89    1
   133   144   145    2
   134   198   199    1
   135   198   195    1
   136   153   154    1
   137   151   150   ar
   138   196   195    1
   139   195   194    1
   140   147   146    1
   141   147   148   ar
   142   150   148   ar
   143    81    82    1
   144    81    78    1
   145    13    12    2
   146    82    84    1
   147   154   155    2
   148   154   156   am
   149     4     3    2
   150    78    77    1
   151    78    79    1
   152    12    11    1
   153   156   157    1
   154     3    10   am
   155     3     2    1
   156    11    10    1
   157    11    14    1
   158   172   171    1
   159    79    80    2
   160     9     7   ar
   161   163   164    1
   162   163   158   am
   163   157   160    1
   164   157   158    1
   165    15    14    1
   166   193   191    1
   167     2     1    1
   168     2     5    1
   169   171   173    1
   170   171   168    1
   171   160   162    1
   172   160   161    1
   173   187   188    1
   174   164   165    1
   175    14    16    1
   176   158   159    2
   177   167   168    1
   178   167   165   am
   179     7     8   ar
   180     7     6    1
   181   179   178    1
   182     5     6    1
   183   168   169    1
   184   191   188    1
   185   191   192    1
   186   165   166    2
   187   188   189    1
   188   174   169   am
   189   174   175    1
   190   169   170    2
   191   178   175    1
   192   190   189    2
   193   175   176    1
   194   176   177    2
