@<TRIPOS>MOLECULE
tmp/4puaA01.pdb
 170 166 0 0 0
SMALL
GASTEIGER

@<TRIPOS>ATOM
      1  N        -31.4570  -14.6230  -39.7010 N.3    18  PHE18      -0.1241
      2  CA       -32.5230  -14.3100  -38.7430 C.3    18  PHE18       0.1605
      3  C        -33.8470  -13.9130  -39.4140 C.2    18  PHE18       0.2264
      4  O        -34.8080  -13.5560  -38.7580 O.2    18  PHE18      -0.2867
      5  CB       -32.0220  -13.2490  -37.7110 C.3    18  PHE18       0.0534
      6  CG       -31.2070  -13.8500  -36.5840 C.ar   18  PHE18      -0.0203
      7  CD1      -31.8370  -14.3580  -35.4370 C.ar   18  PHE18      -0.0042
      8  CD2      -29.8080  -13.9250  -36.6660 C.ar   18  PHE18      -0.0042
      9  CE1      -31.1020  -14.9330  -34.4080 C.ar   18  PHE18      -0.0003
     10  CE2      -29.0650  -14.4830  -35.6330 C.ar   18  PHE18      -0.0003
     11  CZ       -29.7140  -14.9990  -34.5040 C.ar   18  PHE18      -0.0000
     12  N        -37.3000  -15.1310  -37.8190 N.3    21  LEU21      -0.1231
     13  CA       -37.1820  -14.9410  -36.3490 C.3    21  LEU21       0.1693
     14  C        -37.3940  -13.4210  -36.0710 C.2    21  LEU21       0.2592
     15  O        -38.1920  -13.0270  -35.2040 O.2    21  LEU21      -0.2718
     16  CB       -35.8150  -15.4210  -35.9110 C.3    21  LEU21       0.0284
     17  CG       -35.5870  -16.9270  -36.0800 C.3    21  LEU21       0.0019
     18  CD1      -34.0840  -17.2340  -36.0320 C.3    21  LEU21       0.0001
     19  CD2      -36.3150  -17.7360  -35.0200 C.3    21  LEU21       0.0001
     20  N        -36.6850  -12.5710  -36.8110 N.am   22  ASN22      -0.1974
     21  CA       -36.9360  -11.1210  -36.7430 C.3    22  ASN22       0.1688
     22  C        -38.3130  -10.7860  -37.2590 C.2    22  ASN22       0.2292
     23  O        -38.6320  -11.0800  -38.4030 O.2    22  ASN22      -0.2864
     24  CB       -35.9340  -10.3320  -37.5360 C.3    22  ASN22       0.1181
     25  CG       -34.5730  -10.3650  -36.9230 C.2    22  ASN22       0.2629
     26  OD1      -34.3250  -10.9930  -35.8900 O.2    22  ASN22      -0.2716
     27  ND2      -33.6710   -9.7100  -37.5620 N.am   22  ASN22      -0.0877
     28  N        -22.7990  -16.8500  -26.3600 N.3    48  THR48      -0.1204
     29  CA       -22.7120  -15.6970  -27.2270 C.3    48  THR48       0.1979
     30  C        -21.9880  -14.6200  -26.3810 C.2    48  THR48       0.2460
     31  O        -21.8150  -14.8130  -25.1090 O.2    48  THR48      -0.2732
     32  CB       -24.1330  -15.1010  -27.5360 C.3    48  THR48       0.1783
     33  OG1      -24.6580  -14.6320  -26.2840 O.3    48  THR48      -0.2211
     34  CG2      -25.0840  -16.1290  -28.1830 C.3    48  THR48       0.0376
     35  N        -21.7140  -13.4400  -26.9850 N.am   49  PRO49      -0.2717
     36  CA       -21.0100  -12.4140  -26.2020 C.3    49  PRO49       0.1535
     37  C        -21.8170  -12.0280  -24.9990 C.2    49  PRO49       0.2595
     38  O        -21.2910  -11.9080  -23.8990 O.2    49  PRO49      -0.2716
     39  CB       -20.7890  -11.3130  -27.1780 C.3    49  PRO49       0.0310
     40  CG       -20.7260  -11.9730  -28.5400 C.3    49  PRO49       0.0237
     41  CD       -21.6680  -13.1510  -28.4670 C.3    49  PRO49       0.0939
     42  N        -23.1700  -11.8990  -25.1500 N.am   50  ASN50      -0.2026
     43  CA       -23.9500  -11.5900  -24.0190 C.3    50  ASN50       0.1374
     44  C        -24.0520  -12.6330  -22.9930 C.3    50  ASN50       0.2041
     45  O        -24.1670  -12.3100  -21.7500 O.3    50  ASN50      -0.2185
     46  CB       -25.3420  -11.0340  -24.4450 C.3    50  ASN50       0.1128
     47  CG       -25.1900   -9.6780  -25.1480 C.2    50  ASN50       0.2626
     48  OD1      -24.3800   -8.8690  -24.7120 O.2    50  ASN50      -0.2716
     49  ND2      -25.7480   -9.5430  -26.3350 N.am   50  ASN50      -0.0877
     50  N        -20.8760  -13.2060  -20.6620 N.3    53  LYS53      -0.1245
     51  CA       -20.7240  -12.3010  -19.5740 C.3    53  LYS53       0.1561
     52  C        -21.1500  -12.9100  -18.2710 C.2    53  LYS53       0.2260
     53  O        -20.5080  -12.7400  -17.2660 O.2    53  LYS53      -0.2867
     54  CB       -21.5840  -11.0410  -19.7670 C.3    53  LYS53       0.0271
     55  CG       -21.2020  -10.1280  -20.9460 C.3    53  LYS53       0.0035
     56  CD       -22.2140   -8.9570  -21.0450 C.3    53  LYS53       0.0206
     57  CE       -22.0990   -8.2170  -22.3600 C.3    53  LYS53       0.1093
     58  NZ       -23.2600   -7.2670  -22.5090 N.3    53  LYS53      -0.1314
     59  N        -31.5160  -19.6160  -30.1570 N.3    78  ILE78      -0.1245
     60  CA       -32.1710  -18.4460  -30.7090 C.3    78  ILE78       0.1561
     61  C        -32.2760  -18.6060  -32.2370 C.2    78  ILE78       0.2260
     62  O        -33.1080  -17.9830  -32.8450 O.2    78  ILE78      -0.2867
     63  CB       -31.3900  -17.1300  -30.3860 C.3    78  ILE78       0.0252
     64  CG1      -29.9400  -17.2170  -30.8550 C.3    78  ILE78       0.0019
     65  CG2      -31.4590  -16.8990  -28.8620 C.3    78  ILE78       0.0019
     66  CD1      -29.2040  -15.9230  -30.7460 C.3    78  ILE78       0.0001
     67  N        -36.4870  -18.5080  -27.8860 N.3    83  GLN83      -0.1231
     68  CA       -36.7500  -17.2380  -27.2360 C.3    83  GLN83       0.1698
     69  C        -38.1480  -16.7380  -27.3610 C.2    83  GLN83       0.2592
     70  O        -38.5420  -15.7740  -26.6920 O.2    83  GLN83      -0.2718
     71  CB       -35.7350  -16.1990  -27.6870 C.3    83  GLN83       0.0381
     72  CG       -35.8740  -15.7330  -29.1550 C.3    83  GLN83       0.0905
     73  CD       -35.2120  -16.5840  -30.1880 C.2    83  GLN83       0.2608
     74  OE1      -35.1970  -17.8590  -30.1390 O.2    83  GLN83      -0.2717
     75  NE2      -34.7850  -15.9130  -31.2290 N.am   83  GLN83      -0.0878
     76  N        -38.9490  -17.4500  -28.1530 N.am   84  PHE84      -0.1976
     77  CA       -40.4180  -17.0790  -28.3820 C.3    84  PHE84       0.1639
     78  C        -41.3640  -18.0220  -27.6900 C.2    84  PHE84       0.2290
     79  O        -42.5870  -17.8810  -27.8000 O.2    84  PHE84      -0.2864
     80  CB       -40.7060  -16.9280  -29.9310 C.3    84  PHE84       0.0560
     81  CG       -39.8220  -15.8870  -30.6000 C.ar   84  PHE84      -0.0200
     82  CD1      -39.8180  -14.5680  -30.1890 C.ar   84  PHE84      -0.0042
     83  CD2      -38.9690  -16.2520  -31.6570 C.ar   84  PHE84      -0.0042
     84  CE1      -38.9450  -13.6580  -30.7500 C.ar   84  PHE84      -0.0003
     85  CE2      -38.0920  -15.3460  -32.2190 C.ar   84  PHE84      -0.0003
     86  CZ       -38.1150  -14.0280  -31.7890 C.ar   84  PHE84      -0.0000
     87  N        -38.8120   -9.2690  -23.9320 N.3    94  ASN94      -0.1225
     88  CA       -38.0220   -8.9290  -25.0710 C.3    94  ASN94       0.1785
     89  C        -37.4720  -10.0970  -25.8840 C.2    94  ASN94       0.2598
     90  O        -37.0060   -9.8730  -26.9900 O.2    94  ASN94      -0.2718
     91  CB       -36.8640   -7.9890  -24.6180 C.3    94  ASN94       0.1169
     92  CG       -36.1870   -7.2720  -25.7200 C.2    94  ASN94       0.2627
     93  OD1      -36.8050   -6.6550  -26.5620 O.2    94  ASN94      -0.2716
     94  ND2      -34.8260   -7.2200  -25.6330 N.am   94  ASN94      -0.0877
     95  N        -37.6550  -11.3340  -25.4290 N.am   95  SER95      -0.1938
     96  CA       -37.2290  -12.5000  -26.1360 C.3    95  SER95       0.2055
     97  C        -35.7620  -12.4960  -26.5390 C.2    95  SER95       0.2643
     98  O        -35.4130  -12.7490  -27.6980 O.2    95  SER95      -0.2714
     99  CB       -38.0870  -12.7260  -27.3550 C.3    95  SER95       0.2130
    100  OG       -39.4180  -13.2070  -26.9960 O.3    95  SER95      -0.2179
    101  N        -34.9370  -12.1210  -25.6060 N.am   96  LYS96      -0.1963
    102  CA       -33.4780  -12.2120  -25.7700 C.3    96  LYS96       0.1728
    103  C        -32.8370  -12.8760  -24.6570 C.2    96  LYS96       0.2616
    104  O        -33.2390  -12.7300  -23.5030 O.2    96  LYS96      -0.2715
    105  CB       -32.9290  -10.7570  -25.9960 C.3    96  LYS96       0.0311
    106  CG       -33.1440  -10.2980  -27.4640 C.3    96  LYS96       0.0038
    107  CD       -32.7410   -8.8590  -27.6650 C.3    96  LYS96       0.0206
    108  CE       -33.3180   -8.2960  -28.9100 C.3    96  LYS96       0.1093
    109  NZ       -32.8640   -8.8410  -30.2200 N.3    96  LYS96      -0.1314
    110  N        -31.7070  -13.5350  -24.9210 N.am   97  ILE97      -0.1964
    111  CA       -30.9100  -14.0750  -23.8620 C.3    97  ILE97       0.1712
    112  C        -29.7590  -13.0960  -23.5600 C.2    97  ILE97       0.2458
    113  O        -29.4110  -12.2650  -24.3890 O.2    97  ILE97      -0.2730
    114  CB       -30.2990  -15.4530  -24.1980 C.3    97  ILE97       0.0289
    115  CG1      -29.3870  -15.3790  -25.4160 C.3    97  ILE97       0.0022
    116  CG2      -31.3780  -16.5040  -24.5310 C.3    97  ILE97       0.0023
    117  CD1      -27.9300  -15.0610  -25.0710 C.3    97  ILE97       0.0001
    118  N        -29.2300  -13.1310  -22.3370 N.am   98  PRO98      -0.2727
    119  CA       -29.5570  -13.9360  -21.1750 C.3    98  PRO98       0.1402
    120  C        -30.7360  -13.4690  -20.3800 C.2    98  PRO98       0.2269
    121  O        -31.0560  -12.2680  -20.3540 O.2    98  PRO98      -0.2865
    122  CB       -28.2840  -13.8980  -20.3490 C.3    98  PRO98       0.0296
    123  CG       -27.8480  -12.4800  -20.5470 C.3    98  PRO98       0.0237
    124  CD       -28.0000  -12.3570  -22.0760 C.3    98  PRO98       0.0939
    125  N        -31.5250   -8.2570  -19.4710 N.3   113  GLU113     -0.1231
    126  CA       -30.3460   -7.4190  -19.8340 C.3   113  GLU113      0.1699
    127  C        -29.0510   -7.8900  -19.1900 C.2   113  GLU113      0.2593
    128  O        -28.8800   -7.9070  -17.9230 O.2   113  GLU113     -0.2718
    129  CB       -30.6620   -5.9240  -19.6240 C.3   113  GLU113      0.0402
    130  CG       -31.8350   -5.5120  -20.4580 C.3   113  GLU113      0.1161
    131  CD       -31.4690   -5.5030  -21.9460 C.2   113  GLU113      0.3649
    132  OE1      -30.2600   -5.1400  -22.2580 O.co2 113  GLU113     -0.2457
    133  OE2      -32.3790   -5.8350  -22.7180 O.co2 113  GLU113     -0.2457
    134  N        -28.1590   -8.3280  -20.0140 N.am  114  SER114     -0.1938
    135  CA       -26.8890   -8.8930  -19.5470 C.3   114  SER114      0.2055
    136  C        -26.1260   -7.9940  -18.5410 C.2   114  SER114      0.2642
    137  O        -25.6400   -8.4610  -17.4780 O.2   114  SER114     -0.2714
    138  CB       -26.0300   -9.3230  -20.7140 C.3   114  SER114      0.2130
    139  OG       -25.5300   -8.2910  -21.4830 O.3   114  SER114     -0.2179
    140  N        -26.0760   -6.6880  -18.8140 N.am  115  ALA115     -0.1977
    141  CA       -25.3990   -5.7750  -17.9620 C.3   115  ALA115      0.1597
    142  C        -26.1070   -5.6790  -16.6090 C.2   115  ALA115      0.2287
    143  O        -25.4650   -5.5500  -15.5870 O.2   115  ALA115     -0.2864
    144  CB       -25.3180   -4.3990  -18.5860 C.3   115  ALA115      0.0319
    145  N        -23.4020   -1.3250  -22.4900 N.3   147  ALA147     -0.1245
    146  CA       -24.8560   -1.5980  -22.7870 C.3   147  ALA147      0.1562
    147  C        -25.3560   -0.7420  -23.9390 C.2   147  ALA147      0.2260
    148  O        -26.0240   -1.2510  -24.8140 O.2   147  ALA147     -0.2867
    149  CB       -25.7100   -1.4070  -21.5750 C.3   147  ALA147      0.0290
    150  N        -24.8250   -2.4360  -29.2100 N.3   151  PRO151     -0.2116
    151  CA       -25.6850   -2.5380  -30.3380 C.3   151  PRO151      0.1372
    152  C        -25.1000   -2.1180  -31.6470 C.2   151  PRO151      0.2244
    153  O        -25.4490   -2.6470  -32.6950 O.2   151  PRO151     -0.2868
    154  CB       -26.8960   -1.6600  -29.9750 C.3   151  PRO151      0.0268
    155  CG       -26.8970   -1.7290  -28.4560 C.3   151  PRO151      0.0207
    156  CD       -25.4520   -1.7290  -28.0750 C.3   151  PRO151      0.0892
    157  N        -17.4300   -8.6820  -25.4440 N.3   211  TRP211     -0.1241
    158  CA       -17.5520   -8.1690  -26.8420 C.3   211  TRP211      0.1605
    159  C        -16.1990   -7.7780  -27.4050 C.2   211  TRP211      0.2264
    160  O        -15.7350   -8.4470  -28.3630 O.2   211  TRP211     -0.2867
    161  CB       -18.4790   -6.9850  -26.8590 C.3   211  TRP211      0.0550
    162  CG       -19.9860   -7.4240  -26.9220 C.ar  211  TRP211      0.0003
    163  CD1      -20.8690   -7.4840  -25.9240 C.ar  211  TRP211      0.0946
    164  CD2      -20.6790   -7.7730  -28.1070 C.ar  211  TRP211      0.0152
    165  NE1      -22.1090   -7.8580  -26.3790 N.ar  211  TRP211     -0.2442
    166  CE2      -22.0200   -8.0320  -27.7450 C.ar  211  TRP211      0.0810
    167  CE3      -20.3050   -7.8940  -29.4450 C.ar  211  TRP211      0.0012
    168  CZ2      -22.9550   -8.4130  -28.6520 C.ar  211  TRP211      0.0191
    169  CZ3      -21.2420   -8.3090  -30.3420 C.ar  211  TRP211      0.0001
    170  CH2      -22.5590   -8.5550  -29.9490 C.ar  211  TRP211      0.0015
@<TRIPOS>BOND
     1     1     2    1
     2     3     4    2
     3     3     2    1
     4     2     5    1
     5    23    22    2
     6    12    13    1
     7     5     6    1
     8    27    25   am
     9    24    25    1
    10    24    21    1
    11    22    21    1
    12    25    26    2
    13    20    21    1
    14    20    14   am
    15     8     6   ar
    16     8    10   ar
    17     6     7   ar
    18    13    14    1
    19    13    16    1
    20    17    18    1
    21    17    16    1
    22    17    19    1
    23    14    15    2
    24    10    11   ar
    25     7     9   ar
    26    11     9   ar
    27    62    61    2
    28   153   152    2
    29    61    60    1
    30    85    86   ar
    31    85    83   ar
    32    86    84   ar
    33    83    81   ar
    34   152   151    1
    35    75    73   am
    36    64    66    1
    37    64    63    1
    38    84    82   ar
    39    60    63    1
    40    60    59    1
    41    81    82   ar
    42    81    80    1
    43    63    65    1
    44   169   170   ar
    45   169   167   ar
    46   151   154    1
    47   151   150    1
    48   109   108    1
    49    73    74    2
    50    73    72    1
    51   154   155    1
    52   170   168   ar
    53    80    77    1
    54   167   164   ar
    55   150   156    1
    56    72    71    1
    57   108   107    1
    58   168   166   ar
    59    40    41    1
    60    40    39    1
    61    41    35    1
    62   155   156    1
    63    77    76    1
    64    77    78    1
    65   160   159    2
    66    34    32    1
    67    76    69   am
    68   164   166   ar
    69   164   162   ar
    70    67    68    1
    71    79    78    2
    72   166   165   ar
    73    98    97    2
    74    71    68    1
    75   107   106    1
    76    32    29    1
    77    32    33    1
    78   106   105    1
    79   159   158    1
    80    69    68    1
    81    69    70    2
    82    99   100    1
    83    99    96    1
    84    29    30    1
    85    29    28    1
    86    39    36    1
    87    90    89    2
    88    35    30   am
    89    35    36    1
    90   162   161    1
    91   162   163   ar
    92   161   158    1
    93   158   157    1
    94    93    92    2
    95    97    96    1
    96    97   101   am
    97    30    31    2
    98   165   163   ar
    99    49    47   am
   100    36    37    1
   101    96    95    1
   102   105   102    1
   103    89    95   am
   104    89    88    1
   105   102   101    1
   106   102   103    1
   107    92    94   am
   108    92    91    1
   109   115   117    1
   110   115   114    1
   111    42    37   am
   112    42    43    1
   113    47    48    2
   114    47    46    1
   115    88    91    1
   116    88    87    1
   117    37    38    2
   118   110   103   am
   119   110   111    1
   120   148   147    2
   121   103   104    2
   122   116   114    1
   123    46    43    1
   124   113   112    2
   125   114   111    1
   126    43    44    1
   127   147   146    1
   128   111   112    1
   129   112   118   am
   130    44    45    1
   131   146   145    1
   132   146   149    1
   133   133   131   ar
   134    58    57    1
   135    57    56    1
   136   118   124    1
   137   118   119    1
   138   132   131   ar
   139   124   123    1
   140   131   130    1
   141   139   138    1
   142   119   120    1
   143   119   122    1
   144    56    55    1
   145    55    54    1
   146   138   135    1
   147    50    51    1
   148   123   122    1
   149   130   129    1
   150   120   121    2
   151   134   135    1
   152   134   127   am
   153   126   129    1
   154   126   125    1
   155   126   127    1
   156    54    51    1
   157    51    52    1
   158   135   136    1
   159   127   128    2
   160   140   136   am
   161   140   141    1
   162   144   141    1
   163   136   137    2
   164    52    53    2
   165   141   142    1
   166   142   143    2
