@<TRIPOS>MOLECULE
tmp/4puaA00.pdb
 139 135 0 0 0
SMALL
GASTEIGER

@<TRIPOS>ATOM
      1  N        -31.4570  -14.6230  -39.7010 N.3    18  PHE18      -0.1241
      2  CA       -32.5230  -14.3100  -38.7430 C.3    18  PHE18       0.1605
      3  C        -33.8470  -13.9130  -39.4140 C.2    18  PHE18       0.2264
      4  O        -34.8080  -13.5560  -38.7580 O.2    18  PHE18      -0.2867
      5  CB       -32.0220  -13.2490  -37.7110 C.3    18  PHE18       0.0534
      6  CG       -31.2070  -13.8500  -36.5840 C.ar   18  PHE18      -0.0203
      7  CD1      -31.8370  -14.3580  -35.4370 C.ar   18  PHE18      -0.0042
      8  CD2      -29.8080  -13.9250  -36.6660 C.ar   18  PHE18      -0.0042
      9  CE1      -31.1020  -14.9330  -34.4080 C.ar   18  PHE18      -0.0003
     10  CE2      -29.0650  -14.4830  -35.6330 C.ar   18  PHE18      -0.0003
     11  CZ       -29.7140  -14.9990  -34.5040 C.ar   18  PHE18      -0.0000
     12  N        -36.6850  -12.5710  -36.8110 N.3    22  ASN22      -0.1240
     13  CA       -36.9360  -11.1210  -36.7430 C.3    22  ASN22       0.1653
     14  C        -38.3130  -10.7860  -37.2590 C.2    22  ASN22       0.2266
     15  O        -38.6320  -11.0800  -38.4030 O.2    22  ASN22      -0.2867
     16  CB       -35.9340  -10.3320  -37.5360 C.3    22  ASN22       0.1155
     17  CG       -34.5730  -10.3650  -36.9230 C.2    22  ASN22       0.2627
     18  OD1      -34.3250  -10.9930  -35.8900 O.2    22  ASN22      -0.2716
     19  ND2      -33.6710   -9.7100  -37.5620 N.am   22  ASN22      -0.0877
     20  N        -22.7990  -16.8500  -26.3600 N.3    48  THR48      -0.1204
     21  CA       -22.7120  -15.6970  -27.2270 C.3    48  THR48       0.1979
     22  C        -21.9880  -14.6200  -26.3810 C.2    48  THR48       0.2460
     23  O        -21.8150  -14.8130  -25.1090 O.2    48  THR48      -0.2732
     24  CB       -24.1330  -15.1010  -27.5360 C.3    48  THR48       0.1783
     25  OG1      -24.6580  -14.6320  -26.2840 O.3    48  THR48      -0.2211
     26  CG2      -25.0840  -16.1290  -28.1830 C.3    48  THR48       0.0376
     27  N        -21.7140  -13.4400  -26.9850 N.am   49  PRO49      -0.2717
     28  CA       -21.0100  -12.4140  -26.2020 C.3    49  PRO49       0.1535
     29  C        -21.8170  -12.0280  -24.9990 C.2    49  PRO49       0.2595
     30  O        -21.2910  -11.9080  -23.8990 O.2    49  PRO49      -0.2716
     31  CB       -20.7890  -11.3130  -27.1780 C.3    49  PRO49       0.0310
     32  CG       -20.7260  -11.9730  -28.5400 C.3    49  PRO49       0.0237
     33  CD       -21.6680  -13.1510  -28.4670 C.3    49  PRO49       0.0939
     34  N        -23.1700  -11.8990  -25.1500 N.am   50  ASN50      -0.2026
     35  CA       -23.9500  -11.5900  -24.0190 C.3    50  ASN50       0.1374
     36  C        -24.0520  -12.6330  -22.9930 C.3    50  ASN50       0.2041
     37  O        -24.1670  -12.3100  -21.7500 O.3    50  ASN50      -0.2185
     38  CB       -25.3420  -11.0340  -24.4450 C.3    50  ASN50       0.1128
     39  CG       -25.1900   -9.6780  -25.1480 C.2    50  ASN50       0.2626
     40  OD1      -24.3800   -8.8690  -24.7120 O.2    50  ASN50      -0.2716
     41  ND2      -25.7480   -9.5430  -26.3350 N.am   50  ASN50      -0.0877
     42  N        -31.5160  -19.6160  -30.1570 N.3    78  ILE78      -0.1245
     43  CA       -32.1710  -18.4460  -30.7090 C.3    78  ILE78       0.1561
     44  C        -32.2760  -18.6060  -32.2370 C.2    78  ILE78       0.2260
     45  O        -33.1080  -17.9830  -32.8450 O.2    78  ILE78      -0.2867
     46  CB       -31.3900  -17.1300  -30.3860 C.3    78  ILE78       0.0252
     47  CG1      -29.9400  -17.2170  -30.8550 C.3    78  ILE78       0.0019
     48  CG2      -31.4590  -16.8990  -28.8620 C.3    78  ILE78       0.0019
     49  CD1      -29.2040  -15.9230  -30.7460 C.3    78  ILE78       0.0001
     50  N        -34.9370  -12.1210  -25.6060 N.3    96  LYS96      -0.1231
     51  CA       -33.4780  -12.2120  -25.7700 C.3    96  LYS96       0.1693
     52  C        -32.8370  -12.8760  -24.6570 C.2    96  LYS96       0.2591
     53  O        -33.2390  -12.7300  -23.5030 O.2    96  LYS96      -0.2718
     54  CB       -32.9290  -10.7570  -25.9960 C.3    96  LYS96       0.0285
     55  CG       -33.1440  -10.2980  -27.4640 C.3    96  LYS96       0.0035
     56  CD       -32.7410   -8.8590  -27.6650 C.3    96  LYS96       0.0206
     57  CE       -33.3180   -8.2960  -28.9100 C.3    96  LYS96       0.1093
     58  NZ       -32.8640   -8.8410  -30.2200 N.3    96  LYS96      -0.1314
     59  N        -31.7070  -13.5350  -24.9210 N.am   97  ILE97      -0.1980
     60  CA       -30.9100  -14.0750  -23.8620 C.3    97  ILE97       0.1595
     61  C        -29.7590  -13.0960  -23.5600 C.2    97  ILE97       0.2287
     62  O        -29.4110  -12.2650  -24.3890 O.2    97  ILE97      -0.2864
     63  CB       -30.2990  -15.4530  -24.1980 C.3    97  ILE97       0.0276
     64  CG1      -29.3870  -15.3790  -25.4160 C.3    97  ILE97       0.0022
     65  CG2      -31.3780  -16.5040  -24.5310 C.3    97  ILE97       0.0022
     66  CD1      -27.9300  -15.0610  -25.0710 C.3    97  ILE97       0.0001
     67  N        -23.4020   -1.3250  -22.4900 N.3   147  ALA147     -0.1245
     68  CA       -24.8560   -1.5980  -22.7870 C.3   147  ALA147      0.1562
     69  C        -25.3560   -0.7420  -23.9390 C.2   147  ALA147      0.2260
     70  O        -26.0240   -1.2510  -24.8140 O.2   147  ALA147     -0.2867
     71  CB       -25.7100   -1.4070  -21.5750 C.3   147  ALA147      0.0290
     72  N        -22.5820   -1.6130  -27.4290 N.3   150  ALA150     -0.1231
     73  CA       -22.6220   -2.9270  -28.1090 C.3   150  ALA150      0.1679
     74  C        -23.6170   -3.0650  -29.2720 C.2   150  ALA150      0.2434
     75  O        -23.2990   -3.7440  -30.2300 O.2   150  ALA150     -0.2733
     76  CB       -22.7440   -4.1040  -27.1080 C.3   150  ALA150      0.0304
     77  N        -24.8250   -2.4360  -29.2100 N.am  151  PRO151     -0.2729
     78  CA       -25.6850   -2.5380  -30.3380 C.3   151  PRO151      0.1401
     79  C        -25.1000   -2.1180  -31.6470 C.2   151  PRO151      0.2269
     80  O        -25.4490   -2.6470  -32.6950 O.2   151  PRO151     -0.2865
     81  CB       -26.8960   -1.6600  -29.9750 C.3   151  PRO151      0.0296
     82  CG       -26.8970   -1.7290  -28.4560 C.3   151  PRO151      0.0237
     83  CD       -25.4520   -1.7290  -28.0750 C.3   151  PRO151      0.0939
     84  N        -22.7100   -5.2970  -32.5050 N.3   154  GLY154     -0.1210
     85  CA       -23.5690   -6.4490  -32.8080 C.3   154  GLY154      0.1956
     86  C        -24.6430   -6.2310  -33.8590 C.2   154  GLY154      0.2612
     87  O        -24.6670   -6.9390  -34.8500 O.2   154  GLY154     -0.2717
     88  N        -25.5100   -5.2230  -33.6420 N.am  155  GLY155     -0.1956
     89  CA       -26.6690   -4.9760  -34.4280 C.3   155  GLY155      0.1869
     90  C        -26.3540   -4.1940  -35.6910 C.2   155  GLY155      0.2309
     91  O        -27.1290   -4.2100  -36.6160 O.2   155  GLY155     -0.2863
     92  N        -24.1400   -7.2850  -38.0780 N.3   159  HIS159     -0.1241
     93  CA       -25.1650   -7.6810  -38.9420 C.3   159  HIS159      0.1621
     94  C        -24.7110   -7.3870  -40.4400 C.2   159  HIS159      0.2264
     95  O        -24.8000   -8.2190  -41.2840 O.2   159  HIS159     -0.2867
     96  CB       -26.4480   -6.9000  -38.6660 C.3   159  HIS159      0.0745
     97  CG       -27.4970   -7.2210  -39.6550 C.ar  159  HIS159      0.0817
     98  ND1      -28.2260   -8.3700  -39.5550 N.ar  159  HIS159     -0.2268
     99  CD2      -27.7790   -6.7050  -40.8860 C.ar  159  HIS159      0.1154
    100  CE1      -28.9990   -8.4970  -40.6200 C.ar  159  HIS159      0.1986
    101  NE2      -28.7330   -7.5140  -41.4510 N.ar  159  HIS159     -0.2212
    102  N        -23.8590  -10.9600  -41.6110 N.3   163  TYR163     -0.1241
    103  CA       -25.1300  -11.6760  -41.7300 C.3   163  TYR163      0.1605
    104  C        -25.9580  -11.2670  -42.9110 C.2   163  TYR163      0.2264
    105  O        -26.6570  -12.1070  -43.5120 O.2   163  TYR163     -0.2867
    106  CB       -25.9890  -11.5390  -40.4620 C.3   163  TYR163      0.0534
    107  CG       -25.5310  -12.3830  -39.3170 C.ar  163  TYR163     -0.0201
    108  CD1      -25.7590  -13.7780  -39.3210 C.ar  163  TYR163     -0.0009
    109  CD2      -24.8730  -11.8130  -38.2000 C.ar  163  TYR163     -0.0009
    110  CE1      -25.3560  -14.5640  -38.2510 C.ar  163  TYR163      0.0417
    111  CE2      -24.4400  -12.6020  -37.1390 C.ar  163  TYR163      0.0417
    112  CZ       -24.6940  -13.9690  -37.1660 C.ar  163  TYR163      0.1957
    113  OH       -24.2900  -14.7830  -36.1410 O.3   163  TYR163     -0.2866
    114  N        -17.4300   -8.6820  -25.4440 N.3   211  TRP211     -0.1241
    115  CA       -17.5520   -8.1690  -26.8420 C.3   211  TRP211      0.1605
    116  C        -16.1990   -7.7780  -27.4050 C.2   211  TRP211      0.2264
    117  O        -15.7350   -8.4470  -28.3630 O.2   211  TRP211     -0.2867
    118  CB       -18.4790   -6.9850  -26.8590 C.3   211  TRP211      0.0550
    119  CG       -19.9860   -7.4240  -26.9220 C.ar  211  TRP211      0.0003
    120  CD1      -20.8690   -7.4840  -25.9240 C.ar  211  TRP211      0.0946
    121  CD2      -20.6790   -7.7730  -28.1070 C.ar  211  TRP211      0.0152
    122  NE1      -22.1090   -7.8580  -26.3790 N.ar  211  TRP211     -0.2442
    123  CE2      -22.0200   -8.0320  -27.7450 C.ar  211  TRP211      0.0810
    124  CE3      -20.3050   -7.8940  -29.4450 C.ar  211  TRP211      0.0012
    125  CZ2      -22.9550   -8.4130  -28.6520 C.ar  211  TRP211      0.0191
    126  CZ3      -21.2420   -8.3090  -30.3420 C.ar  211  TRP211      0.0001
    127  CH2      -22.5590   -8.5550  -29.9490 C.ar  211  TRP211      0.0015
    128  N        -16.6970  -12.1750  -35.1590 N.3   221  TYR221     -0.1241
    129  CA       -17.0320  -12.4270  -36.5720 C.3   221  TYR221      0.1605
    130  C        -15.8120  -12.7920  -37.3970 C.2   221  TYR221      0.2264
    131  O        -14.7860  -12.1100  -37.3250 O.2   221  TYR221     -0.2867
    132  CB       -17.7190  -11.1770  -37.1290 C.3   221  TYR221      0.0534
    133  CG       -18.8130  -10.6650  -36.1970 C.ar  221  TYR221     -0.0201
    134  CD1      -19.9960  -11.3840  -36.0310 C.ar  221  TYR221     -0.0009
    135  CD2      -18.6500   -9.4930  -35.4530 C.ar  221  TYR221     -0.0009
    136  CE1      -20.9890  -10.9330  -35.1980 C.ar  221  TYR221      0.0417
    137  CE2      -19.6330   -9.0340  -34.5910 C.ar  221  TYR221      0.0417
    138  CZ       -20.7960   -9.7590  -34.4660 C.ar  221  TYR221      0.1957
    139  OH       -21.7710   -9.3170  -33.6400 O.3   221  TYR221     -0.2866
@<TRIPOS>BOND
     1   105   104    2
     2   104   103    1
     3   103   102    1
     4   103   106    1
     5   101    99   ar
     6   101   100   ar
     7    95    94    2
     8    99    97   ar
     9   100    98   ar
    10   106   107    1
    11    94    93    1
    12     1     2    1
    13    97    98   ar
    14    97    96    1
    15     3     4    2
    16     3     2    1
    17   108   107   ar
    18   108   110   ar
    19   107   109   ar
    20    93    96    1
    21    93    92    1
    22     2     5    1
    23    15    14    2
    24   110   112   ar
    25   109   111   ar
    26     5     6    1
    27    19    17   am
    28    16    17    1
    29    16    13    1
    30   130   131    2
    31   130   129    1
    32    14    13    1
    33   112   111   ar
    34   112   113    1
    35   132   129    1
    36   132   133    1
    37    17    18    2
    38    12    13    1
    39     8     6   ar
    40     8    10   ar
    41    91    90    2
    42     6     7   ar
    43   129   128    1
    44   133   134   ar
    45   133   135   ar
    46   134   136   ar
    47    90    89    1
    48    10    11   ar
    49   135   137   ar
    50     7     9   ar
    51   136   138   ar
    52    87    86    2
    53   137   138   ar
    54    11     9   ar
    55   138   139    1
    56    89    88    1
    57    86    88   am
    58    86    85    1
    59    45    44    2
    60    85    84    1
    61    80    79    2
    62    44    43    1
    63    79    78    1
    64    47    49    1
    65    47    46    1
    66    43    46    1
    67    43    42    1
    68    46    48    1
    69   126   127   ar
    70   126   124   ar
    71    78    81    1
    72    78    77    1
    73    75    74    2
    74    58    57    1
    75    81    82    1
    76   127   125   ar
    77   124   121   ar
    78    74    77   am
    79    74    73    1
    80    77    83    1
    81    57    56    1
    82   125   123   ar
    83    32    33    1
    84    32    31    1
    85    33    27    1
    86    82    83    1
    87   117   116    2
    88    26    24    1
    89    73    72    1
    90    73    76    1
    91   121   123   ar
    92   121   119   ar
    93   123   122   ar
    94    56    55    1
    95    24    21    1
    96    24    25    1
    97    55    54    1
    98   116   115    1
    99    21    22    1
   100    21    20    1
   101    31    28    1
   102    27    22   am
   103    27    28    1
   104   119   118    1
   105   119   120   ar
   106   118   115    1
   107   115   114    1
   108    22    23    2
   109   122   120   ar
   110    41    39   am
   111    28    29    1
   112    54    51    1
   113    51    50    1
   114    51    52    1
   115    64    66    1
   116    64    63    1
   117    34    29   am
   118    34    35    1
   119    39    40    2
   120    39    38    1
   121    29    30    2
   122    59    52   am
   123    59    60    1
   124    70    69    2
   125    52    53    2
   126    65    63    1
   127    38    35    1
   128    62    61    2
   129    63    60    1
   130    35    36    1
   131    69    68    1
   132    60    61    1
   133    36    37    1
   134    68    67    1
   135    68    71    1
