@<TRIPOS>MOLECULE
tmp/4pudA00.pdb
 234 228 0 0 0
SMALL
GASTEIGER

@<TRIPOS>ATOM
      1  N        -25.8580    3.0010   19.2360 N.3    27  GLU27      -0.1245
      2  CA       -25.8020    3.7430   20.4750 C.3    27  GLU27       0.1567
      3  C        -27.1580    3.7630   21.1100 C.2    27  GLU27       0.2260
      4  O        -28.1990    3.7620   20.4490 O.2    27  GLU27      -0.2867
      5  CB       -25.3910    5.1760   20.1750 C.3    27  GLU27       0.0388
      6  CG       -23.9630    5.2830   19.6780 C.3    27  GLU27       0.1160
      7  CD       -22.9260    5.2520   20.8060 C.2    27  GLU27       0.3649
      8  OE1      -23.1020    4.6350   21.9210 O.co2  27  GLU27      -0.2457
      9  OE2      -21.8730    5.8660   20.5500 O.co2  27  GLU27      -0.2457
     10  N        -21.8290    0.0060   19.7140 N.3    50  GLU50      -0.1231
     11  CA       -20.6940    0.6470   19.2340 C.3    50  GLU50       0.1699
     12  C        -19.7070    1.0410   20.3340 C.2    50  GLU50       0.2592
     13  O        -18.4660    1.0050   20.1020 O.2    50  GLU50      -0.2718
     14  CB       -21.1840    1.9500   18.5380 C.3    50  GLU50       0.0402
     15  CG       -20.1490    2.6050   17.7350 C.3    50  GLU50       0.1161
     16  CD       -20.6020    3.9250   17.0580 C.2    50  GLU50       0.3649
     17  OE1      -21.7520    4.3360   17.2070 O.co2  50  GLU50      -0.2457
     18  OE2      -19.7420    4.5030   16.3820 O.co2  50  GLU50      -0.2457
     19  N        -20.2160    1.4850   21.4860 N.am   51  ASN51      -0.1974
     20  CA       -19.3300    1.9800   22.5600 C.3    51  ASN51       0.1688
     21  C        -19.6380    1.5370   23.9790 C.2    51  ASN51       0.2292
     22  O        -18.7100    1.4450   24.7760 O.2    51  ASN51      -0.2864
     23  CB       -19.4070    3.4990   22.5830 C.3    51  ASN51       0.1181
     24  CG       -18.6030    4.0470   21.4960 C.2    51  ASN51       0.2629
     25  OD1      -17.4260    3.7330   21.4190 O.2    51  ASN51      -0.2716
     26  ND2      -19.2190    4.7760   20.5910 N.am   51  ASN51      -0.0877
     27  N        -17.7580   -1.3650   25.9630 N.3    54  LYS54      -0.1245
     28  CA       -16.3090   -1.3100   26.1220 C.3    54  LYS54       0.1561
     29  C        -15.8710   -1.2650   27.5950 C.2    54  LYS54       0.2260
     30  O        -16.6520   -0.8670   28.4320 O.2    54  LYS54      -0.2867
     31  CB       -15.7380   -0.0970   25.3930 C.3    54  LYS54       0.0271
     32  CG       -15.7520   -0.3730   23.8460 C.3    54  LYS54       0.0035
     33  CD       -15.5400    0.8410   22.9490 C.3    54  LYS54       0.0206
     34  CE       -15.6480    0.4960   21.4350 C.3    54  LYS54       0.1093
     35  NZ       -15.4580    1.6520   20.4820 N.3    54  LYS54      -0.1314
     36  N        -19.2010   -6.3060   22.3580 N.3    87  HIS87      -0.1241
     37  CA       -18.0200   -5.5800   21.9580 C.3    87  HIS87       0.1621
     38  C        -17.6270   -4.6630   23.0990 C.2    87  HIS87       0.2264
     39  O        -18.3560   -3.7050   23.3780 O.2    87  HIS87      -0.2867
     40  CB       -18.3090   -4.7460   20.7050 C.3    87  HIS87       0.0745
     41  CG       -17.1530   -3.9690   20.2020 C.ar   87  HIS87       0.0817
     42  ND1      -16.0980   -4.5720   19.5670 N.ar   87  HIS87      -0.2268
     43  CD2      -16.8930   -2.6340   20.1930 C.ar   87  HIS87       0.1154
     44  CE1      -15.2240   -3.6440   19.1920 C.ar   87  HIS87       0.1986
     45  NE2      -15.6940   -2.4620   19.5390 N.ar   87  HIS87      -0.2212
     46  N         -9.4790   -4.5930   25.4510 N.3    91  TRP91      -0.1241
     47  CA        -8.9240   -3.7020   24.3840 C.3    91  TRP91       0.1605
     48  C         -7.8990   -2.7570   24.9600 C.2    91  TRP91       0.2264
     49  O         -7.9510   -2.4460   26.1490 O.2    91  TRP91      -0.2867
     50  CB       -10.0300   -2.9040   23.7480 C.3    91  TRP91       0.0550
     51  CG        -9.7250   -2.2680   22.4090 C.ar   91  TRP91       0.0003
     52  CD1       -8.7640   -2.6400   21.4690 C.ar   91  TRP91       0.0946
     53  CD2      -10.4270   -1.1660   21.8350 C.ar   91  TRP91       0.0152
     54  NE1       -8.8100   -1.7900   20.3920 N.ar   91  TRP91      -0.2442
     55  CE2       -9.8180   -0.8810   20.5830 C.ar   91  TRP91       0.0810
     56  CE3      -11.5010   -0.3710   22.2620 C.ar   91  TRP91       0.0012
     57  CZ2      -10.2580    0.1840   19.7620 C.ar   91  TRP91       0.0191
     58  CZ3      -11.9170    0.6730   21.4480 C.ar   91  TRP91       0.0001
     59  CH2      -11.3050    0.9250   20.2060 C.ar   91  TRP91       0.0015
     60  N         -8.2020    3.4580   25.2570 N.3    94  GLN94      -0.1245
     61  CA        -8.6690    4.0760   26.4860 C.3    94  GLN94       0.1566
     62  C         -9.4640    3.0120   27.2680 C.2    94  GLN94       0.2260
     63  O        -10.7070    2.9990   27.2680 O.2    94  GLN94      -0.2867
     64  CB        -9.5100    5.3040   26.1330 C.3    94  GLN94       0.0367
     65  CG        -9.3200    5.7330   24.6910 C.3    94  GLN94       0.0905
     66  CD       -10.6450    5.8870   23.9770 C.2    94  GLN94       0.2608
     67  OE1      -11.4010    4.9140   23.8290 O.2    94  GLN94      -0.2717
     68  NE2      -10.9450    7.1020   23.5240 N.am   94  GLN94      -0.0878
     69  N         -9.7190   -7.7210   21.4730 N.3   150  ASN150     -0.1225
     70  CA        -9.8020   -6.8260   20.3030 C.3   150  ASN150      0.1785
     71  C         -8.3990   -6.2490   20.0070 C.2   150  ASN150      0.2597
     72  O         -7.7500   -5.6310   20.8910 O.2   150  ASN150     -0.2718
     73  CB       -10.7320   -5.6950   20.6570 C.3   150  ASN150      0.1169
     74  CG       -11.2280   -4.8800   19.4180 C.2   150  ASN150      0.2627
     75  OD1      -11.5150   -5.4410   18.3810 O.2   150  ASN150     -0.2716
     76  ND2      -11.3900   -3.5720   19.5690 N.am  150  ASN150     -0.0877
     77  N         -7.9450   -6.4140   18.7730 N.am  151  GLN151     -0.1979
     78  CA        -6.7750   -5.7590   18.2480 C.3   151  GLN151      0.1601
     79  C         -5.5150   -6.1290   18.9920 C.2   151  GLN151      0.2287
     80  O         -4.7370   -5.2570   19.3220 O.2   151  GLN151     -0.2864
     81  CB        -6.9690   -4.2480   18.2050 C.3   151  GLN151      0.0394
     82  CG        -7.9830   -3.8380   17.1230 C.3   151  GLN151      0.0908
     83  CD        -8.3530   -2.3860   17.1700 C.2   151  GLN151      0.2608
     84  OE1       -7.6680   -1.5830   17.8010 O.2   151  GLN151     -0.2717
     85  NE2       -9.4530   -2.0240   16.4930 N.am  151  GLN151     -0.0878
     86  N          0.1950   -4.2300   13.5820 N.3   155  ASP155     -0.1239
     87  CA         0.3120   -4.0850   12.1220 C.3   155  ASP155      0.1674
     88  C          1.7090   -4.5160   11.5780 C.2   155  ASP155      0.2266
     89  O          1.8200   -4.9860   10.4490 O.2   155  ASP155     -0.2867
     90  CB        -0.0700   -2.6480   11.7260 C.3   155  ASP155      0.1410
     91  CG        -1.5800   -2.3970   11.8750 C.2   155  ASP155      0.3668
     92  OD1       -2.3530   -3.2770   11.4870 O.co2 155  ASP155     -0.2456
     93  OD2       -1.9830   -1.3190   12.3270 O.co2 155  ASP155     -0.2456
     94  N         -8.6460   -5.6150   12.8540 N.3   195  TYR195     -0.1227
     95  CA        -8.7490   -4.8990   11.5390 C.3   195  TYR195      0.1736
     96  C         -7.5640   -5.2740   10.7020 C.2   195  TYR195      0.2595
     97  O         -6.5740   -5.8030   11.2130 O.2   195  TYR195     -0.2718
     98  CB        -8.8500   -3.3760   11.7430 C.3   195  TYR195      0.0548
     99  CG        -7.5790   -2.7370   12.2790 C.ar  195  TYR195     -0.0200
    100  CD1       -6.5880   -2.2890   11.4270 C.ar  195  TYR195     -0.0009
    101  CD2       -7.3400   -2.6790   13.6630 C.ar  195  TYR195     -0.0009
    102  CE1       -5.4030   -1.7370   11.9240 C.ar  195  TYR195      0.0417
    103  CE2       -6.1660   -2.1500   14.1730 C.ar  195  TYR195      0.0417
    104  CZ        -5.1930   -1.6870   13.2980 C.ar  195  TYR195      0.1957
    105  OH        -4.0570   -1.1930   13.8610 O.3   195  TYR195     -0.2866
    106  N         -7.6830   -5.1140    9.3950 N.am  196  ASN196     -0.1974
    107  CA        -6.6140   -5.4490    8.4420 C.3   196  ASN196      0.1688
    108  C         -6.1760   -6.9030    8.6170 C.2   196  ASN196      0.2292
    109  O         -4.9900   -7.2930    8.4990 O.2   196  ASN196     -0.2864
    110  CB        -5.4110   -4.4850    8.6140 C.3   196  ASN196      0.1181
    111  CG        -5.6280   -3.1120    8.0240 C.2   196  ASN196      0.2629
    112  OD1       -4.6690   -2.3210    7.9670 O.2   196  ASN196     -0.2716
    113  ND2       -6.8490   -2.7640    7.6840 N.am  196  ASN196     -0.0877
    114  N         -4.2290   -8.4230    5.6830 N.3   199  VAL199     -0.1245
    115  CA        -2.9800   -7.7550    5.3080 C.3   199  VAL199      0.1561
    116  C         -1.7580   -8.3810    5.9820 C.2   199  VAL199      0.2260
    117  O         -1.7400   -8.5840    7.2170 O.2   199  VAL199     -0.2867
    118  CB        -3.0280   -6.2800    5.7550 C.3   199  VAL199      0.0252
    119  CG1       -1.7510   -5.5100    5.3290 C.3   199  VAL199      0.0019
    120  CG2       -4.2720   -5.6150    5.2100 C.3   199  VAL199      0.0019
    121  N        -12.9270   -6.9330   11.3260 N.3   226  GLN226     -0.1245
    122  CA       -13.5800   -5.6770   11.4950 C.3   226  GLN226      0.1566
    123  C        -14.0090   -5.0810   10.1460 C.2   226  GLN226      0.2260
    124  O        -15.0870   -4.5410   10.0170 O.2   226  GLN226     -0.2867
    125  CB       -12.7380   -4.7080   12.2800 C.3   226  GLN226      0.0367
    126  CG       -12.5880   -5.1130   13.7290 C.3   226  GLN226      0.0905
    127  CD       -11.6540   -4.1510   14.4750 C.2   226  GLN226      0.2608
    128  OE1      -11.2600   -3.1280   13.9600 O.2   226  GLN226     -0.2717
    129  NE2      -11.4500   -4.4100   15.6800 N.am  226  GLN226     -0.0878
    130  N        -13.0370   -2.5540    8.1750 N.3   228  HIS228     -0.1241
    131  CA       -13.0630   -1.1080    7.8780 C.3   228  HIS228      0.1621
    132  C        -12.2860   -0.9030    6.5830 C.2   228  HIS228      0.2264
    133  O        -11.0740   -0.7950    6.5850 O.2   228  HIS228     -0.2867
    134  CB       -12.4530   -0.3250    9.0660 C.3   228  HIS228      0.0745
    135  CG       -13.2820   -0.4290   10.3040 C.ar  228  HIS228      0.0817
    136  ND1      -14.5350    0.1110   10.3750 N.ar  228  HIS228     -0.2268
    137  CD2      -13.0610   -1.0360   11.5100 C.ar  228  HIS228      0.1154
    138  CE1      -15.0910   -0.1900   11.5370 C.ar  228  HIS228      0.1986
    139  NE2      -14.2110   -0.8750   12.2470 N.ar  228  HIS228     -0.2212
    140  N        -12.1280    0.0380    2.0560 N.3   230  GLN230     -0.1245
    141  CA       -12.2680    1.0810    1.0630 C.3   230  GLN230      0.1566
    142  C        -12.8930    0.5220   -0.1550 C.2   230  GLN230      0.2260
    143  O        -13.1820   -0.7110   -0.2400 O.2   230  GLN230     -0.2867
    144  CB       -10.8550    1.6840    0.7540 C.3   230  GLN230      0.0367
    145  CG       -10.2580    2.4080    1.9780 C.3   230  GLN230      0.0905
    146  CD        -8.7550    2.5610    1.8950 C.2   230  GLN230      0.2608
    147  OE1       -8.2270    2.6630    0.8270 O.2   230  GLN230     -0.2717
    148  NE2       -8.0730    2.5020    3.0360 N.am  230  GLN230     -0.0878
    149  N         -9.6840   -1.4890   -1.8360 N.3   233  TRP233     -0.1241
    150  CA        -8.6740   -2.1340   -1.0120 C.3   233  TRP233      0.1605
    151  C         -9.3570   -2.5570    0.2900 C.2   233  TRP233      0.2264
    152  O        -10.1820   -1.8070    0.8050 O.2   233  TRP233     -0.2867
    153  CB        -7.5480   -1.1370   -0.6720 C.3   233  TRP233      0.0550
    154  CG        -6.5980   -1.7360    0.3640 C.ar  233  TRP233      0.0003
    155  CD1       -5.4260   -2.4050    0.1260 C.ar  233  TRP233      0.0946
    156  CD2       -6.7460   -1.6790    1.8140 C.ar  233  TRP233      0.0152
    157  NE1       -4.8530   -2.8010    1.3410 N.ar  233  TRP233     -0.2442
    158  CE2       -5.6340   -2.3560    2.3800 C.ar  233  TRP233      0.0810
    159  CE3       -7.7060   -1.1130    2.6730 C.ar  233  TRP233      0.0012
    160  CZ2       -5.4530   -2.4830    3.7650 C.ar  233  TRP233      0.0191
    161  CZ3       -7.5270   -1.2680    4.0950 C.ar  233  TRP233      0.0001
    162  CH2       -6.4210   -1.9540    4.5970 C.ar  233  TRP233      0.0015
    163  N        -17.4760   -5.1590   11.7440 N.3   257  GLU257     -0.1245
    164  CA       -17.5720   -3.7110   11.7760 C.3   257  GLU257      0.1567
    165  C        -17.5430   -3.1340   10.3650 C.2   257  GLU257      0.2260
    166  O        -16.8820   -2.1070   10.0840 O.2   257  GLU257     -0.2867
    167  CB       -16.4760   -3.1320   12.6520 C.3   257  GLU257      0.0388
    168  CG       -16.3120   -3.8950   13.9750 C.3   257  GLU257      0.1160
    169  CD       -15.3100   -3.2230   14.9080 C.2   257  GLU257      0.3649
    170  OE1      -14.8450   -2.1100   14.5500 O.co2 257  GLU257     -0.2457
    171  OE2      -15.0030   -3.7900   15.9760 O.co2 257  GLU257     -0.2457
    172  N         -6.4930    6.3750    2.4890 N.3   265  TRP265     -0.1241
    173  CA        -5.8870    6.4250    3.8290 C.3   265  TRP265      0.1605
    174  C         -4.5060    7.1010    3.6870 C.2   265  TRP265      0.2264
    175  O         -3.7670    6.6880    2.8380 O.2   265  TRP265     -0.2867
    176  CB        -5.7450    5.0220    4.3980 C.3   265  TRP265      0.0550
    177  CG        -5.1660    5.1140    5.7640 C.ar  265  TRP265      0.0003
    178  CD1       -3.8610    4.9610    6.1310 C.ar  265  TRP265      0.0946
    179  CD2       -5.8810    5.4850    6.9380 C.ar  265  TRP265      0.0152
    180  NE1       -3.7370    5.1900    7.5160 N.ar  265  TRP265     -0.2442
    181  CE2       -4.9650    5.5120    8.0170 C.ar  265  TRP265      0.0810
    182  CE3       -7.2050    5.7710    7.1830 C.ar  265  TRP265      0.0012
    183  CZ2       -5.3510    5.8150    9.3100 C.ar  265  TRP265      0.0191
    184  CZ3       -7.5740    6.1020    8.4680 C.ar  265  TRP265      0.0001
    185  CH2       -6.6550    6.1530    9.4980 C.ar  265  TRP265      0.0015
    186  N        -21.0490   -1.2340   10.7750 N.3   308  TRP308     -0.1241
    187  CA       -20.6830   -0.4440   11.9440 C.3   308  TRP308      0.1605
    188  C        -21.4620    0.8870   11.9850 C.2   308  TRP308      0.2264
    189  O        -20.8800    1.9750   11.9940 O.2   308  TRP308     -0.2867
    190  CB       -19.1730   -0.2200   11.9830 C.3   308  TRP308      0.0550
    191  CG       -18.6880    0.0940   13.3440 C.ar  308  TRP308      0.0003
    192  CD1      -18.1300    1.2570   13.7690 C.ar  308  TRP308      0.0946
    193  CD2      -18.6910   -0.8010   14.4960 C.ar  308  TRP308      0.0152
    194  NE1      -17.7840    1.1390   15.1100 N.ar  308  TRP308     -0.2442
    195  CE2      -18.1340   -0.1030   15.5660 C.ar  308  TRP308      0.0810
    196  CE3      -19.1470   -2.0940   14.7050 C.ar  308  TRP308      0.0012
    197  CZ2      -17.9940   -0.6710   16.8270 C.ar  308  TRP308      0.0191
    198  CZ3      -19.0070   -2.6590   15.9850 C.ar  308  TRP308      0.0001
    199  CH2      -18.4890   -1.9440   17.0020 C.ar  308  TRP308      0.0015
    200  N        -24.9200    8.7000   10.6710 N.3   314  HIS314     -0.1241
    201  CA       -24.0930    8.4860   11.8400 C.3   314  HIS314      0.1621
    202  C        -23.0710    7.3800   11.5890 C.2   314  HIS314      0.2264
    203  O        -23.4880    6.2230   11.4180 O.2   314  HIS314     -0.2867
    204  CB       -24.9430    8.0770   13.0370 C.3   314  HIS314      0.0745
    205  CG       -24.1230    7.7430   14.2450 C.ar  314  HIS314      0.0817
    206  ND1      -23.9950    8.6100   15.3060 N.ar  314  HIS314     -0.2268
    207  CD2      -23.3080    6.6980   14.5250 C.ar  314  HIS314      0.1154
    208  CE1      -23.1390    8.1190   16.1820 C.ar  314  HIS314      0.1986
    209  NE2      -22.7150    6.9560   15.7320 N.ar  314  HIS314     -0.2212
    210  N        -18.7490    6.5990   12.7210 N.3   316  TRP316     -0.1241
    211  CA       -17.4410    6.9730   13.2970 C.3   316  TRP316      0.1605
    212  C        -16.4270    7.3580   12.2390 C.2   316  TRP316      0.2264
    213  O        -15.4520    8.0260   12.5790 O.2   316  TRP316     -0.2867
    214  CB       -16.8550    5.8320   14.1810 C.3   316  TRP316      0.0550
    215  CG       -16.1710    4.8450   13.3720 C.ar  316  TRP316      0.0003
    216  CD1      -16.7510    4.1070   12.3690 C.ar  316  TRP316      0.0946
    217  CD2      -14.7640    4.5610   13.3110 C.ar  316  TRP316      0.0152
    218  NE1      -15.8270    3.3240   11.7710 N.ar  316  TRP316     -0.2442
    219  CE2      -14.6010    3.5710   12.3180 C.ar  316  TRP316      0.0810
    220  CE3      -13.6480    4.9750   14.0730 C.ar  316  TRP316      0.0012
    221  CZ2      -13.3820    3.0060   12.0070 C.ar  316  TRP316      0.0191
    222  CZ3      -12.4070    4.4370   13.7560 C.ar  316  TRP316      0.0001
    223  CH2      -12.2810    3.4630   12.7290 C.ar  316  TRP316      0.0015
    224  N        -12.6620   10.5990   11.1520 N.3   320  ARG320     -0.1245
    225  CA       -11.4370   10.4240   10.3710 C.3   320  ARG320      0.1563
    226  C        -11.5360   11.2250    9.0480 C.2   320  ARG320      0.2260
    227  O        -10.5990   11.2590    8.2550 O.2   320  ARG320     -0.2867
    228  CB       -11.2910    8.9590    9.9760 C.3   320  ARG320      0.0307
    229  CG       -10.6750    8.1350   11.0530 C.3   320  ARG320      0.0489
    230  CD       -11.2310    6.7590   11.0310 C.3   320  ARG320      0.2205
    231  NE       -10.9920    5.8760    9.8880 N.pl3 320  ARG320     -0.0865
    232  CZ       -10.3410    4.7170    9.9050 C.cat 320  ARG320      0.5346
    233  NH1       -9.6040    4.3280   10.9620 N.pl3 320  ARG320      0.1354
    234  NH2      -10.4340    3.9240    8.8340 N.pl3 320  ARG320      0.1354
@<TRIPOS>BOND
     1   149   150    1
     2   150   153    1
     3   150   151    1
     4   153   154    1
     5   143   142    2
     6   142   141    1
     7   155   154   ar
     8   155   157   ar
     9   151   152    2
    10   154   156   ar
    11   144   141    1
    12   144   145    1
    13   147   146    2
    14   141   140    1
    15   157   158   ar
    16   156   158   ar
    17   156   159   ar
    18   146   145    1
    19   146   148   am
    20   158   160   ar
    21   172   173    1
    22   159   161   ar
    23   175   174    2
    24   174   173    1
    25   160   162   ar
    26   173   176    1
    27   161   162   ar
    28   176   177    1
    29   120   118    1
    30   115   114    1
    31   115   118    1
    32   115   116    1
    33   119   118    1
    34   177   178   ar
    35   177   179   ar
    36   116   117    2
    37   178   180   ar
    38   132   133    2
    39   132   131    1
    40   179   182   ar
    41   179   181   ar
    42   182   184   ar
    43   180   181   ar
    44   113   111   am
    45   131   130    1
    46   131   134    1
    47   112   111    2
    48   181   183   ar
    49   111   110    1
    50   227   226    2
    51   107   110    1
    52   107   108    1
    53   107   106    1
    54   184   185   ar
    55   109   108    2
    56   234   232    1
    57   226   225    1
    58   134   135    1
    59   183   185   ar
    60   106    96   am
    61   231   232    2
    62   231   230    1
    63   232   233    1
    64   228   225    1
    65   228   229    1
    66   124   123    2
    67   166   165    2
    68   123   122    1
    69   135   136   ar
    70   135   137   ar
    71   165   164    1
    72   225   224    1
    73   136   138   ar
    74    89    88    2
    75   200   201    1
    76    96    97    2
    77    96    95    1
    78   186   187    1
    79   230   229    1
    80   121   122    1
    81   203   202    2
    82   100   102   ar
    83   100    99   ar
    84    92    91   ar
    85   122   125    1
    86   137   139   ar
    87   138   139   ar
    88    95    98    1
    89    95    94    1
    90    88    87    1
    91   202   201    1
    92    90    91    1
    93    90    87    1
    94    98    99    1
    95   163   164    1
    96   218   219   ar
    97   218   216   ar
    98   164   167    1
    99   201   204    1
   100    91    93   ar
   101   102   104   ar
   102   187   190    1
   103   187   188    1
   104   190   191    1
   105   188   189    2
   106   221   219   ar
   107   221   223   ar
   108    87    86    1
   109   212   213    2
   110   212   211    1
   111    99   101   ar
   112   125   126    1
   113   219   217   ar
   114   216   215   ar
   115   167   168    1
   116   210   211    1
   117   223   222   ar
   118   204   205    1
   119   211   214    1
   120   104   105    1
   121   104   103   ar
   122   217   215   ar
   123   217   220   ar
   124   191   192   ar
   125   191   193   ar
   126   215   214    1
   127   101   103   ar
   128   126   127    1
   129   222   220   ar
   130   192   194   ar
   131   128   127    2
   132   168   169    1
   133   205   207   ar
   134   205   206   ar
   135   127   129   am
   136   193   196   ar
   137   193   195   ar
   138   207   209   ar
   139   170   169   ar
   140   196   198   ar
   141   169   171   ar
   142   194   195   ar
   143   206   208   ar
   144   195   197   ar
   145   209   208   ar
   146   198   199   ar
   147    18    16   ar
   148    85    83   am
   149   197   199   ar
   150    16    17   ar
   151    16    15    1
   152    82    83    1
   153    82    81    1
   154    83    84    2
   155    15    14    1
   156    81    78    1
   157    78    77    1
   158    78    79    1
   159    75    74    2
   160    14    11    1
   161    77    71   am
   162    79    80    2
   163    44    45   ar
   164    44    42   ar
   165    11    10    1
   166    11    12    1
   167     1     2    1
   168    74    76   am
   169    74    73    1
   170    45    43   ar
   171    42    41   ar
   172     6     5    1
   173     6     7    1
   174    57    59   ar
   175    57    55   ar
   176    71    70    1
   177    71    72    2
   178    13    12    2
   179     5     2    1
   180    43    41   ar
   181    41    40    1
   182    59    58   ar
   183    70    73    1
   184    70    69    1
   185    12    19   am
   186    54    55   ar
   187    54    52   ar
   188     4     3    2
   189     2     3    1
   190    35    34    1
   191     9     7   ar
   192    55    53   ar
   193    26    24   am
   194    40    37    1
   195     7     8   ar
   196    25    24    2
   197    34    33    1
   198    58    56   ar
   199    52    51   ar
   200    19    20    1
   201    24    23    1
   202    53    56   ar
   203    53    51   ar
   204    37    36    1
   205    37    38    1
   206    51    50    1
   207    20    23    1
   208    20    21    1
   209    33    32    1
   210    38    39    2
   211    68    66   am
   212    50    47    1
   213    67    66    2
   214    32    31    1
   215    66    65    1
   216    21    22    2
   217    47    48    1
   218    47    46    1
   219    65    64    1
   220    48    49    2
   221    60    61    1
   222    31    28    1
   223    27    28    1
   224    28    29    1
   225    64    61    1
   226    61    62    1
   227    63    62    2
   228    29    30    2
