@<TRIPOS>MOLECULE
tmp/4pueA00.pdb
 227 222 0 0 0
SMALL
GASTEIGER

@<TRIPOS>ATOM
      1  N        -25.9980    3.5460   19.2250 N.3    27  GLU27      -0.1245
      2  CA       -25.8860    4.2750   20.4570 C.3    27  GLU27       0.1567
      3  C        -27.2550    4.3030   21.1120 C.2    27  GLU27       0.2260
      4  O        -28.2680    4.2560   20.4640 O.2    27  GLU27      -0.2867
      5  CB       -25.4500    5.6760   20.1650 C.3    27  GLU27       0.0388
      6  CG       -24.0820    5.7880   19.5700 C.3    27  GLU27       0.1160
      7  CD       -23.0020    5.8310   20.6080 C.2    27  GLU27       0.3649
      8  OE1      -23.1730    5.2880   21.7320 O.co2  27  GLU27      -0.2457
      9  OE2      -21.9630    6.3660   20.2120 O.co2  27  GLU27      -0.2457
     10  N        -21.9670    0.4800   19.7080 N.3    50  GLU50      -0.1231
     11  CA       -20.8480    1.1810   19.1810 C.3    50  GLU50       0.1699
     12  C        -19.8360    1.6110   20.2920 C.2    50  GLU50       0.2592
     13  O        -18.6400    1.6060   20.0450 O.2    50  GLU50      -0.2718
     14  CB       -21.3710    2.4130   18.4890 C.3    50  GLU50       0.0402
     15  CG       -20.4190    2.9800   17.5000 C.3    50  GLU50       0.1161
     16  CD       -20.8390    4.3200   16.9700 C.2    50  GLU50       0.3649
     17  OE1      -21.9860    4.7070   17.1770 O.co2  50  GLU50      -0.2457
     18  OE2      -19.9950    4.9680   16.3270 O.co2  50  GLU50      -0.2457
     19  N        -20.3240    1.9630   21.4950 N.am   51  ASN51      -0.1974
     20  CA       -19.4640    2.5060   22.5610 C.3    51  ASN51       0.1688
     21  C        -19.7620    2.0550   23.9940 C.2    51  ASN51       0.2292
     22  O        -18.8470    1.9660   24.8070 O.2    51  ASN51      -0.2864
     23  CB       -19.5770    4.0490   22.5730 C.3    51  ASN51       0.1181
     24  CG       -18.7480    4.6300   21.5380 C.2    51  ASN51       0.2629
     25  OD1      -17.5700    4.3470   21.5130 O.2    51  ASN51      -0.2716
     26  ND2      -19.3370    5.3690   20.6190 N.am   51  ASN51      -0.0877
     27  N        -17.8890   -0.8440   25.9880 N.3    54  LYS54      -0.1245
     28  CA       -16.4470   -0.7860   26.1120 C.3    54  LYS54       0.1561
     29  C        -16.0600   -0.7090   27.5560 C.2    54  LYS54       0.2260
     30  O        -16.8450   -0.2720   28.3790 O.2    54  LYS54      -0.2867
     31  CB       -15.9070    0.3920   25.3240 C.3    54  LYS54       0.0271
     32  CG       -15.6150   -0.0150   23.8630 C.3    54  LYS54       0.0035
     33  CD       -15.6780    1.1440   22.8840 C.3    54  LYS54       0.0206
     34  CE       -15.4970    0.6510   21.4420 C.3    54  LYS54       0.1093
     35  NZ       -15.5430    1.7850   20.4800 N.3    54  LYS54      -0.1314
     36  N        -19.2560   -5.8660   22.3480 N.3    87  HIS87      -0.1241
     37  CA       -18.0870   -5.1310   21.9670 C.3    87  HIS87       0.1621
     38  C        -17.7310   -4.1350   23.0560 C.2    87  HIS87       0.2264
     39  O        -18.5180   -3.1880   23.2560 O.2    87  HIS87      -0.2867
     40  CB       -18.4230   -4.3460   20.7270 C.3    87  HIS87       0.0745
     41  CG       -17.2590   -3.6440   20.1370 C.ar   87  HIS87       0.0817
     42  ND1      -16.2530   -4.3210   19.4880 N.ar   87  HIS87      -0.2268
     43  CD2      -16.9590   -2.3310   20.0500 C.ar   87  HIS87       0.1154
     44  CE1      -15.3380   -3.4450   19.0970 C.ar   87  HIS87       0.1986
     45  NE2      -15.7690   -2.2330   19.3760 N.ar   87  HIS87      -0.2212
     46  N         -9.5560   -4.0820   25.3350 N.3    91  TRP91      -0.1241
     47  CA        -8.9630   -3.2450   24.2970 C.3    91  TRP91       0.1605
     48  C         -7.8900   -2.2970   24.9040 C.2    91  TRP91       0.2264
     49  O         -7.9280   -1.9980   26.1010 O.2    91  TRP91      -0.2867
     50  CB       -10.0910   -2.4760   23.6110 C.3    91  TRP91       0.0550
     51  CG        -9.7680   -1.7700   22.3540 C.ar   91  TRP91       0.0003
     52  CD1       -8.8510   -2.1340   21.3850 C.ar   91  TRP91       0.0946
     53  CD2      -10.4890   -0.6520   21.8230 C.ar   91  TRP91       0.0152
     54  NE1       -8.9050   -1.2330   20.3300 N.ar   91  TRP91      -0.2442
     55  CE2       -9.8920   -0.3140   20.5760 C.ar   91  TRP91       0.0810
     56  CE3      -11.5640    0.1280   22.2950 C.ar   91  TRP91       0.0012
     57  CZ2      -10.3230    0.7960   19.8120 C.ar   91  TRP91       0.0191
     58  CZ3      -11.9850    1.2280   21.5330 C.ar   91  TRP91       0.0001
     59  CH2      -11.3690    1.5390   20.2970 C.ar   91  TRP91       0.0015
     60  N        -10.0150    3.2130   24.9780 N.3    94  GLN94      -0.1245
     61  CA       -11.2590    3.3200   25.7260 C.3    94  GLN94       0.1566
     62  C        -11.2610    2.2900   26.8440 C.2    94  GLN94       0.2260
     63  O        -12.1800    1.5110   27.0020 O.2    94  GLN94      -0.2867
     64  CB       -12.5050    3.2060   24.8220 C.3    94  GLN94       0.0367
     65  CG       -13.0080    4.5280   24.2560 C.3    94  GLN94       0.0905
     66  CD       -14.0380    4.3820   23.1510 C.2    94  GLN94       0.2608
     67  OE1      -13.7180    4.0020   22.0610 O.2    94  GLN94      -0.2717
     68  NE2      -15.2780    4.6670   23.4490 N.am   94  GLN94      -0.0878
     69  N         -9.8280   -7.2520   21.3400 N.3   150  ASN150     -0.1225
     70  CA        -9.8690   -6.3540   20.1850 C.3   150  ASN150      0.1785
     71  C         -8.4350   -5.8050   19.8450 C.2   150  ASN150      0.2597
     72  O         -7.7270   -5.2900   20.7120 O.2   150  ASN150     -0.2718
     73  CB       -10.8000   -5.2010   20.5580 C.3   150  ASN150      0.1169
     74  CG       -11.3850   -4.4670   19.3470 C.2   150  ASN150      0.2627
     75  OD1      -11.7610   -5.0610   18.3580 O.2   150  ASN150     -0.2716
     76  ND2      -11.5010   -3.1690   19.4620 N.am  150  ASN150     -0.0877
     77  N         -7.9870   -5.9600   18.6060 N.am  151  GLN151     -0.1979
     78  CA        -6.7670   -5.3040   18.1310 C.3   151  GLN151      0.1601
     79  C         -5.5510   -5.7250   18.9000 C.2   151  GLN151      0.2287
     80  O         -4.8180   -4.8880   19.3300 O.2   151  GLN151     -0.2864
     81  CB        -6.9370   -3.7740   18.2010 C.3   151  GLN151      0.0394
     82  CG        -8.0050   -3.3350   17.2220 C.3   151  GLN151      0.0908
     83  CD        -8.2870   -1.8600   17.1470 C.2   151  GLN151      0.2608
     84  OE1       -7.6300   -1.0350   17.7580 O.2   151  GLN151     -0.2717
     85  NE2       -9.3300   -1.5310   16.3750 N.am  151  GLN151     -0.0878
     86  N          0.1140   -3.8950   13.4440 N.3   155  ASP155     -0.1239
     87  CA         0.1840   -3.8430   11.9780 C.3   155  ASP155      0.1674
     88  C          1.5770   -4.2900   11.4160 C.2   155  ASP155      0.2266
     89  O          1.6720   -4.7650   10.2530 O.2   155  ASP155     -0.2867
     90  CB        -0.1920   -2.4200   11.5310 C.3   155  ASP155      0.1410
     91  CG        -1.6860   -2.1530   11.6410 C.2   155  ASP155      0.3668
     92  OD1       -2.4670   -3.1090   11.4190 O.co2 155  ASP155     -0.2456
     93  OD2       -2.0870   -1.0020   11.9010 O.co2 155  ASP155     -0.2456
     94  N         -8.7970   -5.2110   12.7050 N.3   195  TYR195     -0.1227
     95  CA        -8.9230   -4.5200   11.3960 C.3   195  TYR195      0.1736
     96  C         -7.7060   -4.8630   10.5560 C.2   195  TYR195      0.2595
     97  O         -6.6880   -5.2760   11.1010 O.2   195  TYR195     -0.2718
     98  CB        -8.9960   -2.9910   11.5970 C.3   195  TYR195      0.0548
     99  CG        -7.7370   -2.3750   12.1710 C.ar  195  TYR195     -0.0200
    100  CD1       -6.6950   -1.9910   11.3440 C.ar  195  TYR195     -0.0009
    101  CD2       -7.5690   -2.2140   13.5520 C.ar  195  TYR195     -0.0009
    102  CE1       -5.5350   -1.4170   11.8530 C.ar  195  TYR195      0.0417
    103  CE2       -6.3970   -1.6700   14.0800 C.ar  195  TYR195      0.0417
    104  CZ        -5.3690   -1.2910   13.2160 C.ar  195  TYR195      0.1957
    105  OH        -4.2180   -0.7430   13.7160 O.3   195  TYR195     -0.2866
    106  N         -7.7830   -4.6190    9.2460 N.am  196  ASN196     -0.1974
    107  CA        -6.7200   -5.0090    8.2970 C.3   196  ASN196      0.1688
    108  C         -6.3190   -6.4680    8.4780 C.2   196  ASN196      0.2292
    109  O         -5.1190   -6.8450    8.4310 O.2   196  ASN196     -0.2864
    110  CB        -5.4890   -4.0950    8.4320 C.3   196  ASN196      0.1181
    111  CG        -5.7380   -2.6850    7.9180 C.2   196  ASN196      0.2629
    112  OD1       -4.8550   -1.8440    7.9850 O.2   196  ASN196     -0.2716
    113  ND2       -6.9390   -2.4190    7.4250 N.am  196  ASN196     -0.0877
    114  N        -13.1100   -6.4850   11.2190 N.3   226  GLN226     -0.1245
    115  CA       -13.7880   -5.1920   11.3940 C.3   226  GLN226      0.1566
    116  C        -14.2640   -4.6180   10.0390 C.2   226  GLN226      0.2260
    117  O        -15.3660   -4.0210    9.9060 O.2   226  GLN226     -0.2867
    118  CB       -12.8740   -4.2100   12.1410 C.3   226  GLN226      0.0367
    119  CG       -12.8260   -4.4870   13.6260 C.3   226  GLN226      0.0905
    120  CD       -11.8680   -3.5750   14.3630 C.2   226  GLN226      0.2608
    121  OE1      -11.3850   -2.5940   13.8470 O.2   226  GLN226     -0.2717
    122  NE2      -11.6580   -3.8630   15.5800 N.am  226  GLN226     -0.0878
    123  N        -13.3430   -2.0500    8.0350 N.3   228  HIS228     -0.1241
    124  CA       -13.3440   -0.6330    7.7750 C.3   228  HIS228      0.1621
    125  C        -12.5130   -0.4460    6.4730 C.2   228  HIS228      0.2264
    126  O        -11.3030   -0.2530    6.5210 O.2   228  HIS228     -0.2867
    127  CB       -12.7010    0.1370    8.9650 C.3   228  HIS228      0.0745
    128  CG       -13.5330    0.0750   10.1960 C.ar  228  HIS228      0.0817
    129  ND1      -14.8200    0.5760   10.2310 N.ar  228  HIS228     -0.2268
    130  CD2      -13.3180   -0.4890   11.4010 C.ar  228  HIS228      0.1154
    131  CE1      -15.3590    0.3400   11.4160 C.ar  228  HIS228      0.1986
    132  NE2      -14.4690   -0.3100   12.1450 N.ar  228  HIS228     -0.2212
    133  N        -12.3710    0.4940    1.9190 N.3   230  GLN230     -0.1245
    134  CA       -12.4650    1.5710    0.9420 C.3   230  GLN230      0.1566
    135  C        -13.1130    0.9940   -0.2630 C.2   230  GLN230      0.2260
    136  O        -13.3610   -0.2240   -0.3230 O.2   230  GLN230     -0.2867
    137  CB       -11.0630    2.1040    0.6020 C.3   230  GLN230      0.0367
    138  CG       -10.3810    2.7680    1.8180 C.3   230  GLN230      0.0905
    139  CD        -8.8670    2.9750    1.7310 C.2   230  GLN230      0.2608
    140  OE1       -8.3120    3.1950    0.6770 O.2   230  GLN230     -0.2717
    141  NE2       -8.2150    2.9570    2.8910 N.am  230  GLN230     -0.0878
    142  N         -9.6870   -0.8790   -1.9960 N.3   233  TRP233     -0.1241
    143  CA        -8.8280   -1.6550   -1.1100 C.3   233  TRP233      0.1605
    144  C         -9.5970   -2.0840    0.1620 C.2   233  TRP233      0.2264
    145  O        -10.3850   -1.3210    0.6880 O.2   233  TRP233     -0.2867
    146  CB        -7.6220   -0.7990   -0.7500 C.3   233  TRP233      0.0550
    147  CG        -6.7200   -1.3750    0.2940 C.ar  233  TRP233      0.0003
    148  CD1       -5.5560   -2.0680    0.0940 C.ar  233  TRP233      0.0946
    149  CD2       -6.8930   -1.2700    1.7010 C.ar  233  TRP233      0.0152
    150  NE1       -5.0250   -2.4330    1.2910 N.ar  233  TRP233     -0.2442
    151  CE2       -5.8190   -1.9570    2.3000 C.ar  233  TRP233      0.0810
    152  CE3       -7.8700   -0.6790    2.5160 C.ar  233  TRP233      0.0012
    153  CZ2       -5.6720   -2.0520    3.6830 C.ar  233  TRP233      0.0191
    154  CZ3       -7.7390   -0.7880    3.8890 C.ar  233  TRP233      0.0001
    155  CH2       -6.6410   -1.4670    4.4550 C.ar  233  TRP233      0.0015
    156  N        -17.6660   -4.7640   11.6800 N.3   257  GLU257     -0.1245
    157  CA       -17.8000   -3.2800   11.6460 C.3   257  GLU257      0.1567
    158  C        -17.7540   -2.7010   10.1980 C.2   257  GLU257      0.2260
    159  O        -17.1250   -1.6660    9.9140 O.2   257  GLU257     -0.2867
    160  CB       -16.7460   -2.6560   12.5370 C.3   257  GLU257      0.0388
    161  CG       -16.5660   -3.3880   13.8610 C.3   257  GLU257      0.1160
    162  CD       -15.5210   -2.7860   14.7710 C.2   257  GLU257      0.3649
    163  OE1      -15.0420   -1.6720   14.4530 O.co2 257  GLU257     -0.2457
    164  OE2      -15.1560   -3.4320   15.8090 O.co2 257  GLU257     -0.2457
    165  N         -6.7600    6.8530    2.3710 N.3   265  TRP265     -0.1241
    166  CA        -6.0980    6.8280    3.6610 C.3   265  TRP265      0.1605
    167  C         -4.7310    7.4700    3.4720 C.2   265  TRP265      0.2264
    168  O         -4.0260    7.0480    2.5960 O.2   265  TRP265     -0.2867
    169  CB        -5.9000    5.4120    4.1900 C.3   265  TRP265      0.0550
    170  CG        -5.3160    5.5460    5.4960 C.ar  265  TRP265      0.0003
    171  CD1       -3.9850    5.4710    5.8210 C.ar  265  TRP265      0.0946
    172  CD2       -6.0160    5.9250    6.7030 C.ar  265  TRP265      0.0152
    173  NE1       -3.8290    5.7390    7.1890 N.ar  265  TRP265     -0.2442
    174  CE2       -5.0630    5.9980    7.7410 C.ar  265  TRP265      0.0810
    175  CE3       -7.3540    6.1220    7.0090 C.ar  265  TRP265      0.0012
    176  CZ2       -5.4100    6.3020    9.0610 C.ar  265  TRP265      0.0191
    177  CZ3       -7.6920    6.4630    8.3330 C.ar  265  TRP265      0.0001
    178  CH2       -6.7290    6.5540    9.3300 C.ar  265  TRP265      0.0015
    179  N        -21.2290   -0.7880   10.7240 N.3   308  TRP308     -0.1241
    180  CA       -20.8990    0.0060   11.9000 C.3   308  TRP308      0.1605
    181  C        -21.6820    1.3150   11.9010 C.2   308  TRP308      0.2264
    182  O        -21.1080    2.4180   12.0780 O.2   308  TRP308     -0.2867
    183  CB       -19.3670    0.3030   11.9260 C.3   308  TRP308      0.0550
    184  CG       -18.8700    0.6180   13.2830 C.ar  308  TRP308      0.0003
    185  CD1      -18.3440    1.8130   13.7320 C.ar  308  TRP308      0.0946
    186  CD2      -18.8550   -0.2760   14.3930 C.ar  308  TRP308      0.0152
    187  NE1      -17.9970    1.6980   15.0450 N.ar  308  TRP308     -0.2442
    188  CE2      -18.3150    0.4350   15.4880 C.ar  308  TRP308      0.0810
    189  CE3      -19.2560   -1.5860   14.5690 C.ar  308  TRP308      0.0012
    190  CZ2      -18.1660   -0.1270   16.7260 C.ar  308  TRP308      0.0191
    191  CZ3      -19.1300   -2.1520   15.8230 C.ar  308  TRP308      0.0001
    192  CH2      -18.5940   -1.4120   16.8950 C.ar  308  TRP308      0.0015
    193  N        -25.1230    9.2850   10.5290 N.3   314  HIS314     -0.1241
    194  CA       -24.2720    9.0600   11.6780 C.3   314  HIS314      0.1621
    195  C        -23.3070    7.9260   11.4580 C.2   314  HIS314      0.2264
    196  O        -23.7060    6.7370   11.3290 O.2   314  HIS314     -0.2867
    197  CB       -25.1270    8.8300   12.9640 C.3   314  HIS314      0.0745
    198  CG       -24.3080    8.4060   14.1410 C.ar  314  HIS314      0.0817
    199  ND1      -23.9100    9.2850   15.1270 N.ar  314  HIS314     -0.2268
    200  CD2      -23.7110    7.2240   14.4330 C.ar  314  HIS314      0.1154
    201  CE1      -23.1370    8.6550   16.0000 C.ar  314  HIS314      0.1986
    202  NE2      -22.9860    7.4070   15.5890 N.ar  314  HIS314     -0.2212
    203  N        -18.9310    7.0330   12.6700 N.3   316  TRP316     -0.1241
    204  CA       -17.6110    7.4210   13.2230 C.3   316  TRP316      0.1605
    205  C        -16.6120    7.8500   12.1520 C.2   316  TRP316      0.2264
    206  O        -15.6690    8.5220   12.4860 O.2   316  TRP316     -0.2867
    207  CB       -16.9660    6.2690   14.0590 C.3   316  TRP316      0.0550
    208  CG       -16.2240    5.2890   13.2380 C.ar  316  TRP316      0.0003
    209  CD1      -16.7370    4.4890   12.2210 C.ar  316  TRP316      0.0946
    210  CD2      -14.8310    5.0080   13.3020 C.ar  316  TRP316      0.0152
    211  NE1      -15.7230    3.7360   11.6560 N.ar  316  TRP316     -0.2442
    212  CE2      -14.5520    4.0220   12.3130 C.ar  316  TRP316      0.0810
    213  CE3      -13.7900    5.4860   14.1000 C.ar  316  TRP316      0.0012
    214  CZ2      -13.2790    3.5060   12.1130 C.ar  316  TRP316      0.0191
    215  CZ3      -12.5070    4.9890   13.8940 C.ar  316  TRP316      0.0001
    216  CH2      -12.2600    4.0160   12.8980 C.ar  316  TRP316      0.0015
    217  N        -12.8700   10.9460   11.0780 N.3   320  ARG320     -0.1245
    218  CA       -11.6100   10.7960   10.2860 C.3   320  ARG320      0.1563
    219  C        -11.6190   11.6290    9.0100 C.2   320  ARG320      0.2260
    220  O        -10.6160   11.6790    8.3190 O.2   320  ARG320     -0.2867
    221  CB       -11.4190    9.3500    9.8330 C.3   320  ARG320      0.0307
    222  CG       -10.8800    8.4440   10.8960 C.3   320  ARG320      0.0489
    223  CD       -11.6400    7.1490   10.8810 C.3   320  ARG320      0.2205
    224  NE       -11.3830    6.1900    9.7850 N.pl3 320  ARG320     -0.0865
    225  CZ       -10.5760    5.1230    9.8260 C.cat 320  ARG320      0.5346
    226  NH1       -9.7900    4.8630   10.8710 N.pl3 320  ARG320      0.1354
    227  NH2      -10.5780    4.2840    8.7960 N.pl3 320  ARG320      0.1354
@<TRIPOS>BOND
     1   142   143    1
     2   143   146    1
     3   143   144    1
     4   146   147    1
     5   136   135    2
     6   135   134    1
     7   148   147   ar
     8   148   150   ar
     9   144   145    2
    10   147   149   ar
    11   137   134    1
    12   137   138    1
    13   140   139    2
    14   134   133    1
    15   150   151   ar
    16   149   151   ar
    17   149   152   ar
    18   139   138    1
    19   139   141   am
    20   151   153   ar
    21   165   166    1
    22   152   154   ar
    23   168   167    2
    24   167   166    1
    25   166   169    1
    26   153   155   ar
    27   154   155   ar
    28   169   170    1
    29   170   171   ar
    30   170   172   ar
    31   171   173   ar
    32   125   126    2
    33   125   124    1
    34   172   175   ar
    35   172   174   ar
    36   175   177   ar
    37   173   174   ar
    38   113   111   am
    39   174   176   ar
    40   124   123    1
    41   124   127    1
    42   111   112    2
    43   111   110    1
    44   107   110    1
    45   107   108    1
    46   107   106    1
    47   220   219    2
    48   177   178   ar
    49   109   108    2
    50   227   225    1
    51   127   128    1
    52   219   218    1
    53   176   178   ar
    54   106    96   am
    55   224   225    2
    56   224   223    1
    57   225   226    1
    58   221   218    1
    59   221   222    1
    60   117   116    2
    61   159   158    2
    62   116   115    1
    63   128   129   ar
    64   128   130   ar
    65   158   157    1
    66   129   131   ar
    67    89    88    2
    68   218   217    1
    69   193   194    1
    70    96    97    2
    71    96    95    1
    72   179   180    1
    73   223   222    1
    74   114   115    1
    75   196   195    2
    76   100   102   ar
    77   100    99   ar
    78   115   118    1
    79    95    98    1
    80    95    94    1
    81   130   132   ar
    82    88    87    1
    83   131   132   ar
    84    92    91   ar
    85   195   194    1
    86    90    91    1
    87    90    87    1
    88    98    99    1
    89    91    93   ar
    90   157   156    1
    91   157   160    1
    92   211   209   ar
    93   211   212   ar
    94   194   197    1
    95   102   104   ar
    96   180   181    1
    97   180   183    1
    98   181   182    2
    99   183   184    1
   100    87    86    1
   101   214   212   ar
   102   214   216   ar
   103   118   119    1
   104   205   206    2
   105   205   204    1
   106    99   101   ar
   107   209   208   ar
   108   212   210   ar
   109   160   161    1
   110   203   204    1
   111   216   215   ar
   112   197   198    1
   113   104   105    1
   114   104   103   ar
   115   204   207    1
   116   208   210   ar
   117   208   207    1
   118   184   185   ar
   119   184   186   ar
   120   210   213   ar
   121   101   103   ar
   122   119   120    1
   123   185   187   ar
   124   121   120    2
   125   161   162    1
   126   215   213   ar
   127   198   200   ar
   128   198   199   ar
   129   120   122   am
   130   186   189   ar
   131   186   188   ar
   132   200   202   ar
   133   163   162   ar
   134   189   191   ar
   135   162   164   ar
   136   187   188   ar
   137   199   201   ar
   138   188   190   ar
   139   202   201   ar
   140   191   192   ar
   141    18    16   ar
   142    85    83   am
   143   190   192   ar
   144    16    17   ar
   145    16    15    1
   146    83    82    1
   147    83    84    2
   148    82    81    1
   149    15    14    1
   150    78    81    1
   151    78    77    1
   152    78    79    1
   153    75    74    2
   154    14    11    1
   155    77    71   am
   156    79    80    2
   157    44    45   ar
   158    44    42   ar
   159    11    10    1
   160    11    12    1
   161     1     2    1
   162    74    76   am
   163    74    73    1
   164    45    43   ar
   165    42    41   ar
   166     6     5    1
   167     6     7    1
   168    57    59   ar
   169    57    55   ar
   170    71    70    1
   171    71    72    2
   172    13    12    2
   173    43    41   ar
   174    41    40    1
   175     5     2    1
   176    70    73    1
   177    70    69    1
   178     9     7   ar
   179    12    19   am
   180    59    58   ar
   181    54    55   ar
   182    54    52   ar
   183     2     3    1
   184     4     3    2
   185    35    34    1
   186    55    53   ar
   187     7     8   ar
   188    26    24   am
   189    40    37    1
   190    52    51   ar
   191    34    33    1
   192    19    20    1
   193    25    24    2
   194    58    56   ar
   195    24    23    1
   196    53    56   ar
   197    53    51   ar
   198    37    36    1
   199    37    38    1
   200    67    66    2
   201    51    50    1
   202    20    23    1
   203    20    21    1
   204    33    32    1
   205    38    39    2
   206    66    68   am
   207    66    65    1
   208    50    47    1
   209    32    31    1
   210    21    22    2
   211    65    64    1
   212    47    48    1
   213    47    46    1
   214    64    61    1
   215    48    49    2
   216    60    61    1
   217    31    28    1
   218    61    62    1
   219    27    28    1
   220    28    29    1
   221    62    63    2
   222    29    30    2
