@<TRIPOS>MOLECULE
tmp/4purA01.pdb
 90 87 0 0 0
SMALL
GASTEIGER

@<TRIPOS>ATOM
      1  N         90.2760   31.4150    6.1320 N.3    11  TYR11      -0.1241
      2  CA        91.4710   32.0860    5.6570 C.3    11  TYR11       0.1605
      3  C         92.7250   31.5880    6.3710 C.2    11  TYR11       0.2264
      4  O         93.7230   31.2550    5.7220 O.2    11  TYR11      -0.2867
      5  CB        91.3410   33.5850    5.8560 C.3    11  TYR11       0.0534
      6  CG        90.3700   34.2620    4.9270 C.ar   11  TYR11      -0.0201
      7  CD1       90.5740   34.2560    3.5530 C.ar   11  TYR11      -0.0009
      8  CD2       89.2640   34.9350    5.4250 C.ar   11  TYR11      -0.0009
      9  CE1       89.6850   34.8890    2.7010 C.ar   11  TYR11       0.0417
     10  CE2       88.3780   35.5670    4.5840 C.ar   11  TYR11       0.0417
     11  CZ        88.5890   35.5440    3.2290 C.ar   11  TYR11       0.1957
     12  OH        87.7010   36.1810    2.4030 O.3    11  TYR11      -0.2866
     13  N         92.9140   39.2360   11.1440 N.3    51  ILE51      -0.1231
     14  CA        93.2190   37.8020   11.1600 C.3    51  ILE51       0.1678
     15  C         92.7420   37.1130    9.8740 C.2    51  ILE51       0.2434
     16  O         91.5720   37.2150    9.5120 O.2    51  ILE51      -0.2733
     17  CB        92.5420   37.0990   12.3500 C.3    51  ILE51       0.0265
     18  CG1       93.1540   37.5510   13.6770 C.3    51  ILE51       0.0019
     19  CG2       92.6540   35.5820   12.2020 C.3    51  ILE51       0.0020
     20  CD1       94.4420   36.8260   14.0270 C.3    51  ILE51       0.0001
     21  N         93.6360   36.3880    9.1900 N.am   52  PRO52      -0.2729
     22  CA        95.0320   36.1800    9.5670 C.3    52  PRO52       0.1401
     23  C         95.9400   37.3280    9.1630 C.2    52  PRO52       0.2269
     24  O         95.6300   38.0950    8.2480 O.2    52  PRO52      -0.2865
     25  CB        95.4190   34.9250    8.7760 C.3    52  PRO52       0.0296
     26  CG        94.5830   34.9780    7.5750 C.3    52  PRO52       0.0237
     27  CD        93.2680   35.5870    8.0130 C.3    52  PRO52       0.0939
     28  N         98.1470   41.3940    5.7560 N.3    62  TYR62      -0.1227
     29  CA        96.9030   40.8170    6.2550 C.3    62  TYR62       0.1736
     30  C         95.7920   40.4430    5.2650 C.2    62  TYR62       0.2595
     31  O         94.9140   39.6350    5.5980 O.2    62  TYR62      -0.2718
     32  CB        96.3460   41.6330    7.4180 C.3    62  TYR62       0.0548
     33  CG        96.3870   43.1300    7.2420 C.ar   62  TYR62      -0.0200
     34  CD1       95.4040   43.7960    6.5240 C.ar   62  TYR62      -0.0009
     35  CD2       97.3950   43.8840    7.8280 C.ar   62  TYR62      -0.0009
     36  CE1       95.4360   45.1710    6.3840 C.ar   62  TYR62       0.0417
     37  CE2       97.4350   45.2540    7.6950 C.ar   62  TYR62       0.0417
     38  CZ        96.4550   45.8960    6.9730 C.ar   62  TYR62       0.1957
     39  OH        96.5040   47.2680    6.8430 O.3    62  TYR62      -0.2866
     40  N         95.8100   41.0040    4.0640 N.am   63  ARG63      -0.1966
     41  CA        94.8800   40.5260    3.0400 C.3    63  ARG63       0.1729
     42  C         95.3540   39.1770    2.4840 C.2    63  ARG63       0.2616
     43  O         96.5500   38.9740    2.2820 O.2    63  ARG63      -0.2715
     44  CB        94.7420   41.5470    1.9160 C.3    63  ARG63       0.0348
     45  CG        94.0870   42.8420    2.3340 C.3    63  ARG63       0.0492
     46  CD        92.5810   42.7380    2.2430 C.3    63  ARG63       0.2205
     47  NE        91.9780   44.0350    1.9540 N.pl3  63  ARG63      -0.0865
     48  CZ        91.4750   44.8530    2.8720 C.cat  63  ARG63       0.5346
     49  NH1       91.4840   44.5110    4.1550 N.pl3  63  ARG63       0.1354
     50  NH2       90.9530   46.0140    2.5020 N.pl3  63  ARG63       0.1354
     51  N         94.4210   38.2610    2.2360 N.am   64  LEU64      -0.1963
     52  CA        94.7720   36.9220    1.7650 C.3    64  LEU64       0.1728
     53  C         95.5990   36.9070    0.4770 C.2    64  LEU64       0.2616
     54  O         96.5910   36.1890    0.3850 O.2    64  LEU64      -0.2715
     55  CB        93.5270   36.0480    1.6000 C.3    64  LEU64       0.0311
     56  CG        93.8140   34.7080    0.9170 C.3    64  LEU64       0.0022
     57  CD1       94.6270   33.8080    1.8310 C.3    64  LEU64       0.0001
     58  CD2       92.5310   34.0300    0.4530 C.3    64  LEU64       0.0001
     59  N         95.1900   37.6820   -0.5200 N.am   65  SER65      -0.1950
     60  CA        95.9630   37.7810   -1.7540 C.3    65  SER65       0.1924
     61  C         97.3810   38.2570   -1.4350 C.2    65  SER65       0.2314
     62  O         98.3650   37.6990   -1.9380 O.2    65  SER65      -0.2863
     63  CB        95.2730   38.7170   -2.7550 C.3    65  SER65       0.2116
     64  OG        94.7950   39.9100   -2.1390 O.3    65  SER65      -0.2180
     65  N         90.0200   35.7260   -6.8510 N.3    95  GLU95      -0.1245
     66  CA        89.1930   36.8160   -6.3300 C.3    95  GLU95       0.1567
     67  C         87.7210   36.4330   -6.3580 C.2    95  GLU95       0.2260
     68  O         86.9650   36.7560   -5.4440 O.2    95  GLU95      -0.2867
     69  CB        89.4040   38.1070   -7.1050 C.3    95  GLU95       0.0388
     70  CG        88.3840   39.1850   -6.7870 C.3    95  GLU95       0.1160
     71  CD        88.4330   39.6700   -5.3430 C.2    95  GLU95       0.3649
     72  OE1       89.4100   39.3520   -4.6260 O.co2  95  GLU95      -0.2457
     73  OE2       87.4880   40.3800   -4.9220 O.co2  95  GLU95      -0.2457
     74  N         87.0490   34.1960   -3.5280 N.3    98  ASN98      -0.1240
     75  CA        87.1030   35.0680   -2.3620 C.3    98  ASN98       0.1653
     76  C         85.7750   35.7960   -2.1130 C.2    98  ASN98       0.2266
     77  O         85.2630   35.7900   -0.9970 O.2    98  ASN98      -0.2867
     78  CB        88.2520   36.0720   -2.5160 C.3    98  ASN98       0.1155
     79  CG        88.4570   36.9330   -1.2810 C.2    98  ASN98       0.2627
     80  OD1       88.1350   36.5310   -0.1680 O.2    98  ASN98      -0.2716
     81  ND2       89.0080   38.1260   -1.4790 N.am   98  ASN98      -0.0877
     82  N         84.5290   35.0620    1.7910 N.3   103  GLN103     -0.1245
     83  CA        83.8590   36.1870    2.4300 C.3   103  GLN103      0.1566
     84  C         82.4740   35.8370    2.9840 C.2   103  GLN103      0.2260
     85  O         82.1010   36.2620    4.0800 O.2   103  GLN103     -0.2867
     86  CB        83.7610   37.3650    1.4550 C.3   103  GLN103      0.0367
     87  CG        85.0560   38.1770    1.3210 C.3   103  GLN103      0.0905
     88  CD        84.9590   39.3340    0.3300 C.2   103  GLN103      0.2608
     89  OE1       83.8920   39.9180    0.1290 O.2   103  GLN103     -0.2717
     90  NE2       86.0890   39.6710   -0.2930 N.am  103  GLN103     -0.0878
@<TRIPOS>BOND
     1    69    70    1
     2    69    66    1
     3    65    66    1
     4    70    71    1
     5    67    66    1
     6    67    68    2
     7    71    73   ar
     8    71    72   ar
     9    74    75    1
    10    63    64    1
    11    63    60    1
    12    78    75    1
    13    78    79    1
    14    75    76    1
    15    76    77    2
    16    62    61    2
    17    60    61    1
    18    60    59    1
    19    81    79   am
    20    79    80    2
    21    59    53   am
    22    90    88   am
    23    89    88    2
    24    88    87    1
    25    54    53    2
    26    58    56    1
    27    53    52    1
    28    56    55    1
    29    56    57    1
    30    87    86    1
    31    86    83    1
    32    55    52    1
    33    52    51    1
    34    82    83    1
    35    44    45    1
    36    44    41    1
    37    47    46    1
    38    47    48    2
    39    51    42   am
    40    46    45    1
    41    43    42    2
    42    12    11    1
    43    83    84    1
    44    42    41    1
    45    50    48    1
    46     9    11   ar
    47     9     7   ar
    48    48    49    1
    49    84    85    2
    50    41    40    1
    51    11    10   ar
    52     7     6   ar
    53    40    30   am
    54    10     8   ar
    55     6     8   ar
    56     6     5    1
    57    30    31    2
    58    30    29    1
    59     2     5    1
    60     2     1    1
    61     2     3    1
    62     4     3    2
    63    28    29    1
    64    29    32    1
    65    36    34   ar
    66    36    38   ar
    67    34    33   ar
    68    39    38    1
    69    38    37   ar
    70    33    32    1
    71    33    35   ar
    72    26    27    1
    73    26    25    1
    74    37    35   ar
    75    27    21    1
    76    24    23    2
    77    25    22    1
    78    23    22    1
    79    21    22    1
    80    21    15   am
    81    16    15    2
    82    15    14    1
    83    13    14    1
    84    14    17    1
    85    19    17    1
    86    17    18    1
    87    18    20    1
