@<TRIPOS>MOLECULE
tmp/4puuA01.pdb
 141 144 0 0 0
SMALL
GASTEIGER

@<TRIPOS>ATOM
      1  N         14.6450   -9.4270   49.1960 N.3    21  TRP21      -0.1241
      2  CA        15.1320  -10.1220   48.0120 C.3    21  TRP21       0.1605
      3  C         16.2220  -11.1130   48.4200 C.2    21  TRP21       0.2264
      4  O         17.1790  -10.7290   49.0970 O.2    21  TRP21      -0.2867
      5  CB        15.6690   -9.1310   46.9720 C.3    21  TRP21       0.0550
      6  CG        16.3080   -9.7900   45.7690 C.ar   21  TRP21       0.0003
      7  CD1       15.9050  -10.9320   45.1330 C.ar   21  TRP21       0.0946
      8  CD2       17.4870   -9.3460   45.0900 C.ar   21  TRP21       0.0152
      9  NE1       16.7630  -11.2200   44.0890 N.ar   21  TRP21      -0.2442
     10  CE2       17.7440  -10.2610   44.0450 C.ar   21  TRP21       0.0810
     11  CE3       18.3500   -8.2570   45.2610 C.ar   21  TRP21       0.0012
     12  CZ2       18.8320  -10.1160   43.1810 C.ar   21  TRP21       0.0191
     13  CZ3       19.4260   -8.1150   44.4040 C.ar   21  TRP21       0.0001
     14  CH2       19.6550   -9.0340   43.3760 C.ar   21  TRP21       0.0015
     15  N          8.0770  -10.6950   42.5460 N.3    48  VAL48      -0.1231
     16  CA         9.1230  -11.4320   41.8450 C.3    48  VAL48       0.1692
     17  C         10.1070  -12.1210   42.8060 C.2    48  VAL48       0.2592
     18  O         10.8400  -13.0230   42.3980 O.2    48  VAL48      -0.2718
     19  CB         9.8640  -10.5040   40.8330 C.3    48  VAL48       0.0266
     20  CG1       10.8620   -9.6130   41.5490 C.3    48  VAL48       0.0020
     21  CG2       10.5380  -11.3020   39.7220 C.3    48  VAL48       0.0020
     22  N         10.1160  -11.7180   44.0790 N.am   49  TYR49      -0.1976
     23  CA        11.0260  -12.3380   45.0560 C.3    49  TYR49       0.1639
     24  C         10.5710  -13.7420   45.4720 C.2    49  TYR49       0.2290
     25  O         11.3380  -14.4840   46.0910 O.2    49  TYR49      -0.2864
     26  CB        11.2360  -11.4570   46.3000 C.3    49  TYR49       0.0560
     27  CG        11.8030  -10.0750   46.0190 C.ar   49  TYR49      -0.0198
     28  CD1       12.4210   -9.7690   44.8070 C.ar   49  TYR49      -0.0009
     29  CD2       11.7150   -9.0660   46.9730 C.ar   49  TYR49      -0.0009
     30  CE1       12.9070   -8.4980   44.5480 C.ar   49  TYR49       0.0417
     31  CE2       12.2150   -7.7960   46.7250 C.ar   49  TYR49       0.0417
     32  CZ        12.8020   -7.5160   45.5110 C.ar   49  TYR49       0.1957
     33  OH        13.2680   -6.2430   45.2800 O.3    49  TYR49      -0.2866
     34  N          5.4860   -6.4760   39.0200 N.3    80  TRP80      -0.1241
     35  CA         6.5120   -7.0460   38.1570 C.3    80  TRP80       0.1605
     36  C          6.2810   -6.6780   36.6770 C.2    80  TRP80       0.2264
     37  O          5.1680   -6.3170   36.2730 O.2    80  TRP80      -0.2867
     38  CB         6.6880   -8.5690   38.3760 C.3    80  TRP80       0.0550
     39  CG         7.8320   -9.0800   37.5640 C.ar   80  TRP80       0.0003
     40  CD1        7.7670   -9.9310   36.5000 C.ar   80  TRP80       0.0946
     41  CD2        9.2020   -8.6630   37.6610 C.ar   80  TRP80       0.0152
     42  NE1        9.0080  -10.0950   35.9500 N.ar   80  TRP80      -0.2442
     43  CE2        9.9090   -9.3300   36.6440 C.ar   80  TRP80       0.0810
     44  CE3        9.9030   -7.8030   38.5210 C.ar   80  TRP80       0.0012
     45  CZ2       11.2810   -9.1670   36.4590 C.ar   80  TRP80       0.0191
     46  CZ3       11.2650   -7.6460   38.3400 C.ar   80  TRP80       0.0001
     47  CH2       11.9390   -8.3200   37.3090 C.ar   80  TRP80       0.0015
     48  N          8.0660   -1.8580   39.4130 N.3   111  HIS111     -0.1226
     49  CA         9.3570   -2.4260   39.8060 C.3   111  HIS111      0.1752
     50  C         10.5000   -1.9920   38.8840 C.2   111  HIS111      0.2596
     51  O         11.5930   -1.6520   39.3570 O.2   111  HIS111     -0.2718
     52  CB         9.2410   -3.9530   39.8670 C.3   111  HIS111      0.0759
     53  CG        10.2580   -4.6180   40.7380 C.ar  111  HIS111      0.0818
     54  ND1       10.0050   -5.8040   41.3950 N.ar  111  HIS111     -0.2268
     55  CD2       11.5360   -4.2850   41.0350 C.ar  111  HIS111      0.1154
     56  CE1       11.0840   -6.1640   42.0680 C.ar  111  HIS111      0.1986
     57  NE2       12.0270   -5.2600   41.8670 N.ar  111  HIS111     -0.2212
     58  N         10.2430   -2.0200   37.5760 N.am  112  TRP112     -0.1976
     59  CA        11.1920   -1.5760   36.5490 C.3   112  TRP112      0.1640
     60  C         10.3870   -0.8720   35.4620 C.2   112  TRP112      0.2290
     61  O          9.2190   -1.2010   35.2530 O.2   112  TRP112     -0.2864
     62  CB        11.9440   -2.7690   35.9220 C.3   112  TRP112      0.0576
     63  CG        12.9170   -3.4130   36.8600 C.ar  112  TRP112      0.0006
     64  CD1       12.6350   -4.3420   37.8230 C.ar  112  TRP112      0.0946
     65  CD2       14.3220   -3.1490   36.9560 C.ar  112  TRP112      0.0152
     66  NE1       13.7810   -4.6800   38.5050 N.ar  112  TRP112     -0.2442
     67  CE2       14.8300   -3.9600   37.9930 C.ar  112  TRP112      0.0810
     68  CE3       15.2020   -2.3150   36.2550 C.ar  112  TRP112      0.0012
     69  CZ2       16.1770   -3.9510   38.3550 C.ar  112  TRP112      0.0191
     70  CZ3       16.5350   -2.3050   36.6160 C.ar  112  TRP112      0.0001
     71  CH2       17.0090   -3.1170   37.6560 C.ar  112  TRP112      0.0015
     72  N          8.6940  -14.9300   34.4190 N.3   122  PHE122     -0.1227
     73  CA         9.0570  -13.5780   34.8170 C.3   122  PHE122      0.1736
     74  C          9.9260  -12.8580   33.7740 C.2   122  PHE122      0.2595
     75  O          9.9120  -11.6300   33.6980 O.2   122  PHE122     -0.2718
     76  CB         9.7610  -13.5940   36.1730 C.3   122  PHE122      0.0547
     77  CG         8.8560  -13.9460   37.3380 C.ar  122  PHE122     -0.0202
     78  CD1        7.4850  -13.7180   37.2750 C.ar  122  PHE122     -0.0042
     79  CD2        9.3800  -14.4980   38.4930 C.ar  122  PHE122     -0.0042
     80  CE1        6.6570  -14.0290   38.3390 C.ar  122  PHE122     -0.0003
     81  CE2        8.5490  -14.7990   39.5860 C.ar  122  PHE122     -0.0003
     82  CZ         7.1880  -14.5660   39.4920 C.ar  122  PHE122     -0.0000
     83  N         10.6970  -13.6240   33.0030 N.am  123  PHE123     -0.1976
     84  CA        11.5060  -13.0940   31.9040 C.3   123  PHE123      0.1639
     85  C         11.1810  -13.9020   30.6500 C.2   123  PHE123      0.2290
     86  O         11.8980  -14.8430   30.3090 O.2   123  PHE123     -0.2864
     87  CB        13.0060  -13.1870   32.2030 C.3   123  PHE123      0.0560
     88  CG        13.4960  -12.1710   33.2000 C.ar  123  PHE123     -0.0200
     89  CD1       14.1200  -11.0060   32.7820 C.ar  123  PHE123     -0.0042
     90  CD2       13.3470  -12.3920   34.5640 C.ar  123  PHE123     -0.0042
     91  CE1       14.5680  -10.0730   33.7020 C.ar  123  PHE123     -0.0003
     92  CE2       13.7940  -11.4620   35.4890 C.ar  123  PHE123     -0.0003
     93  CZ        14.4080  -10.3050   35.0570 C.ar  123  PHE123     -0.0000
     94  N         13.8630    2.0890   39.7250 N.3   161  ASN161     -0.1240
     95  CA        14.8000    1.9670   38.6120 C.3   161  ASN161      0.1653
     96  C         14.4280    2.8350   37.4170 C.2   161  ASN161      0.2266
     97  O         14.7320    2.4920   36.2750 O.2   161  ASN161     -0.2867
     98  CB        14.9550    0.5150   38.1740 C.3   161  ASN161      0.1155
     99  CG        15.4090   -0.3730   39.2910 C.2   161  ASN161      0.2627
    100  OD1       16.5350   -0.2540   39.7750 O.2   161  ASN161     -0.2716
    101  ND2       14.5370   -1.2740   39.7160 N.am  161  ASN161     -0.0877
    102  N         18.3390    1.0870   47.5990 N.3   210  TYR210     -0.1241
    103  CA        18.4490   -0.3570   47.6850 C.3   210  TYR210      0.1605
    104  C         19.8890   -0.8440   47.5390 C.2   210  TYR210      0.2264
    105  O         20.7720   -0.0880   47.1210 O.2   210  TYR210     -0.2867
    106  CB        17.4760   -1.0530   46.7290 C.3   210  TYR210      0.0534
    107  CG        17.7530   -1.1450   45.2300 C.ar  210  TYR210     -0.0201
    108  CD1       18.8320   -1.8720   44.7290 C.ar  210  TYR210     -0.0009
    109  CD2       16.8340   -0.6350   44.3170 C.ar  210  TYR210     -0.0009
    110  CE1       19.0120   -2.0350   43.3630 C.ar  210  TYR210      0.0417
    111  CE2       17.0040   -0.7970   42.9570 C.ar  210  TYR210      0.0417
    112  CZ        18.0930   -1.5030   42.4800 C.ar  210  TYR210      0.1957
    113  OH        18.2500   -1.7020   41.1240 O.3   210  TYR210     -0.2866
    114  N         24.9390  -13.0890   40.8550 N.3   220  TRP220     -0.1241
    115  CA        25.9180  -12.9670   39.7780 C.3   220  TRP220      0.1605
    116  C         27.2430  -12.3810   40.2550 C.2   220  TRP220      0.2264
    117  O         28.0550  -11.9300   39.4460 O.2   220  TRP220     -0.2867
    118  CB        25.3460  -12.1080   38.6490 C.3   220  TRP220      0.0550
    119  CG        24.6940  -10.8550   39.1510 C.ar  220  TRP220      0.0003
    120  CD1       25.3140   -9.6880   39.4970 C.ar  220  TRP220      0.0946
    121  CD2       23.2940  -10.6470   39.3830 C.ar  220  TRP220      0.0152
    122  NE1       24.3870   -8.7660   39.9230 N.ar  220  TRP220     -0.2442
    123  CE2       23.1390   -9.3290   39.8610 C.ar  220  TRP220      0.0810
    124  CE3       22.1550  -11.4440   39.2240 C.ar  220  TRP220      0.0012
    125  CZ2       21.8910   -8.7930   40.1860 C.ar  220  TRP220      0.0191
    126  CZ3       20.9180  -10.9110   39.5450 C.ar  220  TRP220      0.0001
    127  CH2       20.7960   -9.5990   40.0200 C.ar  220  TRP220      0.0015
    128  N         22.6040   -4.1650   40.3250 N.3   299  CYS299     -0.1235
    129  CA        21.4430   -4.5370   39.5100 C.3   299  CYS299      0.1677
    130  C         21.3840   -3.7530   38.2190 C.2   299  CYS299      0.2270
    131  O         20.7910   -2.6780   38.1760 O.2   299  CYS299     -0.2867
    132  CB        20.1320   -4.2870   40.2610 C.3   299  CYS299      0.0956
    133  SG        19.7640   -5.4480   41.5650 S.3   299  CYS299     -0.0801
    134  N         20.2130   -5.1650   35.2920 N.3   301  LEU301     -0.1245
    135  CA        19.2200   -5.8030   34.4210 C.3   301  LEU301      0.1561
    136  C         19.8340   -6.1590   33.0630 C.2   301  LEU301      0.2260
    137  O         19.2920   -5.8180   32.0080 O.2   301  LEU301     -0.2867
    138  CB        17.9960   -4.8960   34.2450 C.3   301  LEU301      0.0270
    139  CG        16.7030   -5.5950   33.8060 C.3   301  LEU301      0.0019
    140  CD1       16.1430   -6.4480   34.9370 C.3   301  LEU301      0.0001
    141  CD2       15.6710   -4.5950   33.3040 C.3   301  LEU301      0.0001
@<TRIPOS>BOND
     1    86    85    2
     2    85    84    1
     3    84    87    1
     4    84    83    1
     5   137   136    2
     6    87    88    1
     7    89    88   ar
     8    89    91   ar
     9    83    74   am
    10   136   135    1
    11    88    90   ar
    12   141   139    1
    13    75    74    2
    14    91    93   ar
    15    74    73    1
    16   139   138    1
    17   139   140    1
    18   138   135    1
    19    72    73    1
    20   135   134    1
    21    90    92   ar
    22    73    76    1
    23    93    92   ar
    24    61    60    2
    25    60    59    1
    26    62    59    1
    27    62    63    1
    28    42    40   ar
    29    42    43   ar
    30    76    77    1
    31    68    70   ar
    32    68    65   ar
    33    37    36    2
    34    97    96    2
    35    45    43   ar
    36    45    47   ar
    37    40    39   ar
    38    59    58    1
    39    70    71   ar
    40    43    41   ar
    41    36    35    1
    42    63    65   ar
    43    63    64   ar
    44    65    67   ar
    45    78    77   ar
    46    78    80   ar
    47    47    46   ar
    48    77    79   ar
    49    96    95    1
    50    39    41   ar
    51    39    38    1
    52    58    50   am
    53    71    69   ar
    54    41    44   ar
    55    64    66   ar
    56    67    69   ar
    57    67    66   ar
    58    35    38    1
    59    35    34    1
    60    98    95    1
    61    98    99    1
    62   131   130    2
    63   130   129    1
    64    80    82   ar
    65    46    44   ar
    66    79    81   ar
    67    95    94    1
    68   118   119    1
    69   118   115    1
    70    50    51    2
    71    50    49    1
    72   119   121   ar
    73   119   120   ar
    74   124   121   ar
    75   124   126   ar
    76    99   101   am
    77    99   100    2
    78   121   123   ar
    79    48    49    1
    80   117   116    2
    81    82    81   ar
    82   120   122   ar
    83   129   132    1
    84   129   128    1
    85   126   127   ar
    86    21    19    1
    87   115   116    1
    88   115   114    1
    89    49    52    1
    90   123   122   ar
    91   123   125   ar
    92    52    53    1
    93   127   125   ar
    94   132   133    1
    95    53    55   ar
    96    53    54   ar
    97    19    20    1
    98    19    16    1
    99    55    57   ar
   100   113   112    1
   101    54    56   ar
   102    16    15    1
   103    16    17    1
   104    57    56   ar
   105    18    17    2
   106   112   111   ar
   107   112   110   ar
   108    17    22   am
   109   111   109   ar
   110    12    14   ar
   111    12    10   ar
   112   110   108   ar
   113    14    13   ar
   114    10     9   ar
   115    10     8   ar
   116    22    23    1
   117     9     7   ar
   118   109   107   ar
   119    13    11   ar
   120    30    28   ar
   121    30    32   ar
   122   108   107   ar
   123    28    27   ar
   124    23    24    1
   125    23    26    1
   126     8    11   ar
   127     8     6   ar
   128     7     6   ar
   129   107   106    1
   130    33    32    1
   131    24    25    2
   132    32    31   ar
   133     6     5    1
   134    27    26    1
   135    27    29   ar
   136    31    29   ar
   137   106   103    1
   138     5     2    1
   139   105   104    2
   140   104   103    1
   141   102   103    1
   142     2     3    1
   143     2     1    1
   144     3     4    2
