@<TRIPOS>MOLECULE
tmp/4puwA00.pdb
 154 158 0 0 0
SMALL
GASTEIGER

@<TRIPOS>ATOM
      1  N         14.6030   -8.6940   49.2780 N.3    21  TRP21      -0.1241
      2  CA        15.0950   -9.3850   48.0880 C.3    21  TRP21       0.1605
      3  C         16.1780  -10.3810   48.4990 C.2    21  TRP21       0.2264
      4  O         17.1310  -10.0120   49.1890 O.2    21  TRP21      -0.2867
      5  CB        15.6270   -8.3920   47.0530 C.3    21  TRP21       0.0550
      6  CG        16.2710   -9.0410   45.8600 C.ar   21  TRP21       0.0003
      7  CD1       15.8800  -10.1950   45.2130 C.ar   21  TRP21       0.0946
      8  CD2       17.4430   -8.5860   45.1850 C.ar   21  TRP21       0.0152
      9  NE1       16.7490  -10.4770   44.1780 N.ar   21  TRP21      -0.2442
     10  CE2       17.7110   -9.4980   44.1380 C.ar   21  TRP21       0.0810
     11  CE3       18.2920   -7.4880   45.3570 C.ar   21  TRP21       0.0012
     12  CZ2       18.7990   -9.3430   43.2770 C.ar   21  TRP21       0.0191
     13  CZ3       19.3630   -7.3360   44.5090 C.ar   21  TRP21       0.0001
     14  CH2       19.6100   -8.2550   43.4780 C.ar   21  TRP21       0.0015
     15  N          8.0240  -10.0070   42.6340 N.3    48  VAL48      -0.1231
     16  CA         9.0780  -10.7220   41.9280 C.3    48  VAL48       0.1692
     17  C         10.0620  -11.4040   42.8910 C.2    48  VAL48       0.2592
     18  O         10.8020  -12.3030   42.4850 O.2    48  VAL48      -0.2718
     19  CB         9.8070   -9.7900   40.9250 C.3    48  VAL48       0.0266
     20  CG1       10.8010   -8.8910   41.6350 C.3    48  VAL48       0.0020
     21  CG2       10.4830  -10.5810   39.8040 C.3    48  VAL48       0.0020
     22  N         10.0730  -10.9920   44.1620 N.am   49  TYR49      -0.1976
     23  CA        10.9760  -11.6180   45.1380 C.3    49  TYR49       0.1639
     24  C         10.5100  -13.0130   45.5560 C.2    49  TYR49       0.2290
     25  O         11.2810  -13.7620   46.1550 O.2    49  TYR49      -0.2864
     26  CB        11.1760  -10.7420   46.3800 C.3    49  TYR49       0.0560
     27  CG        11.7280   -9.3580   46.1010 C.ar   49  TYR49      -0.0198
     28  CD1       12.3380   -9.0460   44.8890 C.ar   49  TYR49      -0.0009
     29  CD2       11.6430   -8.3570   47.0640 C.ar   49  TYR49      -0.0009
     30  CE1       12.8160   -7.7660   44.6380 C.ar   49  TYR49       0.0417
     31  CE2       12.1310   -7.0850   46.8280 C.ar   49  TYR49       0.0417
     32  CZ        12.7090   -6.7880   45.6160 C.ar   49  TYR49       0.1957
     33  OH        13.1720   -5.5070   45.3890 O.3    49  TYR49      -0.2866
     34  N          5.4080   -5.7660   39.1250 N.3    80  TRP80      -0.1241
     35  CA         6.4300   -6.3240   38.2520 C.3    80  TRP80       0.1605
     36  C          6.1900   -5.9510   36.7700 C.2    80  TRP80       0.2264
     37  O          5.0810   -5.5870   36.3540 O.2    80  TRP80      -0.2867
     38  CB         6.6270   -7.8480   38.4770 C.3    80  TRP80       0.0550
     39  CG         7.7680   -8.3430   37.6600 C.ar   80  TRP80       0.0003
     40  CD1        7.7040   -9.1850   36.5800 C.ar   80  TRP80       0.0946
     41  CD2        9.1330   -7.9060   37.7490 C.ar   80  TRP80       0.0152
     42  NE1        8.9490   -9.3210   36.0150 N.ar   80  TRP80      -0.2442
     43  CE2        9.8420   -8.5430   36.7100 C.ar   80  TRP80       0.0810
     44  CE3        9.8270   -7.0490   38.6180 C.ar   80  TRP80       0.0012
     45  CZ2       11.2080   -8.3550   36.5200 C.ar   80  TRP80       0.0191
     46  CZ3       11.1810   -6.8600   38.4230 C.ar   80  TRP80       0.0001
     47  CH2       11.8600   -7.5120   37.3860 C.ar   80  TRP80       0.0015
     48  N          7.9830   -1.1270   39.5190 N.3   111  HIS111     -0.1226
     49  CA         9.2800   -1.6950   39.9120 C.3   111  HIS111      0.1752
     50  C         10.4080   -1.2430   38.9810 C.2   111  HIS111      0.2596
     51  O         11.4950   -0.8880   39.4480 O.2   111  HIS111     -0.2718
     52  CB         9.1750   -3.2240   39.9600 C.3   111  HIS111      0.0759
     53  CG        10.2080   -3.8890   40.8090 C.ar  111  HIS111      0.0818
     54  ND1        9.9650   -5.0760   41.4710 N.ar  111  HIS111     -0.2268
     55  CD2       11.4880   -3.5490   41.0870 C.ar  111  HIS111      0.1154
     56  CE1       11.0560   -5.4290   42.1300 C.ar  111  HIS111      0.1986
     57  NE2       11.9940   -4.5220   41.9130 N.ar  111  HIS111     -0.2212
     58  N         10.1450   -1.2830   37.6770 N.am  112  TRP112     -0.1976
     59  CA        11.0660   -0.7920   36.6560 C.3   112  TRP112      0.1640
     60  C         10.2370   -0.0800   35.5950 C.2   112  TRP112      0.2290
     61  O          9.0800   -0.4290   35.3810 O.2   112  TRP112     -0.2864
     62  CB        11.8380   -1.9570   35.9990 C.3   112  TRP112      0.0576
     63  CG        12.8410   -2.5990   36.9200 C.ar  112  TRP112      0.0006
     64  CD1       12.5970   -3.5620   37.8590 C.ar  112  TRP112      0.0946
     65  CD2       14.2370   -2.2870   37.0210 C.ar  112  TRP112      0.0152
     66  NE1       13.7560   -3.8750   38.5320 N.ar  112  TRP112     -0.2442
     67  CE2       14.7780   -3.1110   38.0300 C.ar  112  TRP112      0.0810
     68  CE3       15.0860   -1.4030   36.3440 C.ar  112  TRP112      0.0012
     69  CZ2       16.1240   -3.0550   38.3990 C.ar  112  TRP112      0.0191
     70  CZ3       16.4230   -1.3590   36.7050 C.ar  112  TRP112      0.0001
     71  CH2       16.9290   -2.1850   37.7200 C.ar  112  TRP112      0.0015
     72  N          8.7030  -14.1640   34.4340 N.3   122  PHE122     -0.1227
     73  CA         9.0210  -12.8080   34.8490 C.3   122  PHE122      0.1736
     74  C          9.9190  -12.0760   33.8410 C.2   122  PHE122      0.2595
     75  O          9.8910  -10.8450   33.7800 O.2   122  PHE122     -0.2718
     76  CB         9.6790  -12.8200   36.2300 C.3   122  PHE122      0.0547
     77  CG         8.7430  -13.1780   37.3750 C.ar  122  PHE122     -0.0202
     78  CD1        7.3750  -12.9330   37.3030 C.ar  122  PHE122     -0.0042
     79  CD2        9.2500  -13.7300   38.5430 C.ar  122  PHE122     -0.0042
     80  CE1        6.5330  -13.2480   38.3730 C.ar  122  PHE122     -0.0003
     81  CE2        8.4080  -14.0470   39.6150 C.ar  122  PHE122     -0.0003
     82  CZ         7.0530  -13.8000   39.5210 C.ar  122  PHE122     -0.0000
     83  N         10.7290  -12.8340   33.0950 N.am  123  PHE123     -0.1976
     84  CA        11.5680  -12.2990   32.0260 C.3   123  PHE123      0.1639
     85  C         11.3100  -13.0960   30.7450 C.2   123  PHE123      0.2290
     86  O         12.0450  -14.0310   30.4200 O.2   123  PHE123     -0.2864
     87  CB        13.0570  -12.3760   32.3840 C.3   123  PHE123      0.0560
     88  CG        13.5070  -11.3370   33.3830 C.ar  123  PHE123     -0.0200
     89  CD1       14.0880  -10.1540   32.9610 C.ar  123  PHE123     -0.0042
     90  CD2       13.3510  -11.5470   34.7450 C.ar  123  PHE123     -0.0042
     91  CE1       14.5130   -9.2050   33.8700 C.ar  123  PHE123     -0.0003
     92  CE2       13.7730  -10.6020   35.6630 C.ar  123  PHE123     -0.0003
     93  CZ        14.3560   -9.4270   35.2210 C.ar  123  PHE123     -0.0000
     94  N         13.7200    2.9110   39.8500 N.3   161  ASN161     -0.1240
     95  CA        14.6520    2.8000   38.7300 C.3   161  ASN161      0.1653
     96  C         14.2680    3.6880   37.5560 C.2   161  ASN161      0.2266
     97  O         14.5690    3.3640   36.4100 O.2   161  ASN161     -0.2867
     98  CB        14.8180    1.3500   38.2660 C.3   161  ASN161      0.1155
     99  CG        15.2880    0.4460   39.3750 C.2   161  ASN161      0.2627
    100  OD1       16.4090    0.5900   39.8700 O.2   161  ASN161     -0.2716
    101  ND2       14.4250   -0.4670   39.8040 N.am  161  ASN161     -0.0877
    102  N         18.2460    1.8280   47.6720 N.3   210  TYR210     -0.1241
    103  CA        18.3650    0.3820   47.7510 C.3   210  TYR210      0.1605
    104  C         19.8080   -0.0930   47.5830 C.2   210  TYR210      0.2264
    105  O         20.6750    0.6720   47.1560 O.2   210  TYR210     -0.2867
    106  CB        17.3820   -0.3100   46.8090 C.3   210  TYR210      0.0534
    107  CG        17.6620   -0.3920   45.3180 C.ar  210  TYR210     -0.0201
    108  CD1       18.7320   -1.1280   44.8080 C.ar  210  TYR210     -0.0009
    109  CD2       16.7560    0.1510   44.4100 C.ar  210  TYR210     -0.0009
    110  CE1       18.9030   -1.2830   43.4400 C.ar  210  TYR210      0.0417
    111  CE2       16.9180   -0.0050   43.0430 C.ar  210  TYR210      0.0417
    112  CZ        17.9890   -0.7290   42.5650 C.ar  210  TYR210      0.1957
    113  OH        18.1470   -0.9290   41.2140 O.3   210  TYR210     -0.2866
    114  N         24.9370  -12.3120   40.9390 N.3   220  TRP220     -0.1241
    115  CA        25.9220  -12.1600   39.8740 C.3   220  TRP220      0.1605
    116  C         27.2320  -11.5380   40.3560 C.2   220  TRP220      0.2264
    117  O         28.0250  -11.0610   39.5480 O.2   220  TRP220     -0.2867
    118  CB        25.3320  -11.3170   38.7380 C.3   220  TRP220      0.0550
    119  CG        24.6720  -10.0570   39.2280 C.ar  220  TRP220      0.0003
    120  CD1       25.2800   -8.8710   39.5300 C.ar  220  TRP220      0.0946
    121  CD2       23.2720   -9.8650   39.4760 C.ar  220  TRP220      0.0152
    122  NE1       24.3420   -7.9550   39.9550 N.ar  220  TRP220     -0.2442
    123  CE2       23.1030   -8.5400   39.9290 C.ar  220  TRP220      0.0810
    124  CE3       22.1440  -10.6860   39.3570 C.ar  220  TRP220      0.0012
    125  CZ2       21.8520   -8.0190   40.2600 C.ar  220  TRP220      0.0191
    126  CZ3       20.9030  -10.1660   39.6800 C.ar  220  TRP220      0.0001
    127  CH2       20.7670   -8.8470   40.1300 C.ar  220  TRP220      0.0015
    128  N         22.4280   -3.3410   40.2530 N.3   299  CYS299     -0.1221
    129  CA        21.2830   -3.7050   39.4220 C.3   299  CYS299      0.1808
    130  C         21.2800   -2.9090   38.1230 C.2   299  CYS299      0.2601
    131  O         20.8680   -1.7450   38.0960 O.2   299  CYS299     -0.2717
    132  CB        19.9630   -3.4800   40.1630 C.3   299  CYS299      0.0970
    133  SG        19.6650   -4.6280   41.5200 S.3   299  CYS299     -0.0800
    134  N         21.7220   -3.5480   37.0440 N.am  300  ALA300     -0.1965
    135  CA        21.8150   -2.8780   35.7540 C.3   300  ALA300      0.1728
    136  C         20.8110   -3.3780   34.7140 C.2   300  ALA300      0.2616
    137  O         20.8010   -2.8710   33.6000 O.2   300  ALA300     -0.2715
    138  CB        23.2440   -2.9570   35.2100 C.3   300  ALA300      0.0334
    139  N         19.9670   -4.3440   35.0800 N.am  301  LEU301     -0.1963
    140  CA        18.9130   -4.8550   34.1860 C.3   301  LEU301      0.1728
    141  C         19.4660   -5.1860   32.7910 C.2   301  LEU301      0.2616
    142  O         18.9650   -4.7180   31.7640 O.2   301  LEU301     -0.2715
    143  CB        17.7490   -3.8570   34.0970 C.3   301  LEU301      0.0311
    144  CG        16.4190   -4.3720   33.5360 C.3   301  LEU301      0.0022
    145  CD1       15.7310   -5.2810   34.5290 C.3   301  LEU301      0.0001
    146  CD2       15.5110   -3.2200   33.1350 C.3   301  LEU301      0.0001
    147  N         20.5010   -6.0140   32.7710 N.am  302  LEU302     -0.1977
    148  CA        21.2960   -6.2050   31.5610 C.3   302  LEU302      0.1596
    149  C         20.5850   -6.9040   30.3990 C.2   302  LEU302      0.2287
    150  O         21.0250   -6.7950   29.2630 O.2   302  LEU302     -0.2864
    151  CB        22.6080   -6.9160   31.8940 C.3   302  LEU302      0.0297
    152  CG        23.5660   -6.0920   32.7580 C.3   302  LEU302      0.0022
    153  CD1       24.8170   -6.8800   33.0840 C.3   302  LEU302      0.0001
    154  CD2       23.9220   -4.7820   32.0730 C.3   302  LEU302      0.0001
@<TRIPOS>BOND
     1   150   149    2
     2   149   148    1
     3    86    85    2
     4    85    84    1
     5   148   151    1
     6   148   147    1
     7   142   141    2
     8   151   152    1
     9    84    87    1
    10    84    83    1
    11   154   152    1
    12    87    88    1
    13   152   153    1
    14   147   141   am
    15   141   140    1
    16    89    88   ar
    17    89    91   ar
    18    83    74   am
    19   146   144    1
    20    88    90   ar
    21   144   143    1
    22   144   145    1
    23   137   136    2
    24    75    74    2
    25    74    73    1
    26    91    93   ar
    27   143   140    1
    28   140   139    1
    29    72    73    1
    30   136   139   am
    31   136   135    1
    32    90    92   ar
    33    73    76    1
    34   138   135    1
    35    93    92   ar
    36    61    60    2
    37    60    59    1
    38   135   134    1
    39    62    59    1
    40    62    63    1
    41    42    40   ar
    42    42    43   ar
    43    76    77    1
    44    68    70   ar
    45    68    65   ar
    46    37    36    2
    47    97    96    2
    48    45    43   ar
    49    45    47   ar
    50    40    39   ar
    51    59    58    1
    52    70    71   ar
    53    43    41   ar
    54    36    35    1
    55    63    65   ar
    56    63    64   ar
    57    65    67   ar
    58   134   130   am
    59    78    77   ar
    60    78    80   ar
    61    77    79   ar
    62    47    46   ar
    63    96    95    1
    64    39    41   ar
    65    39    38    1
    66    58    50   am
    67    71    69   ar
    68    41    44   ar
    69    64    66   ar
    70    67    69   ar
    71    67    66   ar
    72   131   130    2
    73   130   129    1
    74    35    38    1
    75    35    34    1
    76    98    95    1
    77    98    99    1
    78    80    82   ar
    79    46    44   ar
    80    79    81   ar
    81    95    94    1
    82   118   119    1
    83   118   115    1
    84    50    51    2
    85    50    49    1
    86   119   121   ar
    87   119   120   ar
    88   124   121   ar
    89   124   126   ar
    90    99   101   am
    91    99   100    2
    92   129   132    1
    93   129   128    1
    94   121   123   ar
    95    48    49    1
    96    82    81   ar
    97   120   122   ar
    98   117   116    2
    99   126   127   ar
   100    21    19    1
   101   115   116    1
   102   115   114    1
   103    49    52    1
   104   123   122   ar
   105   123   125   ar
   106    52    53    1
   107   127   125   ar
   108   132   133    1
   109    53    55   ar
   110    53    54   ar
   111    19    20    1
   112    19    16    1
   113    55    57   ar
   114   113   112    1
   115    54    56   ar
   116    57    56   ar
   117    16    15    1
   118    16    17    1
   119    18    17    2
   120   112   111   ar
   121   112   110   ar
   122    17    22   am
   123   111   109   ar
   124    12    14   ar
   125    12    10   ar
   126   110   108   ar
   127    14    13   ar
   128    10     9   ar
   129    10     8   ar
   130    22    23    1
   131     9     7   ar
   132   109   107   ar
   133    13    11   ar
   134    30    28   ar
   135    30    32   ar
   136   108   107   ar
   137    28    27   ar
   138    23    24    1
   139    23    26    1
   140     8    11   ar
   141     8     6   ar
   142     7     6   ar
   143   107   106    1
   144    33    32    1
   145    24    25    2
   146    32    31   ar
   147     6     5    1
   148    27    26    1
   149    27    29   ar
   150   106   103    1
   151    31    29   ar
   152     5     2    1
   153   105   104    2
   154   104   103    1
   155   102   103    1
   156     2     3    1
   157     2     1    1
   158     3     4    2
