@<TRIPOS>MOLECULE
tmp/4puzA00.pdb
 185 175 0 0 0
SMALL
GASTEIGER

@<TRIPOS>ATOM
      1  N        -27.7440   26.4990   -2.6330 N.3    13  LYS13      -0.1231
      2  CA       -28.5550   25.7710   -1.6610 C.3    13  LYS13       0.1693
      3  C        -27.7980   25.5330   -0.3620 C.2    13  LYS13       0.2592
      4  O        -27.0290   24.5790   -0.2490 O.2    13  LYS13      -0.2718
      5  CB       -29.0150   24.4210   -2.2260 C.3    13  LYS13       0.0285
      6  CG       -29.9420   23.6360   -1.2830 C.3    13  LYS13       0.0035
      7  CD       -29.7330   22.1320   -1.3960 C.3    13  LYS13       0.0206
      8  CE       -30.3910   21.3580   -0.2440 C.3    13  LYS13       0.1093
      9  NZ       -31.8600   21.1160   -0.4120 N.3    13  LYS13      -0.1314
     10  N        -28.0240   26.3990    0.6190 N.am   14  GLU14      -0.1966
     11  CA       -27.3870   26.2080    1.9090 C.3    14  GLU14       0.1733
     12  C        -27.8120   24.8470    2.4500 C.2    14  GLU14       0.2616
     13  O        -28.9730   24.4440    2.3360 O.2    14  GLU14      -0.2715
     14  CB       -27.7270   27.3420    2.8850 C.3    14  GLU14       0.0429
     15  CG       -28.9860   27.1090    3.7000 C.3    14  GLU14       0.1163
     16  CD       -28.9350   27.7890    5.0530 C.2    14  GLU14       0.3649
     17  OE1      -28.2790   28.8450    5.1620 O.co2  14  GLU14      -0.2457
     18  OE2      -29.5460   27.2570    6.0110 O.co2  14  GLU14      -0.2457
     19  N        -26.8590   24.1300    3.0240 N.am   15  LEU15      -0.1963
     20  CA       -27.0900   22.7640    3.4610 C.3    15  LEU15       0.1728
     21  C        -27.6710   22.7470    4.8630 C.2    15  LEU15       0.2617
     22  O        -28.3440   21.8040    5.2670 O.2    15  LEU15      -0.2715
     23  CB       -25.7690   22.0040    3.4490 C.3    15  LEU15       0.0311
     24  CG       -25.7470   20.6610    2.7270 C.3    15  LEU15       0.0022
     25  CD1      -26.4450   20.7730    1.3910 C.3    15  LEU15       0.0001
     26  CD2      -24.3050   20.1830    2.5680 C.3    15  LEU15       0.0001
     27  N        -27.3990   23.8020    5.6110 N.am   16  GLY16      -0.1940
     28  CA       -27.8280   23.8460    6.9850 C.3    16  GLY16       0.2014
     29  C        -27.2410   25.0550    7.6560 C.2    16  GLY16       0.2640
     30  O        -26.5990   25.8790    7.0110 O.2    16  GLY16      -0.2714
     31  N        -27.4480   25.1580    8.9620 N.am   17  SER17      -0.1935
     32  CA       -27.0090   26.3400    9.6760 C.3    17  SER17       0.2055
     33  C        -26.6860   26.0410   11.1290 C.2    17  SER17       0.2643
     34  O        -27.1950   25.0920   11.7090 O.2    17  SER17      -0.2714
     35  CB       -28.0720   27.4340    9.5850 C.3    17  SER17       0.2130
     36  OG       -27.4600   28.7080    9.5110 O.3    17  SER17      -0.2179
     37  N        -25.8220   26.8680   11.7000 N.am   18  GLY18      -0.1954
     38  CA       -25.3760   26.7210   13.0680 C.3    18  GLY18       0.1869
     39  C        -24.8080   28.0590   13.4900 C.2    18  GLY18       0.2309
     40  O        -24.9080   29.0290   12.7490 O.2    18  GLY18      -0.2863
     41  N        -21.6980   29.1560   14.0100 N.3    20  PHE20      -0.1241
     42  CA       -20.5420   29.5840   13.2420 C.3    20  PHE20       0.1605
     43  C        -20.9370   30.3120   11.9540 C.2    20  PHE20       0.2264
     44  O        -20.1970   31.1660   11.4670 O.2    20  PHE20      -0.2867
     45  CB       -19.7310   28.3510   12.9010 C.3    20  PHE20       0.0534
     46  CG       -20.5310   27.3120   12.1800 C.ar   20  PHE20      -0.0203
     47  CD1      -20.7320   27.4160   10.8140 C.ar   20  PHE20      -0.0042
     48  CD2      -21.1080   26.2530   12.8590 C.ar   20  PHE20      -0.0042
     49  CE1      -21.4850   26.4880   10.1390 C.ar   20  PHE20      -0.0003
     50  CE2      -21.8560   25.3130   12.1900 C.ar   20  PHE20      -0.0003
     51  CZ       -22.0470   25.4310   10.8260 C.ar   20  PHE20      -0.0000
     52  N        -23.4250   26.0770    6.1220 N.3    23  VAL23      -0.1245
     53  CA       -22.7640   24.9720    5.4840 C.3    23  VAL23       0.1561
     54  C        -23.3500   24.8650    4.0950 C.2    23  VAL23       0.2260
     55  O        -24.5610   24.8220    3.9370 O.2    23  VAL23      -0.2867
     56  CB       -23.0580   23.6860    6.2610 C.3    23  VAL23       0.0252
     57  CG1      -22.4230   22.4880    5.5860 C.3    23  VAL23       0.0019
     58  CG2      -22.5790   23.8310    7.7140 C.3    23  VAL23       0.0019
     59  N        -18.8980   19.3610    1.4820 N.3    38  ALA38      -0.1245
     60  CA       -19.7740   20.1770    2.2960 C.3    38  ALA38       0.1562
     61  C        -18.8420   21.1140    3.0110 C.2    38  ALA38       0.2260
     62  O        -17.7880   20.6970    3.5150 O.2    38  ALA38      -0.2867
     63  CB       -20.5110   19.3340    3.2930 C.3    38  ALA38       0.0290
     64  N        -18.2730   24.2630    5.7360 N.3    40  LYS40      -0.1245
     65  CA       -18.6500   25.1720    6.8170 C.3    40  LYS40       0.1561
     66  C        -18.1050   26.5640    6.5400 C.2    40  LYS40       0.2260
     67  O        -16.8740   26.7640    6.4950 O.2    40  LYS40      -0.2867
     68  CB       -18.0930   24.7030    8.1560 C.3    40  LYS40       0.0271
     69  CG       -18.8990   23.5560    8.7610 C.3    40  LYS40       0.0035
     70  CD       -18.5290   23.3340   10.2360 C.3    40  LYS40       0.0206
     71  CE       -19.1790   22.0590   10.7530 C.3    40  LYS40       0.1093
     72  NZ       -19.1130   21.9510   12.2620 N.3    40  LYS40      -0.1314
     73  N        -15.9810   11.7250    9.4830 N.3    66  VAL66      -0.1245
     74  CA       -15.9680   12.5600    8.2810 C.3    66  VAL66       0.1561
     75  C        -14.5480   13.0410    8.0010 C.2    66  VAL66       0.2260
     76  O        -13.8560   13.4810    8.9270 O.2    66  VAL66      -0.2867
     77  CB       -16.8770   13.8040    8.4370 C.3    66  VAL66       0.0252
     78  CG1      -16.6020   14.8050    7.3250 C.3    66  VAL66       0.0019
     79  CG2      -18.3350   13.4050    8.4430 C.3    66  VAL66       0.0019
     80  N        -15.1280   19.6940    3.9060 N.3    81  MET81      -0.1230
     81  CA       -15.1540   18.2760    4.2390 C.3    81  MET81       0.1702
     82  C        -15.7390   17.4570    3.1070 C.2    81  MET81       0.2592
     83  O        -16.4910   17.9550    2.2660 O.2    81  MET81      -0.2718
     84  CB       -15.9790   18.0380    5.4910 C.3    81  MET81       0.0401
     85  CG       -15.4300   18.6980    6.7400 C.3    81  MET81       0.0596
     86  SD       -16.7040   18.7550    8.0040 S.3    81  MET81      -0.1393
     87  CE       -17.7750   20.0490    7.4670 C.3    81  MET81       0.0692
     88  N        -15.3740   16.1910    3.0740 N.am   82  GLU82      -0.1966
     89  CA       -15.9460   15.2990    2.1010 C.3    82  GLU82       0.1733
     90  C        -17.4330   15.1210    2.3860 C.2    82  GLU82       0.2616
     91  O        -17.8480   14.9900    3.5230 O.2    82  GLU82      -0.2715
     92  CB       -15.2010   13.9900    2.1300 C.3    82  GLU82       0.0429
     93  CG       -16.0290   12.8280    1.7510 C.3    82  GLU82       0.1163
     94  CD       -15.3020   11.5480    2.0120 C.2    82  GLU82       0.3649
     95  OE1      -14.0760   11.6120    2.2740 O.co2  82  GLU82      -0.2457
     96  OE2      -15.9660   10.4900    1.9740 O.co2  82  GLU82      -0.2457
     97  N        -18.2390   15.1250    1.3350 N.am   83  MET83      -0.1963
     98  CA       -19.6860   15.2130    1.4540 C.3    83  MET83       0.1736
     99  C        -20.3250   13.8820    1.8490 C.2    83  MET83       0.2616
    100  O        -20.0500   12.8450    1.2460 O.2    83  MET83      -0.2715
    101  CB       -20.2760   15.7460    0.1350 C.3    83  MET83       0.0427
    102  CG       -21.7820   15.5670   -0.0350 C.3    83  MET83       0.0599
    103  SD       -22.8250   16.6550    0.9740 S.3    83  MET83      -0.1393
    104  CE       -22.7140   18.2020    0.0530 C.3    83  MET83       0.0692
    105  N        -21.1390   13.9280    2.9020 N.am   84  ALA84      -0.1963
    106  CA       -22.0230   12.8260    3.2690 C.3    84  ALA84       0.1728
    107  C        -23.3990   13.2830    2.8360 C.2    84  ALA84       0.2616
    108  O        -23.9860   14.1740    3.4510 O.2    84  ALA84      -0.2715
    109  CB       -21.9950   12.5890    4.7450 C.3    84  ALA84       0.0334
    110  N        -23.8990   12.6730    1.7690 N.am   85  GLU85      -0.1963
    111  CA       -24.9680   13.2650    0.9800 C.3    85  GLU85       0.1733
    112  C        -26.3660   13.1240    1.5640 C.2    85  GLU85       0.2616
    113  O        -27.1540   14.0660    1.5030 O.2    85  GLU85      -0.2715
    114  CB       -24.8990   12.7400   -0.4490 C.3    85  GLU85       0.0429
    115  CG       -23.5440   13.0030   -1.0910 C.3    85  GLU85       0.1163
    116  CD       -23.6540   13.5370   -2.4850 C.2    85  GLU85       0.3649
    117  OE1      -22.6950   13.3030   -3.2510 O.co2  85  GLU85      -0.2457
    118  OE2      -24.6820   14.1920   -2.8020 O.co2  85  GLU85      -0.2457
    119  N        -26.6580   11.9650    2.1430 N.am   86  LEU86      -0.1963
    120  CA       -27.9310   11.7440    2.8260 C.3    86  LEU86       0.1728
    121  C        -28.1330   12.6220    4.0720 C.2    86  LEU86       0.2617
    122  O        -29.2590   12.7610    4.5530 O.2    86  LEU86      -0.2715
    123  CB       -28.0630   10.2720    3.2150 C.3    86  LEU86       0.0311
    124  CG       -28.1040    9.3430    2.0080 C.3    86  LEU86       0.0022
    125  CD1      -28.1610    7.8860    2.4380 C.3    86  LEU86       0.0001
    126  CD2      -29.2990    9.7210    1.1440 C.3    86  LEU86       0.0001
    127  N        -27.0510   13.1750    4.6190 N.am   87  GLY87      -0.1941
    128  CA       -27.1520   14.1050    5.7380 C.3    87  GLY87       0.1998
    129  C        -27.3480   13.5100    7.1260 C.2    87  GLY87       0.2480
    130  O        -27.1900   12.3040    7.3310 O.2    87  GLY87      -0.2729
    131  N        -27.7220   14.3650    8.0900 N.am   88  PRO88      -0.2726
    132  CA       -27.8820   13.9950    9.5000 C.3    88  PRO88       0.1402
    133  C        -28.8560   12.8280    9.7520 C.2    88  PRO88       0.2269
    134  O        -29.9400   12.7560    9.1730 O.2    88  PRO88      -0.2865
    135  CB       -28.3820   15.2920   10.1590 C.3    88  PRO88       0.0296
    136  CG       -28.8450   16.1700    9.0100 C.3    88  PRO88       0.0237
    137  CD       -27.9430   15.8050    7.8740 C.3    88  PRO88       0.0939
    138  N        -32.7920   13.7260   10.9940 N.3    91  LYS91      -0.1245
    139  CA       -33.6440   14.2500    9.9200 C.3    91  LYS91       0.1561
    140  C        -33.9670   13.1550    8.9120 C.2    91  LYS91       0.2260
    141  O        -35.0600   13.1120    8.3420 O.2    91  LYS91      -0.2867
    142  CB       -32.9610   15.4270    9.2000 C.3    91  LYS91       0.0271
    143  CG       -32.6070   16.6160   10.0970 C.3    91  LYS91       0.0035
    144  CD       -33.8640   17.3760   10.5440 C.3    91  LYS91       0.0206
    145  CE       -33.5610   18.3760   11.6810 C.3    91  LYS91       0.1093
    146  NZ       -32.6450   19.4970   11.2560 N.3    91  LYS91      -0.1314
    147  N        -37.9630   10.9520    8.2110 N.3    95  GLN95      -0.1245
    148  CA       -38.7350   10.8180    6.9810 C.3    95  GLN95       0.1566
    149  C        -38.3830    9.5530    6.2110 C.2    95  GLN95       0.2260
    150  O        -38.5640    9.4620    5.0010 O.2    95  GLN95      -0.2867
    151  CB       -38.5980   12.0570    6.0970 C.3    95  GLN95       0.0367
    152  CG       -37.1930   12.6010    5.9490 C.3    95  GLN95       0.0905
    153  CD       -37.1910   14.1140    5.9820 C.2    95  GLN95       0.2608
    154  OE1      -38.2110   14.7270    6.2980 O.2    95  GLN95      -0.2717
    155  NE2      -36.0500   14.7270    5.6590 N.am   95  GLN95      -0.0878
    156  N        -25.3850   14.6460   14.5640 N.3   132  ASN132     -0.1240
    157  CA       -23.9720   14.7070   14.2050 C.3   132  ASN132      0.1653
    158  C        -23.4610   13.4010   13.6500 C.2   132  ASN132      0.2266
    159  O        -22.2500   13.1780   13.5140 O.2   132  ASN132     -0.2867
    160  CB       -23.1350   15.1600   15.3940 C.3   132  ASN132      0.1155
    161  CG       -23.3010   16.6340   15.6610 C.2   132  ASN132      0.2627
    162  OD1      -23.7240   17.3800   14.7680 O.2   132  ASN132     -0.2716
    163  ND2      -23.0110   17.0660   16.8820 N.am  132  ASN132     -0.0877
    164  N        -23.5890   11.6420   10.2480 N.3   134  LEU134     -0.1245
    165  CA       -23.9520   11.8890    8.8540 C.3   134  LEU134      0.1561
    166  C        -23.9810   10.6180    7.9940 C.2   134  LEU134      0.2260
    167  O        -23.1370    9.7440    8.1460 O.2   134  LEU134     -0.2867
    168  CB       -23.0380   12.9490    8.2340 C.3   134  LEU134      0.0270
    169  CG       -22.9980   14.2230    9.0760 C.3   134  LEU134      0.0019
    170  CD1      -22.3870   15.3720    8.2930 C.3   134  LEU134      0.0001
    171  CD2      -24.4250   14.5690    9.5170 C.3   134  LEU134      0.0001
    172  N        -19.5360   13.5370   12.7690 N.3   144  SER144     -0.1202
    173  CA       -19.0560   14.8450   12.3380 C.3   144  SER144      0.2020
    174  C        -19.1210   15.8770   13.4570 C.2   144  SER144      0.2618
    175  O        -19.4870   15.5630   14.5810 O.2   144  SER144     -0.2717
    176  CB       -19.8910   15.3400   11.1490 C.3   144  SER144      0.2103
    177  OG       -21.1950   15.6680   11.6180 O.3   144  SER144     -0.2182
    178  N        -18.7640   17.1110   13.1320 N.am  145  ASP145     -0.1973
    179  CA       -18.8920   18.2440   14.0380 C.3   145  ASP145      0.1709
    180  C        -17.9970   18.0720   15.2680 C.2   145  ASP145      0.2293
    181  O        -18.4680   17.7390   16.3660 O.2   145  ASP145     -0.2864
    182  CB       -20.3670   18.5020   14.4200 C.3   145  ASP145      0.1436
    183  CG       -21.1740   19.1820   13.2730 C.2   145  ASP145      0.3671
    184  OD1      -21.1770   20.4420   13.1870 O.co2 145  ASP145     -0.2456
    185  OD2      -21.7910   18.4600   12.4360 O.co2 145  ASP145     -0.2456
@<TRIPOS>BOND
     1   117   116   ar
     2   118   116   ar
     3     1     2    1
     4   116   115    1
     5     5     2    1
     6     5     6    1
     7     2     3    1
     8     7     6    1
     9     7     8    1
    10   115   114    1
    11   114   111    1
    12     9     8    1
    13     3     4    2
    14     3    10   am
    15   102   101    1
    16   102   103    1
    17   104   103    1
    18   101    98    1
    19    10    11    1
    20   111   112    1
    21   111   110    1
    22   126   124    1
    23   100    99    2
    24    97    98    1
    25    97    90   am
    26    25    24    1
    27    98    99    1
    28    59    60    1
    29   113   112    2
    30   112   119   am
    31    93    94    1
    32    93    92    1
    33   110   107   am
    34    99   105   am
    35    11    12    1
    36    11    14    1
    37    96    94   ar
    38   124   125    1
    39   124   123    1
    40    94    95   ar
    41    89    92    1
    42    89    90    1
    43    89    88    1
    44   119   120    1
    45    83    82    2
    46    60    61    1
    47    60    63    1
    48    13    12    2
    49    90    91    2
    50    12    19   am
    51    26    24    1
    52    24    23    1
    53   120   123    1
    54   120   121    1
    55   107   106    1
    56   107   108    2
    57    14    15    1
    58   105   106    1
    59    61    62    2
    60    19    20    1
    61    88    82   am
    62    82    81    1
    63   106   109    1
    64    23    20    1
    65    20    21    1
    66    15    16    1
    67    80    81    1
    68    55    54    2
    69   121   122    2
    70   121   127   am
    71    54    53    1
    72    81    84    1
    73   127   128    1
    74    21    22    2
    75    21    27   am
    76   150   149    2
    77    16    17   ar
    78    16    18   ar
    79    53    52    1
    80    53    56    1
    81    84    85    1
    82    57    56    1
    83    27    28    1
    84   155   153   am
    85    64    65    1
    86   128   129    1
    87   152   153    1
    88   152   151    1
    89   153   154    2
    90   151   148    1
    91   149   148    1
    92    56    58    1
    93    67    66    2
    94    66    65    1
    95    85    86    1
    96    65    68    1
    97   148   147    1
    98    28    29    1
    99    30    29    2
   100   129   130    2
   101   129   131   am
   102    78    77    1
   103    87    86    1
   104    29    31   am
   105   137   131    1
   106   137   136    1
   107   166   167    2
   108   166   165    1
   109    75    74    1
   110    75    76    2
   111   131   132    1
   112    68    69    1
   113   168   165    1
   114   168   169    1
   115    74    77    1
   116    74    73    1
   117   170   169    1
   118   141   140    2
   119    77    79    1
   120    69    70    1
   121   165   164    1
   122   140   139    1
   123    31    32    1
   124   136   135    1
   125   169   171    1
   126   134   133    2
   127   142   139    1
   128   142   143    1
   129   132   133    1
   130   132   135    1
   131    36    35    1
   132    35    32    1
   133    32    33    1
   134   139   138    1
   135   143   144    1
   136    49    47   ar
   137    49    51   ar
   138    70    71    1
   139   144   145    1
   140    71    72    1
   141    47    46   ar
   142    51    50   ar
   143    33    37   am
   144    33    34    2
   145   176   177    1
   146   176   173    1
   147   146   145    1
   148    44    43    2
   149    37    38    1
   150    43    42    1
   151    46    48   ar
   152    46    45    1
   153    50    48   ar
   154   173   172    1
   155   173   174    1
   156   185   183   ar
   157    40    39    2
   158    45    42    1
   159    38    39    1
   160   178   174   am
   161   178   179    1
   162   184   183   ar
   163    42    41    1
   164   183   182    1
   165   174   175    2
   166   159   158    2
   167   158   157    1
   168   179   182    1
   169   179   180    1
   170   157   156    1
   171   157   160    1
   172   162   161    2
   173   180   181    2
   174   160   161    1
   175   161   163   am
