@<TRIPOS>MOLECULE
tmp/4pv1A07.pdb
 85 79 0 0 0
SMALL
GASTEIGER

@<TRIPOS>ATOM
      1  N        -18.9310   65.8310   16.5580 N.3   114  LEU114     -0.1245
      2  CA       -19.8870   65.6870   17.6520 C.3   114  LEU114      0.1561
      3  C        -21.1820   66.4530   17.3920 C.2   114  LEU114      0.2260
      4  O        -22.2570   66.0200   17.8050 O.2   114  LEU114     -0.2867
      5  CB       -19.2650   66.1510   18.9700 C.3   114  LEU114      0.0270
      6  CG       -18.2500   65.2010   19.6060 C.3   114  LEU114      0.0019
      7  CD1      -17.7180   65.7790   20.9060 C.3   114  LEU114      0.0001
      8  CD2      -18.8760   63.8370   19.8420 C.3   114  LEU114      0.0001
      9  N        -23.0440   64.2000   14.9290 N.3   117  ILE117     -0.1231
     10  CA       -23.5400   63.0140   15.6230 C.3   117  ILE117      0.1692
     11  C        -24.7440   63.3370   16.5090 C.2   117  ILE117      0.2592
     12  O        -25.7380   62.6110   16.5030 O.2   117  ILE117     -0.2718
     13  CB       -22.4310   62.3670   16.4810 C.3   117  ILE117      0.0266
     14  CG1      -21.3210   61.8170   15.5840 C.3   117  ILE117      0.0019
     15  CG2      -22.9970   61.2520   17.3450 C.3   117  ILE117      0.0020
     16  CD1      -20.1580   61.2310   16.3490 C.3   117  ILE117      0.0001
     17  N        -24.6580   64.4310   17.2620 N.am  118  SER118     -0.1952
     18  CA       -25.7710   64.8580   18.1040 C.3   118  SER118      0.1924
     19  C        -26.9470   65.2940   17.2370 C.2   118  SER118      0.2314
     20  O        -28.0990   65.2600   17.6690 O.2   118  SER118     -0.2863
     21  CB       -25.3500   65.9960   19.0360 C.3   118  SER118      0.2116
     22  OG       -25.2490   67.2210   18.3320 O.3   118  SER118     -0.2180
     23  N        -28.7710   62.0850   16.1980 N.3   121  ILE121     -0.1245
     24  CA       -29.5950   61.6900   17.3350 C.3   121  ILE121      0.1561
     25  C        -30.8720   62.5260   17.3840 C.2   121  ILE121      0.2260
     26  O        -31.9620   61.9950   17.5960 O.2   121  ILE121     -0.2867
     27  CB       -28.8300   61.8320   18.6650 C.3   121  ILE121      0.0252
     28  CG1      -27.6140   60.9040   18.6760 C.3   121  ILE121      0.0019
     29  CG2      -29.7390   61.5280   19.8440 C.3   121  ILE121      0.0019
     30  CD1      -26.7730   61.0130   19.9280 C.3   121  ILE121      0.0001
     31  N        -30.4330   67.3290   23.8290 N.3   196  PHE196     -0.1241
     32  CA       -29.5630   67.2240   22.6640 C.3   196  PHE196      0.1605
     33  C        -29.5810   68.4780   21.7940 C.2   196  PHE196      0.2264
     34  O        -28.6400   68.7180   21.0420 O.2   196  PHE196     -0.2867
     35  CB       -29.9360   65.9970   21.8310 C.3   196  PHE196      0.0534
     36  CG       -29.4400   64.7060   22.4140 C.ar  196  PHE196     -0.0203
     37  CD1      -28.1660   64.2460   22.1250 C.ar  196  PHE196     -0.0042
     38  CD2      -30.2400   63.9600   23.2620 C.ar  196  PHE196     -0.0042
     39  CE1      -27.7010   63.0620   22.6650 C.ar  196  PHE196     -0.0003
     40  CE2      -29.7820   62.7740   23.8060 C.ar  196  PHE196     -0.0003
     41  CZ       -28.5100   62.3250   23.5070 C.ar  196  PHE196     -0.0000
     42  N        -26.9850   70.5370   23.6840 N.3   199  LEU199     -0.1245
     43  CA       -25.6490   70.0840   23.3150 C.3   199  LEU199      0.1561
     44  C        -25.3200   70.5220   21.8940 C.2   199  LEU199      0.2260
     45  O        -24.2000   70.9430   21.6070 O.2   199  LEU199     -0.2867
     46  CB       -25.5380   68.5630   23.4400 C.3   199  LEU199      0.0270
     47  CG       -25.7490   67.9760   24.8370 C.3   199  LEU199      0.0019
     48  CD1      -25.6760   66.4590   24.7970 C.3   199  LEU199      0.0001
     49  CD2      -24.7290   68.5340   25.8150 C.3   199  LEU199      0.0001
     50  N        -24.7420   74.3980   22.0100 N.3   202  LEU202     -0.1231
     51  CA       -23.5640   74.7750   22.7870 C.3   202  LEU202      0.1693
     52  C        -22.2780   74.5270   22.0090 C.2   202  LEU202      0.2591
     53  O        -21.3580   75.3420   22.0420 O.2   202  LEU202     -0.2718
     54  CB       -23.5260   74.0170   24.1160 C.3   202  LEU202      0.0284
     55  CG       -24.4010   74.5850   25.2360 C.3   202  LEU202      0.0019
     56  CD1      -24.3110   73.7230   26.4860 C.3   202  LEU202      0.0001
     57  CD2      -24.0090   76.0230   25.5440 C.3   202  LEU202      0.0001
     58  N        -22.2220   73.4010   21.3050 N.am  203  MET203     -0.1979
     59  CA       -21.0500   73.0590   20.5100 C.3   203  MET203      0.1605
     60  C        -20.9110   73.9890   19.3080 C.2   203  MET203      0.2287
     61  O        -19.8020   74.2630   18.8500 O.2   203  MET203     -0.2864
     62  CB       -21.1180   71.6000   20.0530 C.3   203  MET203      0.0413
     63  CG       -20.9420   70.5940   21.1820 C.3   203  MET203      0.0598
     64  SD       -20.9380   68.8790   20.6230 S.3   203  MET203     -0.1393
     65  CE       -22.6050   68.7100   19.9920 C.3   203  MET203      0.0692
     66  N        -22.0290   77.2390   19.2890 N.3   205  ARG205     -0.1231
     67  CA       -21.6300   78.5370   19.8150 C.3   205  ARG205      0.1694
     68  C        -20.1550   78.5330   20.2110 C.2   205  ARG205      0.2591
     69  O        -19.4720   79.5540   20.1170 O.2   205  ARG205     -0.2718
     70  CB       -22.5030   78.9270   21.0110 C.3   205  ARG205      0.0321
     71  CG       -22.2220   80.3230   21.5420 C.3   205  ARG205      0.0489
     72  CD       -23.3360   80.8300   22.4410 C.3   205  ARG205      0.2205
     73  NE       -23.1310   82.2290   22.8070 N.pl3 205  ARG205     -0.0865
     74  CZ       -23.4840   83.2600   22.0450 C.cat 205  ARG205      0.5346
     75  NH1      -24.0610   83.0520   20.8700 N.pl3 205  ARG205      0.1354
     76  NH2      -23.2570   84.5000   22.4560 N.pl3 205  ARG205      0.1354
     77  N        -19.6670   77.3720   20.6360 N.am  206  LYS206     -0.1980
     78  CA       -18.2850   77.2390   21.0780 C.3   206  LYS206      0.1596
     79  C        -17.3050   77.2470   19.9080 C.2   206  LYS206      0.2287
     80  O        -16.2430   77.8650   19.9820 O.2   206  LYS206     -0.2864
     81  CB       -18.1100   75.9560   21.8950 C.3   206  LYS206      0.0298
     82  CG       -16.6840   75.7040   22.3540 C.3   206  LYS206      0.0038
     83  CD       -16.1670   76.8570   23.1980 C.3   206  LYS206      0.0206
     84  CE       -14.7090   76.6580   23.5730 C.3   206  LYS206      0.1093
     85  NZ       -14.2090   77.7610   24.4390 N.3   206  LYS206     -0.1314
@<TRIPOS>BOND
     1     9    10    1
     2    14    16    1
     3    14    13    1
     4    10    13    1
     5    10    11    1
     6    23    24    1
     7    13    15    1
     8    12    11    2
     9    11    17   am
    10     1     2    1
    11    19    20    2
    12    19    18    1
    13    17    18    1
    14    24    25    1
    15    24    27    1
    16    25    26    2
    17     3     2    1
    18     3     4    2
    19     2     5    1
    20    18    21    1
    21    22    21    1
    22    27    28    1
    23    27    29    1
    24    28    30    1
    25    61    60    2
    26     5     6    1
    27    66    67    1
    28    60    59    1
    29     6     8    1
    30     6     7    1
    31    67    68    1
    32    67    70    1
    33    79    80    2
    34    79    78    1
    35    65    64    1
    36    62    59    1
    37    62    63    1
    38    69    68    2
    39    68    77   am
    40    59    58    1
    41    64    63    1
    42    77    78    1
    43    75    74    1
    44    70    71    1
    45    34    33    2
    46    78    81    1
    47    58    52   am
    48    71    72    1
    49    45    44    2
    50    33    32    1
    51    35    36    1
    52    35    32    1
    53    44    43    1
    54    81    82    1
    55    52    53    2
    56    52    51    1
    57    50    51    1
    58    74    76    1
    59    74    73    2
    60    37    36   ar
    61    37    39   ar
    62    82    83    1
    63    36    38   ar
    64    72    73    1
    65    32    31    1
    66    39    41   ar
    67    51    54    1
    68    83    84    1
    69    38    40   ar
    70    43    46    1
    71    43    42    1
    72    46    47    1
    73    41    40   ar
    74    84    85    1
    75    54    55    1
    76    48    47    1
    77    47    49    1
    78    55    57    1
    79    55    56    1
