@<TRIPOS>MOLECULE
tmp/4pv4A00.pdb
 123 118 0 0 0
SMALL
GASTEIGER

@<TRIPOS>ATOM
      1  N         30.3460    8.6260   35.3290 N.3   227  TYR227     -0.1227
      2  CA        29.3820    8.9460   36.3840 C.3   227  TYR227      0.1736
      3  C         29.5660   10.4110   36.7770 C.2   227  TYR227      0.2595
      4  O         30.5750   11.0230   36.3820 O.2   227  TYR227     -0.2718
      5  CB        29.5870    8.0520   37.6030 C.3   227  TYR227      0.0548
      6  CG        30.9830    8.0730   38.1720 C.ar  227  TYR227     -0.0200
      7  CD1       31.9640    7.2290   37.6680 C.ar  227  TYR227     -0.0009
      8  CD2       31.3270    8.9470   39.1830 C.ar  227  TYR227     -0.0009
      9  CE1       33.2520    7.2740   38.1440 C.ar  227  TYR227      0.0417
     10  CE2       32.6380    8.9820   39.6900 C.ar  227  TYR227      0.0417
     11  CZ        33.5810    8.1320   39.1640 C.ar  227  TYR227      0.1957
     12  OH        34.8850    8.1310   39.5980 O.3   227  TYR227     -0.2866
     13  N         28.6050   10.9860   37.4910 N.am  228  ASN228     -0.1974
     14  CA        28.7060   12.3730   37.8040 C.3   228  ASN228      0.1688
     15  C         29.7850   12.5870   38.8860 C.2   228  ASN228      0.2292
     16  O         29.7860   11.9380   39.9380 O.2   228  ASN228     -0.2864
     17  CB        27.3750   12.9110   38.2600 C.3   228  ASN228      0.1181
     18  CG        26.2890   12.7360   37.1880 C.2   228  ASN228      0.2629
     19  OD1       26.5470   12.9770   36.0300 O.2   228  ASN228     -0.2716
     20  ND2       25.1380   12.2270   37.5790 N.am  228  ASN228     -0.0877
     21  N         32.1640   13.8920   41.7640 N.3   230  ILE230     -0.1245
     22  CA        31.9740   14.4060   43.1350 C.3   230  ILE230      0.1561
     23  C         33.1830   15.3010   43.3950 C.2   230  ILE230      0.2260
     24  O         34.3120   14.7880   43.2510 O.2   230  ILE230     -0.2867
     25  CB        32.0290   13.2590   44.1130 C.3   230  ILE230      0.0252
     26  CG1       30.7790   12.4060   43.9060 C.3   230  ILE230      0.0019
     27  CG2       32.1910   13.7390   45.5770 C.3   230  ILE230      0.0019
     28  CD1       30.9950   10.9890   44.3530 C.3   230  ILE230      0.0001
     29  N         28.3360   11.1210   50.5610 N.3   240  LEU240     -0.1231
     30  CA        28.9690   10.2090   49.6280 C.3   240  LEU240      0.1693
     31  C         28.6840   10.4720   48.1530 C.2   240  LEU240      0.2592
     32  O         29.5440   10.2670   47.3460 O.2   240  LEU240     -0.2718
     33  CB        28.5630    8.7660   49.9210 C.3   240  LEU240      0.0284
     34  CG        28.9670    8.2710   51.2800 C.3   240  LEU240      0.0019
     35  CD1       28.4440    6.8420   51.3750 C.3   240  LEU240      0.0001
     36  CD2       30.4670    8.3310   51.4790 C.3   240  LEU240      0.0001
     37  N         27.4960   10.9170   47.8020 N.am  241  HIS241     -0.1976
     38  CA        27.2030   11.1920   46.3750 C.3   241  HIS241      0.1656
     39  C         26.9360   12.6760   46.2070 C.2   241  HIS241      0.2291
     40  O         26.0070   13.0790   45.5030 O.2   241  HIS241     -0.2864
     41  CB        25.9930   10.3650   45.8410 C.3   241  HIS241      0.0771
     42  CG        26.3430    8.9530   45.4750 C.ar  241  HIS241      0.0820
     43  ND1       26.8840    8.6250   44.2470 N.ar  241  HIS241     -0.2267
     44  CD2       26.2600    7.7940   46.1780 C.ar  241  HIS241      0.1154
     45  CE1       27.1100    7.3200   44.2080 C.ar  241  HIS241      0.1986
     46  NE2       26.7300    6.7940   45.3610 N.ar  241  HIS241     -0.2212
     47  N         35.9210   12.3990   43.3910 N.3   258  ASP258     -0.1239
     48  CA        35.6800   11.0770   42.8650 C.3   258  ASP258      0.1674
     49  C         35.2450   11.2560   41.4160 C.2   258  ASP258      0.2266
     50  O         34.1930   11.9060   41.1500 O.2   258  ASP258     -0.2867
     51  CB        34.6330   10.3760   43.7180 C.3   258  ASP258      0.1410
     52  CG        34.3790    8.9320   43.3040 C.2   258  ASP258      0.3668
     53  OD1       34.8880    8.4370   42.2410 O.co2 258  ASP258     -0.2456
     54  OD2       33.7840    8.1790   44.1430 O.co2 258  ASP258     -0.2456
     55  N         37.4690    4.8770   37.6600 N.3   269  ASP269     -0.1239
     56  CA        36.8410    5.3530   38.8700 C.3   269  ASP269      0.1674
     57  C         37.8850    5.5670   39.9140 C.2   269  ASP269      0.2266
     58  O         38.3870    4.5930   40.4970 O.2   269  ASP269     -0.2867
     59  CB        35.9010    4.2860   39.3400 C.3   269  ASP269      0.1410
     60  CG        35.0460    4.6780   40.5010 C.2   269  ASP269      0.3668
     61  OD1       35.1960    5.7590   41.0800 O.co2 269  ASP269     -0.2456
     62  OD2       34.2780    3.7360   40.8900 O.co2 269  ASP269     -0.2456
     63  N         30.1990    2.2750   53.6100 N.3   348  HIS348     -0.1226
     64  CA        29.9940    1.6600   52.3040 C.3   348  HIS348      0.1752
     65  C         30.9630    0.5130   52.0880 C.2   348  HIS348      0.2596
     66  O         31.7660    0.2630   52.9460 O.2   348  HIS348     -0.2718
     67  CB        30.1600    2.6870   51.2080 C.3   348  HIS348      0.0759
     68  CG        31.4890    3.3800   51.1990 C.ar  348  HIS348      0.0818
     69  ND1       32.6010    2.8280   50.5910 N.ar  348  HIS348     -0.2268
     70  CD2       31.8500    4.6170   51.6150 C.ar  348  HIS348      0.1154
     71  CE1       33.6010    3.7000   50.6660 C.ar  348  HIS348      0.1986
     72  NE2       33.1760    4.7860   51.2970 N.ar  348  HIS348     -0.2212
     73  N         30.8030   -0.1950   50.9650 N.am  349  GLY349     -0.1957
     74  CA        31.6840   -1.3060   50.6220 C.3   349  GLY349      0.1869
     75  C         33.1030   -0.8790   50.3100 C.2   349  GLY349      0.2309
     76  O         33.3410    0.2480   49.8400 O.2   349  GLY349     -0.2863
     77  N         33.7710   -2.4880   44.5110 N.3   352  HIS352     -0.1241
     78  CA        32.7420   -2.9740   43.5500 C.3   352  HIS352      0.1621
     79  C         33.4180   -3.3480   42.2220 C.2   352  HIS352      0.2264
     80  O         34.4690   -2.8630   41.8680 O.2   352  HIS352     -0.2867
     81  CB        31.6240   -1.9240   43.3150 C.3   352  HIS352      0.0745
     82  CG        32.1290   -0.6130   42.8400 C.ar  352  HIS352      0.0817
     83  ND1       32.4430   -0.3550   41.5170 N.ar  352  HIS352     -0.2268
     84  CD2       32.3790    0.5350   43.5170 C.ar  352  HIS352      0.1154
     85  CE1       32.8880    0.8830   41.4090 C.ar  352  HIS352      0.1986
     86  NE2       32.8050    1.4590   42.5940 N.ar  352  HIS352     -0.2212
     87  N         30.2810    1.6510   35.8690 N.3   358  VAL358     -0.1231
     88  CA        31.0410    1.9130   37.0700 C.3   358  VAL358      0.1692
     89  C         30.7220    1.0100   38.2250 C.2   358  VAL358      0.2592
     90  O         31.6860    0.4330   38.8210 O.2   358  VAL358     -0.2718
     91  CB        31.0640    3.4090   37.4230 C.3   358  VAL358      0.0266
     92  CG1       29.6860    3.9240   37.8080 C.3   358  VAL358      0.0020
     93  CG2       32.1150    3.6770   38.5250 C.3   358  VAL358      0.0020
     94  N         29.4460    0.7320   38.5020 N.am  359  HIS359     -0.1976
     95  CA        29.0990   -0.2910   39.4230 C.3   359  HIS359      0.1656
     96  C         28.8320   -1.5330   38.5660 C.2   359  HIS359      0.2291
     97  O         27.6960   -1.7360   38.0990 O.2   359  HIS359     -0.2864
     98  CB        27.8880    0.0910   40.2920 C.3   359  HIS359      0.0771
     99  CG        28.1800    1.1660   41.2870 C.ar  359  HIS359      0.0820
    100  ND1       27.1960    1.9490   41.8570 N.ar  359  HIS359     -0.2267
    101  CD2       29.3530    1.6520   41.7330 C.ar  359  HIS359      0.1154
    102  CE1       27.7700    2.8660   42.6320 C.ar  359  HIS359      0.1986
    103  NE2       29.0720    2.6950   42.5850 N.ar  359  HIS359     -0.2212
    104  N         38.4450    1.1060   47.6590 N.3   382  GLU382     -0.1245
    105  CA        37.9840    2.4190   48.0280 C.3   382  GLU382      0.1567
    106  C         37.6110    2.6000   49.4930 C.2   382  GLU382      0.2260
    107  O         36.5610    3.0680   49.8420 O.2   382  GLU382     -0.2867
    108  CB        36.8660    2.8570   47.0810 C.3   382  GLU382      0.0388
    109  CG        35.6310    1.9950   47.0970 C.3   382  GLU382      0.1160
    110  CD        34.6350    2.6150   46.1440 C.2   382  GLU382      0.3649
    111  OE1       34.3510    3.8080   46.3670 O.co2 382  GLU382     -0.2457
    112  OE2       34.2560    1.9910   45.1650 O.co2 382  GLU382     -0.2457
    113  N         38.3660    9.6840   51.1280 N.3   403  ARG403     -0.1245
    114  CA        38.3260    8.4190   50.4820 C.3   403  ARG403      0.1563
    115  C         39.5220    8.3860   49.5280 C.2   403  ARG403      0.2260
    116  O         39.8930    9.3930   48.9140 O.2   403  ARG403     -0.2867
    117  CB        36.9620    8.2390   49.7620 C.3   403  ARG403      0.0307
    118  CG        36.9320    6.9820   48.8970 C.3   403  ARG403      0.0489
    119  CD        35.6290    6.5140   48.3060 C.3   403  ARG403      0.2205
    120  NE        34.9710    7.4790   47.4180 N.pl3 403  ARG403     -0.0865
    121  CZ        34.0470    8.3600   47.7500 C.cat 403  ARG403      0.5346
    122  NH1       33.5220    9.1040   46.7950 N.pl3 403  ARG403      0.1354
    123  NH2       33.6100    8.5200   48.9840 N.pl3 403  ARG403      0.1354
@<TRIPOS>BOND
     1     1     2    1
     2    87    88    1
     3    19    18    2
     4     4     3    2
     5     2     3    1
     6     2     5    1
     7     3    13   am
     8    88    91    1
     9    88    89    1
    10    18    20   am
    11    18    17    1
    12    91    92    1
    13    91    93    1
    14    13    14    1
    15     5     6    1
    16    55    56    1
    17     7     9   ar
    18     7     6   ar
    19    14    17    1
    20    14    15    1
    21    97    96    2
    22     9    11   ar
    23     6     8   ar
    24    89    94   am
    25    89    90    2
    26    94    95    1
    27    96    95    1
    28    56    59    1
    29    56    57    1
    30    15    16    2
    31    11    12    1
    32    11    10   ar
    33     8    10   ar
    34    59    60    1
    35    95    98    1
    36    57    58    2
    37    98    99    1
    38    60    62   ar
    39    60    61   ar
    40    50    49    2
    41    99   101   ar
    42    99   100   ar
    43    85    83   ar
    44    85    86   ar
    45    49    48    1
    46    83    82   ar
    47   101   103   ar
    48    21    22    1
    49   100   102   ar
    50    80    79    2
    51    79    78    1
    52    53    52   ar
    53   103   102   ar
    54    86    84   ar
    55    82    81    1
    56    82    84   ar
    57    48    47    1
    58    48    51    1
    59    22    23    1
    60    22    25    1
    61    24    23    2
    62    52    51    1
    63    52    54   ar
    64    81    78    1
    65    78    77    1
    66    26    25    1
    67    26    28    1
    68    25    27    1
    69    45    43   ar
    70    45    46   ar
    71    43    42   ar
    72   112   110   ar
    73    46    44   ar
    74    42    41    1
    75    42    44   ar
    76    40    39    2
    77    41    38    1
    78   110   111   ar
    79   110   109    1
    80    39    38    1
    81    38    37    1
    82   122   121    1
    83   108   109    1
    84   108   105    1
    85    32    31    2
    86   120   121    2
    87   120   119    1
    88   104   105    1
    89   121   123    1
    90    37    31   am
    91   105   106    1
    92    31    30    1
    93   119   118    1
    94   118   117    1
    95   116   115    2
    96   106   107    2
    97   115   114    1
    98    30    33    1
    99    30    29    1
   100   117   114    1
   101    76    75    2
   102    33    34    1
   103    75    74    1
   104   114   113    1
   105    69    71   ar
   106    69    68   ar
   107    74    73    1
   108    71    72   ar
   109    73    65   am
   110    68    67    1
   111    68    70   ar
   112    67    64    1
   113    34    35    1
   114    34    36    1
   115    72    70   ar
   116    65    64    1
   117    65    66    2
   118    64    63    1
