@<TRIPOS>MOLECULE
tmp/4pv4B01.pdb
 123 118 0 0 0
SMALL
GASTEIGER

@<TRIPOS>ATOM
      1  N         22.1060   22.0840   25.2110 N.3   227  TYR227     -0.1227
      2  CA        21.8280   21.0970   24.2100 C.3   227  TYR227      0.1736
      3  C         23.1660   20.5260   23.7980 C.2   227  TYR227      0.2595
      4  O         24.2110   21.1240   24.1280 O.2   227  TYR227     -0.2718
      5  CB        21.1500   21.7290   23.0000 C.3   227  TYR227      0.0548
      6  CG        21.8810   22.9120   22.4040 C.ar  227  TYR227     -0.0200
      7  CD1       21.6770   24.1920   22.9140 C.ar  227  TYR227     -0.0009
      8  CD2       22.8240   22.7450   21.3820 C.ar  227  TYR227     -0.0009
      9  CE1       22.2890   25.3200   22.3700 C.ar  227  TYR227      0.0417
     10  CE2       23.4910   23.8630   20.8590 C.ar  227  TYR227      0.0417
     11  CZ        23.2010   25.1420   21.3450 C.ar  227  TYR227      0.1957
     12  OH        23.8460   26.2610   20.8550 O.3   227  TYR227     -0.2866
     13  N         23.1590   19.3830   23.1400 N.am  228  ASN228     -0.1974
     14  CA        24.4290   18.7150   22.7870 C.3   228  ASN228      0.1688
     15  C         25.1440   19.5100   21.7060 C.2   228  ASN228      0.2292
     16  O         24.5300   19.8910   20.6960 O.2   228  ASN228     -0.2864
     17  CB        24.1560   17.2890   22.3010 C.3   228  ASN228      0.1181
     18  CG        23.4700   16.4590   23.3910 C.2   228  ASN228      0.2629
     19  OD1       23.7970   16.6100   24.5570 O.2   228  ASN228     -0.2716
     20  ND2       22.5210   15.6240   23.0140 N.am  228  ASN228     -0.0877
     21  N         27.3340   20.8810   18.7140 N.3   230  ILE230     -0.1245
     22  CA        27.6640   20.5000   17.3520 C.3   230  ILE230      0.1561
     23  C         29.0120   21.0980   17.0000 C.2   230  ILE230      0.2260
     24  O         29.1940   22.2820   17.1430 O.2   230  ILE230     -0.2867
     25  CB        26.5550   21.0380   16.4040 C.3   230  ILE230      0.0252
     26  CG1       25.2250   20.2950   16.6800 C.3   230  ILE230      0.0019
     27  CG2       26.9720   20.9180   14.9540 C.3   230  ILE230      0.0019
     28  CD1       24.1340   21.1590   17.2580 C.3   230  ILE230      0.0001
     29  N         22.7070   19.0060   10.1660 N.3   240  LEU240     -0.1231
     30  CA        22.2360   20.0140   11.1230 C.3   240  LEU240      0.1693
     31  C         22.4440   19.6880   12.6190 C.2   240  LEU240      0.2592
     32  O         22.8740   20.5680   13.3590 O.2   240  LEU240     -0.2718
     33  CB        20.7750   20.3590   10.8840 C.3   240  LEU240      0.0284
     34  CG        20.4330   20.8600    9.4970 C.3   240  LEU240      0.0019
     35  CD1       18.9960   21.2260    9.3950 C.3   240  LEU240      0.0001
     36  CD2       21.2590   22.1010    9.1960 C.3   240  LEU240      0.0001
     37  N         22.1900   18.4550   13.0150 N.am  241  HIS241     -0.1976
     38  CA        22.4360   18.0480   14.4090 C.3   241  HIS241      0.1656
     39  C         23.6240   17.0890   14.5600 C.2   241  HIS241      0.2291
     40  O         23.6070   16.2120   15.3840 O.2   241  HIS241     -0.2864
     41  CB        21.1650   17.4780   15.0710 C.3   241  HIS241      0.0771
     42  CG        20.1610   18.5310   15.4530 C.ar  241  HIS241      0.0820
     43  ND1       20.2220   19.2180   16.6480 N.ar  241  HIS241     -0.2267
     44  CD2       19.0530   18.9850   14.8120 C.ar  241  HIS241      0.1154
     45  CE1       19.2080   20.0660   16.7150 C.ar  241  HIS241      0.1986
     46  NE2       18.4890   19.9500   15.6120 N.ar  241  HIS241     -0.2212
     47  N         27.8620   24.8930   16.9830 N.3   258  ASP258     -0.1239
     48  CA        26.6580   25.3860   17.5260 C.3   258  ASP258      0.1674
     49  C         26.6910   24.9490   18.9810 C.2   258  ASP258      0.2266
     50  O         26.7110   23.7440   19.2880 O.2   258  ASP258     -0.2867
     51  CB        25.4650   24.7740   16.7580 C.3   258  ASP258      0.1410
     52  CG        24.1130   25.3730   17.1750 C.2   258  ASP258      0.3668
     53  OD1       23.9830   26.0020   18.2360 O.co2 258  ASP258     -0.2456
     54  OD2       23.1530   25.2370   16.3610 O.co2 258  ASP258     -0.2456
     55  N         22.3890   30.1220   22.8060 N.3   269  ASP269     -0.1239
     56  CA        22.3940   29.3290   21.5910 C.3   269  ASP269      0.1674
     57  C         23.0860   30.1390   20.4980 C.2   269  ASP269      0.2266
     58  O         22.4790   31.0320   19.8700 O.2   269  ASP269     -0.2867
     59  CB        20.9600   29.0030   21.1810 C.3   269  ASP269      0.1410
     60  CG        20.8570   28.0900   20.0210 C.2   269  ASP269      0.3668
     61  OD1       21.9100   27.7110   19.4630 O.co2 269  ASP269     -0.2456
     62  OD2       19.6590   27.8430   19.6530 O.co2 269  ASP269     -0.2456
     63  N         15.8100   25.0390    7.1530 N.3   348  HIS348     -0.1226
     64  CA        15.2320   25.1580    8.4920 C.3   348  HIS348      0.1752
     65  C         14.7540   26.5740    8.7040 C.2   348  HIS348      0.2596
     66  O         14.9690   27.4220    7.8470 O.2   348  HIS348     -0.2718
     67  CB        16.2470   24.7420    9.5500 C.3   348  HIS348      0.0759
     68  CG        17.5080   25.5220    9.5280 C.ar  348  HIS348      0.0818
     69  ND1       17.6050   26.7850   10.0580 N.ar  348  HIS348     -0.2268
     70  CD2       18.7560   25.1810    9.1240 C.ar  348  HIS348      0.1154
     71  CE1       18.8510   27.2130    9.9460 C.ar  348  HIS348      0.1986
     72  NE2       19.5740   26.2490    9.4070 N.ar  348  HIS348     -0.2212
     73  N         14.1810   26.8440    9.8630 N.am  349  GLY349     -0.1957
     74  CA        13.6810   28.1800   10.1260 C.3   349  GLY349      0.1869
     75  C         14.7900   29.1860   10.4640 C.2   349  GLY349      0.2309
     76  O         15.8860   28.8450   10.9150 O.2   349  GLY349     -0.2863
     77  N         13.8900   30.6300   16.2780 N.3   352  HIS352     -0.1241
     78  CA        12.9930   30.0080   17.2550 C.3   352  HIS352      0.1621
     79  C         13.0270   30.8150   18.5690 C.2   352  HIS352      0.2264
     80  O         14.0270   31.5000   18.8780 O.2   352  HIS352     -0.2867
     81  CB        13.3470   28.5650   17.4890 C.3   352  HIS352      0.0745
     82  CG        14.7400   28.3370   17.9260 C.ar  352  HIS352      0.0817
     83  ND1       15.1190   28.4730   19.2440 N.ar  352  HIS352     -0.2268
     84  CD2       15.8480   27.9450   17.2440 C.ar  352  HIS352      0.1154
     85  CE1       16.4110   28.2130   19.3530 C.ar  352  HIS352      0.1986
     86  NE2       16.8660   27.8590   18.1660 N.ar  352  HIS352     -0.2212
     87  N         15.9610   25.6220   24.9040 N.3   358  VAL358     -0.1231
     88  CA        16.5860   26.2110   23.7020 C.3   358  VAL358      0.1692
     89  C         15.5940   26.3870   22.5950 C.2   358  VAL358      0.2592
     90  O         15.6220   27.3760   21.9350 O.2   358  VAL358     -0.2718
     91  CB        17.8680   25.3940   23.3040 C.3   358  VAL358      0.0266
     92  CG1       17.5440   23.9890   22.9100 C.3   358  VAL358      0.0020
     93  CG2       18.6210   26.0670   22.1520 C.3   358  VAL358      0.0020
     94  N         14.7390   25.3940   22.3150 N.am  359  HIS359     -0.1976
     95  CA        13.6050   25.6300   21.4480 C.3   359  HIS359      0.1656
     96  C         12.4720   26.0050   22.3770 C.2   359  HIS359      0.2291
     97  O         11.6870   25.1280   22.8220 O.2   359  HIS359     -0.2864
     98  CB        13.2880   24.3370   20.6820 C.3   359  HIS359      0.0771
     99  CG        14.3280   23.9930   19.6550 C.ar  359  HIS359      0.0820
    100  ND1       14.4340   22.7460   19.0760 N.ar  359  HIS359     -0.2267
    101  CD2       15.3370   24.7270   19.1550 C.ar  359  HIS359      0.1154
    102  CE1       15.4410   22.7510   18.2170 C.ar  359  HIS359      0.1986
    103  NE2       16.0020   23.9420   18.2480 N.ar  359  HIS359     -0.2212
    104  N         19.2400   32.7550   12.8460 N.3   382  GLU382     -0.1245
    105  CA        20.1350   31.6950   12.4900 C.3   382  GLU382      0.1567
    106  C         20.0920   31.2730   11.0190 C.2   382  GLU382      0.2260
    107  O         19.8570   30.1290   10.6940 O.2   382  GLU382     -0.2867
    108  CB        19.9920   30.5430   13.4770 C.3   382  GLU382      0.0388
    109  CG        18.6330   29.8550   13.4800 C.3   382  GLU382      0.1160
    110  CD        18.6370   28.6840   14.4310 C.2   382  GLU382      0.3649
    111  OE1       19.4580   27.7680   14.2270 O.co2 382  GLU382     -0.2457
    112  OE2       17.9300   28.7430   15.4320 O.co2 382  GLU382     -0.2457
    113  N         26.5380   28.1980    9.2050 N.3   403  ARG403     -0.1245
    114  CA        25.4570   28.8390    9.9050 C.3   403  ARG403      0.1563
    115  C         26.0450   29.9080   10.8230 C.2   403  ARG403      0.2260
    116  O         27.1070   29.7330   11.4530 O.2   403  ARG403     -0.2867
    117  CB        24.5930   27.7940   10.6820 C.3   403  ARG403      0.0307
    118  CG        23.5040   28.4410   11.5600 C.3   403  ARG403      0.0489
    119  CD        22.4700   27.4160   12.1140 C.3   403  ARG403      0.2205
    120  NE        23.0130   26.4660   13.0480 N.pl3 403  ARG403     -0.0865
    121  CZ        23.3430   25.1980   12.7430 C.cat 403  ARG403      0.5346
    122  NH1       23.8150   24.3700   13.6770 N.pl3 403  ARG403      0.1354
    123  NH2       23.1550   24.7050   11.5220 N.pl3 403  ARG403      0.1354
@<TRIPOS>BOND
     1    63    64    1
     2    66    65    2
     3    64    65    1
     4    64    67    1
     5    65    73   am
     6    70    72   ar
     7    70    68   ar
     8    36    34    1
     9   113   114    1
    10    35    34    1
    11    72    71   ar
    12    34    33    1
    13    68    67    1
    14    68    69   ar
    15    73    74    1
    16   114   117    1
    17   114   115    1
    18    71    69   ar
    19    74    75    1
    20    29    30    1
    21    75    76    2
    22   117   118    1
    23   107   106    2
    24   115   116    2
    25    33    30    1
    26   106   105    1
    27    30    31    1
    28   123   121    1
    29   118   119    1
    30   119   120    1
    31   105   104    1
    32   105   108    1
    33    31    37   am
    34    31    32    2
    35   121   120    2
    36   121   122    1
    37    37    38    1
    38   108   109    1
    39   109   110    1
    40   111   110   ar
    41    38    39    1
    42    38    41    1
    43   110   112   ar
    44    39    40    2
    45    44    42   ar
    46    44    46   ar
    47    27    25    1
    48    41    42    1
    49    42    43   ar
    50    46    45   ar
    51    77    78    1
    52    54    52   ar
    53    25    26    1
    54    25    22    1
    55    43    45   ar
    56    26    28    1
    57    51    52    1
    58    51    48    1
    59    47    48    1
    60    23    24    2
    61    23    22    1
    62    52    53   ar
    63    84    82   ar
    64    84    86   ar
    65    78    81    1
    66    78    79    1
    67    22    21    1
    68    81    82    1
    69    48    49    1
    70    82    83   ar
    71    86    85   ar
    72   102   103   ar
    73   102   100   ar
    74   103   101   ar
    75    79    80    2
    76    49    50    2
    77   100    99   ar
    78   101    99   ar
    79    83    85   ar
    80    61    60   ar
    81    62    60   ar
    82    99    98    1
    83    58    57    2
    84    60    59    1
    85    57    56    1
    86    98    95    1
    87    16    15    2
    88    12    11    1
    89    10    11   ar
    90    10     8   ar
    91    59    56    1
    92    11     9   ar
    93     8     6   ar
    94    95    94    1
    95    95    96    1
    96    56    55    1
    97    15    14    1
    98    90    89    2
    99    93    91    1
   100    17    14    1
   101    17    18    1
   102    94    89   am
   103     9     7   ar
   104    96    97    2
   105     6     7   ar
   106     6     5    1
   107    89    88    1
   108    14    13    1
   109    92    91    1
   110     5     2    1
   111    20    18   am
   112    13     3   am
   113    91    88    1
   114    18    19    2
   115    88    87    1
   116     3     4    2
   117     3     2    1
   118     2     1    1
