@<TRIPOS>MOLECULE
tmp/4pv5A00.pdb
 99 96 0 0 0
SMALL
GASTEIGER

@<TRIPOS>ATOM
      1  N         10.4010    9.3160   14.6600 N.3   107  ASN107     -0.1240
      2  CA        11.1220    9.0320   15.9020 C.3   107  ASN107      0.1653
      3  C         12.5520    9.5760   16.0170 C.2   107  ASN107      0.2266
      4  O         13.2230    9.3890   17.0340 O.2   107  ASN107     -0.2867
      5  CB        11.0720    7.5450   16.2030 C.3   107  ASN107      0.1155
      6  CG         9.6820    7.0990   16.5810 C.2   107  ASN107      0.2627
      7  OD1        9.1360    7.5630   17.5740 O.2   107  ASN107     -0.2716
      8  ND2        9.0960    6.2150   15.7850 N.am  107  ASN107     -0.0877
      9  N         10.8880   15.0230   15.0100 N.3   111  ARG111     -0.1245
     10  CA         9.9620   14.1060   15.6590 C.3   111  ARG111      0.1563
     11  C          8.4910   14.5570   15.5960 C.2   111  ARG111      0.2260
     12  O          8.2020   15.7270   15.4010 O.2   111  ARG111     -0.2867
     13  CB        10.4020   13.8650   17.1050 C.3   111  ARG111      0.0307
     14  CG        11.7440   13.1500   17.2450 C.3   111  ARG111      0.0489
     15  CD        11.9800   12.7570   18.6910 C.3   111  ARG111      0.2205
     16  NE        12.0820   13.9320   19.5540 N.pl3 111  ARG111     -0.0865
     17  CZ        11.9100   13.9120   20.8740 C.cat 111  ARG111      0.5346
     18  NH1       11.6210   12.7760   21.4940 N.pl3 111  ARG111      0.1354
     19  NH2       12.0180   15.0320   21.5760 N.pl3 111  ARG111      0.1354
     20  N          4.1960    6.1420   17.0680 N.3   115  HIS115     -0.1241
     21  CA         3.8980    4.7430   16.7730 C.3   115  HIS115      0.1621
     22  C          2.4100    4.4740   16.8440 C.2   115  HIS115      0.2264
     23  O          1.6630    5.2000   17.4900 O.2   115  HIS115     -0.2867
     24  CB         4.6220    3.7990   17.7560 C.3   115  HIS115      0.0745
     25  CG         4.3010    4.0600   19.1990 C.ar  115  HIS115      0.0817
     26  ND1        5.1230    4.8020   20.0230 N.ar  115  HIS115     -0.2268
     27  CD2        3.2430    3.6900   19.9620 C.ar  115  HIS115      0.1154
     28  CE1        4.5850    4.8820   21.2270 C.ar  115  HIS115      0.1986
     29  NE2        3.4470    4.2100   21.2180 N.ar  115  HIS115     -0.2212
     30  N         12.5780   -2.9750   17.0280 N.3   138  VAL138     -0.1231
     31  CA        13.2380   -1.7900   17.5490 C.3   138  VAL138      0.1692
     32  C         13.5620   -2.0790   19.0050 C.2   138  VAL138      0.2591
     33  O         14.6210   -1.6970   19.5070 O.2   138  VAL138     -0.2718
     34  CB        12.3820   -0.5270   17.3780 C.3   138  VAL138      0.0266
     35  CG1       12.7520    0.5500   18.3950 C.3   138  VAL138      0.0020
     36  CG2       12.5380   -0.0070   15.9890 C.3   138  VAL138      0.0020
     37  N         12.6620   -2.7990   19.6670 N.am  139  LYS139     -0.1980
     38  CA        12.9060   -3.2380   21.0360 C.3   139  LYS139      0.1596
     39  C         12.3550   -4.6350   21.3190 C.2   139  LYS139      0.2287
     40  O         11.1520   -4.8670   21.2330 O.2   139  LYS139     -0.2864
     41  CB        12.3190   -2.2390   22.0220 C.3   139  LYS139      0.0298
     42  CG        12.3380   -2.7410   23.4380 C.3   139  LYS139      0.0038
     43  CD        11.6710   -1.7680   24.3750 C.3   139  LYS139      0.0206
     44  CE        11.1720   -2.4640   25.6430 C.3   139  LYS139      0.1093
     45  NZ        12.0320   -3.6070   26.0920 N.3   139  LYS139     -0.1314
     46  N         14.4640   -6.1000   26.6810 N.3   143  ASP143     -0.1225
     47  CA        15.4940   -5.0650   26.7740 C.3   143  ASP143      0.1805
     48  C         14.9810   -3.9060   27.6300 C.2   143  ASP143      0.2598
     49  O         13.8650   -3.4310   27.4200 O.2   143  ASP143     -0.2718
     50  CB        15.8640   -4.5120   25.3970 C.3   143  ASP143      0.1424
     51  CG        16.0950   -5.5950   24.3550 C.2   143  ASP143      0.3668
     52  OD1       16.4120   -6.7470   24.7230 O.co2 143  ASP143     -0.2456
     53  OD2       15.9710   -5.2800   23.1470 O.co2 143  ASP143     -0.2456
     54  N         15.7890   -3.4550   28.5900 N.am  144  GLY144     -0.1942
     55  CA        15.5030   -2.2240   29.3120 C.3   144  GLY144      0.2014
     56  C         14.5890   -2.3420   30.5160 C.2   144  GLY144      0.2639
     57  O         14.2530   -3.4440   30.9520 O.2   144  GLY144     -0.2714
     58  N         14.1920   -1.1940   31.0610 N.am  145  LYS145     -0.1963
     59  CA        13.2870   -1.1490   32.2100 C.3   145  LYS145      0.1728
     60  C         11.9520   -1.8280   31.9010 C.2   145  LYS145      0.2616
     61  O         11.4560   -2.6320   32.6890 O.2   145  LYS145     -0.2715
     62  CB        13.0580    0.2970   32.6770 C.3   145  LYS145      0.0311
     63  CG        12.0560    0.4360   33.8310 C.3   145  LYS145      0.0038
     64  CD        11.8610    1.8920   34.2550 C.3   145  LYS145      0.0206
     65  CE        10.6880    2.0440   35.2230 C.3   145  LYS145      0.1093
     66  NZ        10.8930    1.3150   36.5090 N.3   145  LYS145     -0.1314
     67  N         11.3700   -1.5090   30.7530 N.am  146  MET146     -0.1977
     68  CA        10.1260   -2.1530   30.3640 C.3   146  MET146      0.1605
     69  C         10.3550   -3.5510   29.7800 C.2   146  MET146      0.2287
     70  O         10.8320   -3.7110   28.6540 O.2   146  MET146     -0.2864
     71  CB         9.3170   -1.2670   29.4160 C.3   146  MET146      0.0413
     72  CG         8.4080   -0.2840   30.1370 C.3   146  MET146      0.0598
     73  SD         8.6300    1.4150   29.5760 S.3   146  MET146     -0.1393
     74  CE        10.3610    1.6860   29.9610 C.3   146  MET146      0.0692
     75  N          8.6740   -3.1790   20.6550 N.3   151  PHE151     -0.1241
     76  CA         8.3740   -2.3820   19.4720 C.3   151  PHE151      0.1605
     77  C          8.9700   -3.0640   18.2600 C.2   151  PHE151      0.2264
     78  O         10.1610   -3.3960   18.2500 O.2   151  PHE151     -0.2867
     79  CB         8.9960   -0.9950   19.5610 C.3   151  PHE151      0.0534
     80  CG         8.2670   -0.0590   20.4650 C.ar  151  PHE151     -0.0203
     81  CD1        7.2270    0.7070   19.9840 C.ar  151  PHE151     -0.0042
     82  CD2        8.6380    0.0690   21.7910 C.ar  151  PHE151     -0.0042
     83  CE1        6.5630    1.5670   20.8070 C.ar  151  PHE151     -0.0003
     84  CE2        7.9800    0.9390   22.6240 C.ar  151  PHE151     -0.0003
     85  CZ         6.9400    1.6910   22.1350 C.ar  151  PHE151     -0.0000
     86  N          7.1550    2.4940   13.7080 N.3   159  TRP159     -0.1241
     87  CA         7.2170    1.7250   14.9500 C.3   159  TRP159      0.1605
     88  C          5.8340    1.2340   15.3340 C.2   159  TRP159      0.2264
     89  O          4.8510    1.9710   15.2190 O.2   159  TRP159     -0.2867
     90  CB         7.7570    2.5760   16.1000 C.3   159  TRP159      0.0550
     91  CG         9.1800    2.9630   16.0070 C.ar  159  TRP159      0.0003
     92  CD1        9.9730    2.9340   14.9040 C.ar  159  TRP159      0.0946
     93  CD2       10.0000    3.4360   17.0810 C.ar  159  TRP159      0.0152
     94  NE1       11.2380    3.3710   15.2170 N.ar  159  TRP159     -0.2442
     95  CE2       11.2780    3.6880   16.5480 C.ar  159  TRP159      0.0810
     96  CE3        9.7750    3.6700   18.4430 C.ar  159  TRP159      0.0012
     97  CZ2       12.3220    4.1520   17.3230 C.ar  159  TRP159      0.0191
     98  CZ3       10.8110    4.1410   19.2040 C.ar  159  TRP159      0.0001
     99  CH2       12.0700    4.3740   18.6460 C.ar  159  TRP159      0.0015
@<TRIPOS>BOND
     1    86    87    1
     2     1     2    1
     3    92    94   ar
     4    92    91   ar
     5    87    88    1
     6    87    90    1
     7     9    10    1
     8    94    95   ar
     9    89    88    2
    10    12    11    2
    11    11    10    1
    12    10    13    1
    13     8     6   am
    14     2     3    1
    15     2     5    1
    16    36    34    1
    17    91    90    1
    18    91    93   ar
    19     3     4    2
    20     5     6    1
    21    95    93   ar
    22    95    97   ar
    23     6     7    2
    24    21    22    1
    25    21    20    1
    26    21    24    1
    27    22    23    2
    28    30    31    1
    29    93    96   ar
    30    13    14    1
    31    14    15    1
    32    97    99   ar
    33    34    31    1
    34    34    35    1
    35    31    32    1
    36    24    25    1
    37    78    77    2
    38    77    76    1
    39    96    98   ar
    40    99    98   ar
    41    15    16    1
    42    32    33    2
    43    32    37   am
    44    25    27   ar
    45    25    26   ar
    46    76    79    1
    47    76    75    1
    48    16    17    2
    49    79    80    1
    50    37    38    1
    51    27    29   ar
    52    81    80   ar
    53    81    83   ar
    54    26    28   ar
    55    80    82   ar
    56    83    85   ar
    57    17    18    1
    58    17    19    1
    59    38    39    1
    60    38    41    1
    61    29    28   ar
    62    40    39    2
    63    82    84   ar
    64    41    42    1
    65    85    84   ar
    66    53    51   ar
    67    42    43    1
    68    51    52   ar
    69    51    50    1
    70    43    44    1
    71    50    47    1
    72    44    45    1
    73    46    47    1
    74    47    48    1
    75    49    48    2
    76    48    54   am
    77    54    55    1
    78    70    69    2
    79    55    56    1
    80    71    72    1
    81    71    68    1
    82    73    74    1
    83    73    72    1
    84    69    68    1
    85    68    67    1
    86    56    57    2
    87    56    58   am
    88    67    60   am
    89    58    59    1
    90    60    59    1
    91    60    61    2
    92    59    62    1
    93    62    63    1
    94    63    64    1
    95    64    65    1
    96    65    66    1
