@<TRIPOS>MOLECULE
tmp/4pv6I00.pdb
 235 231 0 0 0
SMALL
GASTEIGER

@<TRIPOS>ATOM
      1  N         36.7730  -19.4260   84.2340 N.3    26  SER26      -0.1202
      2  CA        36.8710  -17.9860   83.9480 C.3    26  SER26       0.2020
      3  C         36.0050  -17.4190   82.8180 C.2    26  SER26       0.2618
      4  O         35.5490  -16.2850   82.9190 O.2    26  SER26      -0.2717
      5  CB        38.3260  -17.6600   83.6560 C.3    26  SER26       0.2103
      6  OG        39.1530  -18.1520   84.7010 O.3    26  SER26      -0.2182
      7  N         35.7850  -18.1930   81.7570 N.am   27  LEU27      -0.1979
      8  CA        35.0590  -17.7240   80.5630 C.3    27  LEU27       0.1596
      9  C         33.6660  -18.3270   80.4170 C.2    27  LEU27       0.2287
     10  O         33.4760  -19.5300   80.5970 O.2    27  LEU27      -0.2864
     11  CB        35.8380  -18.0930   79.3130 C.3    27  LEU27       0.0297
     12  CG        37.3380  -17.8860   79.3750 C.3    27  LEU27       0.0022
     13  CD1       37.9230  -18.2740   78.0330 C.3    27  LEU27       0.0001
     14  CD2       37.6640  -16.4460   79.7160 C.3    27  LEU27       0.0001
     15  N         34.2340  -23.8510   75.8330 N.3    31  TYR31      -0.1241
     16  CA        35.1870  -24.3530   74.8380 C.3    31  TYR31       0.1605
     17  C         35.5800  -25.7530   75.2370 C.2    31  TYR31       0.2264
     18  O         35.8160  -25.9980   76.4060 O.2    31  TYR31      -0.2867
     19  CB        36.4150  -23.4290   74.7480 C.3    31  TYR31       0.0534
     20  CG        36.1200  -22.1420   74.0010 C.ar   31  TYR31      -0.0201
     21  CD1       35.2640  -21.1810   74.5330 C.ar   31  TYR31      -0.0009
     22  CD2       36.6730  -21.8980   72.7480 C.ar   31  TYR31      -0.0009
     23  CE1       34.9820  -20.0110   73.8450 C.ar   31  TYR31       0.0417
     24  CE2       36.3930  -20.7370   72.0470 C.ar   31  TYR31       0.0417
     25  CZ        35.5510  -19.7960   72.6020 C.ar   31  TYR31       0.1957
     26  OH        35.2520  -18.6540   71.9000 O.3    31  TYR31      -0.2866
     27  N         42.0970  -12.3710   68.8240 N.3    72  ILE72      -0.1231
     28  CA        42.2680  -12.9360   70.1430 C.3    72  ILE72       0.1692
     29  C         41.1030  -13.8330   70.5010 C.2    72  ILE72       0.2592
     30  O         40.0230  -13.3820   70.9010 O.2    72  ILE72      -0.2718
     31  CB        42.4760  -11.8290   71.1770 C.3    72  ILE72       0.0266
     32  CG1       43.8450  -11.1700   70.9100 C.3    72  ILE72       0.0019
     33  CG2       42.3820  -12.3970   72.5880 C.3    72  ILE72       0.0020
     34  CD1       44.2900  -10.1780   71.9730 C.3    72  ILE72       0.0001
     35  N         41.3510  -15.1290   70.3760 N.am   73  LEU73      -0.1966
     36  CA        40.3180  -16.1530   70.5680 C.3    73  LEU73       0.1728
     37  C         40.0620  -16.5200   72.0120 C.2    73  LEU73       0.2616
     38  O         38.9450  -16.7790   72.3560 O.2    73  LEU73      -0.2715
     39  CB        40.6810  -17.4200   69.8040 C.3    73  LEU73       0.0311
     40  CG        41.1330  -17.2240   68.3490 C.3    73  LEU73       0.0022
     41  CD1       41.3080  -18.5700   67.6650 C.3    73  LEU73       0.0001
     42  CD2       40.1130  -16.3610   67.6240 C.3    73  LEU73       0.0001
     43  N         41.0810  -16.6040   72.8520 N.am   74  LEU74      -0.1963
     44  CA        40.8570  -16.8410   74.2740 C.3    74  LEU74       0.1728
     45  C         41.9080  -16.1500   75.0840 C.2    74  LEU74       0.2616
     46  O         43.0200  -16.0760   74.6600 O.2    74  LEU74      -0.2715
     47  CB        40.9460  -18.3190   74.5810 C.3    74  LEU74       0.0311
     48  CG        39.8390  -19.2560   74.1510 C.3    74  LEU74       0.0022
     49  CD1       40.4890  -20.5420   73.7070 C.3    74  LEU74       0.0001
     50  CD2       38.9620  -19.5170   75.3410 C.3    74  LEU74       0.0001
     51  N         41.5680  -15.6420   76.2500 N.am   75  PHE75      -0.1960
     52  CA        42.5590  -15.0290   77.1110 C.3    75  PHE75       0.1771
     53  C         42.0700  -15.1040   78.5330 C.2    75  PHE75       0.2619
     54  O         41.0560  -14.5260   78.8350 O.2    75  PHE75      -0.2715
     55  CB        42.6890  -13.5850   76.6780 C.3    75  PHE75       0.0574
     56  CG        43.5800  -12.7510   77.5370 C.ar   75  PHE75      -0.0200
     57  CD1       44.9330  -12.8420   77.4380 C.ar   75  PHE75      -0.0042
     58  CD2       43.0540  -11.8380   78.3850 C.ar   75  PHE75      -0.0042
     59  CE1       45.7470  -12.0590   78.1980 C.ar   75  PHE75      -0.0003
     60  CE2       43.8580  -11.0540   79.1610 C.ar   75  PHE75      -0.0003
     61  CZ        45.2070  -11.1680   79.0660 C.ar   75  PHE75      -0.0000
     62  N         42.7760  -15.7850   79.4210 N.am   76  ALA76      -0.1963
     63  CA        42.3100  -15.8970   80.7990 C.3    76  ALA76       0.1728
     64  C         43.4040  -16.2070   81.7870 C.2    76  ALA76       0.2616
     65  O         44.4540  -16.6680   81.4040 O.2    76  ALA76      -0.2715
     66  CB        41.2120  -16.9200   80.8960 C.3    76  ALA76       0.0334
     67  N         43.1400  -15.9460   83.0590 N.am   77  VAL77      -0.1977
     68  CA        44.0960  -16.1690   84.1360 C.3    77  VAL77       0.1596
     69  C         43.4700  -16.8720   85.3340 C.2    77  VAL77       0.2287
     70  O         42.3010  -16.6960   85.6030 O.2    77  VAL77      -0.2864
     71  CB        44.6690  -14.8480   84.6220 C.3    77  VAL77       0.0276
     72  CG1       45.6790  -15.1020   85.7020 C.3    77  VAL77       0.0022
     73  CG2       45.3150  -14.1000   83.4840 C.3    77  VAL77       0.0022
     74  N         45.3780  -16.1440   90.5230 N.3    81  PHE81      -0.1227
     75  CA        46.5260  -15.3600   90.1140 C.3    81  PHE81       0.1736
     76  C         46.2760  -13.9880   89.5160 C.2    81  PHE81       0.2595
     77  O         47.2050  -13.2850   89.1850 O.2    81  PHE81      -0.2718
     78  CB        47.4430  -16.1880   89.2520 C.3    81  PHE81       0.0547
     79  CG        48.0190  -17.3640   89.9680 C.ar   81  PHE81      -0.0202
     80  CD1       47.2070  -18.2410   90.6250 C.ar   81  PHE81      -0.0042
     81  CD2       49.3700  -17.5800   89.9910 C.ar   81  PHE81      -0.0042
     82  CE1       47.7340  -19.3250   91.2840 C.ar   81  PHE81      -0.0003
     83  CE2       49.9020  -18.6540   90.6510 C.ar   81  PHE81      -0.0003
     84  CZ        49.0840  -19.5310   91.2960 C.ar   81  PHE81      -0.0000
     85  N         45.0260  -13.6020   89.3760 N.am   82  ARG82      -0.1966
     86  CA        44.7000  -12.2140   89.2050 C.3    82  ARG82       0.1729
     87  C         44.8800  -11.6740   90.6050 C.2    82  ARG82       0.2616
     88  O         44.9790  -12.4460   91.5410 O.2    82  ARG82      -0.2715
     89  CB        43.2630  -12.0620   88.7590 C.3    82  ARG82       0.0348
     90  CG        42.7900  -13.1840   87.8680 C.3    82  ARG82       0.0492
     91  CD        41.3280  -13.0550   87.4920 C.3    82  ARG82       0.2205
     92  NE        40.9190  -14.1830   86.6690 N.pl3  82  ARG82      -0.0865
     93  CZ        39.6870  -14.6570   86.5880 C.cat  82  ARG82       0.5346
     94  NH1       39.4310  -15.6900   85.8170 N.pl3  82  ARG82       0.1354
     95  NH2       38.7100  -14.0990   87.2630 N.pl3  82  ARG82       0.1354
     96  N         44.9740  -10.3670   90.7740 N.am   83  ARG83      -0.1963
     97  CA        44.7380   -9.4360   89.7060 C.3    83  ARG83       0.1729
     98  C         46.0080   -8.7350   89.3650 C.2    83  ARG83       0.2616
     99  O         45.9650   -7.7390   88.6610 O.2    83  ARG83      -0.2715
    100  CB        43.7400   -8.3710   90.1470 C.3    83  ARG83       0.0348
    101  CG        42.2740   -8.7560   90.0310 C.3    83  ARG83       0.0492
    102  CD        41.4060   -7.5140   90.0650 C.3    83  ARG83       0.2205
    103  NE        40.0150   -7.8100   90.3620 N.pl3  83  ARG83      -0.0865
    104  CZ        39.0620   -6.8920   90.3520 C.cat  83  ARG83       0.5346
    105  NH1       39.3700   -5.6390   90.0580 N.pl3  83  ARG83       0.1354
    106  NH2       37.8110   -7.2230   90.6360 N.pl3  83  ARG83       0.1354
    107  N         47.1260   -9.1940   89.9050 N.am   84  MET84      -0.1963
    108  CA        48.3590   -8.4960   89.6500 C.3    84  MET84       0.1736
    109  C         49.4080   -9.3250   88.9630 C.2    84  MET84       0.2617
    110  O         49.9090  -10.2770   89.5190 O.2    84  MET84      -0.2715
    111  CB        48.8920   -7.9510   90.9590 C.3    84  MET84       0.0427
    112  CG        48.0230   -6.8620   91.5590 C.3    84  MET84       0.0599
    113  SD        48.8810   -5.2800   91.6440 S.3    84  MET84      -0.1393
    114  CE        50.5770   -5.8170   91.8310 C.3    84  MET84       0.0692
    115  N         49.7680   -8.9150   87.7580 N.am   85  GLY85      -0.1940
    116  CA        50.8870   -9.5090   87.0770 C.3    85  GLY85       0.2014
    117  C         50.6580  -10.0300   85.6770 C.2    85  GLY85       0.2639
    118  O         51.0820   -9.4450   84.6990 O.2    85  GLY85      -0.2714
    119  N         50.0410  -11.1970   85.6050 N.am   86  VAL86      -0.1963
    120  CA        50.1480  -12.0390   84.4390 C.3    86  VAL86       0.1727
    121  C         49.5740  -11.5860   83.1120 C.2    86  VAL86       0.2617
    122  O         50.2700  -11.6190   82.1170 O.2    86  VAL86      -0.2715
    123  CB        49.5890  -13.4320   84.7660 C.3    86  VAL86       0.0290
    124  CG1       48.0780  -13.4540   84.6670 C.3    86  VAL86       0.0023
    125  CG2       50.2190  -14.4900   83.8830 C.3    86  VAL86       0.0023
    126  N         48.3380  -11.1120   83.0920 N.am   87  GLY87      -0.1940
    127  CA        47.6940  -10.8480   81.8270 C.3    87  GLY87       0.2014
    128  C         48.4230   -9.7660   81.1040 C.2    87  GLY87       0.2639
    129  O         48.7820   -9.8850   79.9620 O.2    87  GLY87      -0.2714
    130  N         48.7250   -8.7160   81.8180 N.am   88  SER88      -0.1949
    131  CA        49.5830   -7.6860   81.2570 C.3    88  SER88       0.1924
    132  C         50.7990   -8.3730   80.6540 C.2    88  SER88       0.2314
    133  O         51.1680   -8.1090   79.5280 O.2    88  SER88      -0.2863
    134  CB        49.9950   -6.7030   82.3450 C.3    88  SER88       0.2116
    135  OG        48.8520   -6.3480   83.1070 O.3    88  SER88      -0.2180
    136  N         39.3620   -8.1740   68.7890 N.3   108  LEU108     -0.1231
    137  CA        38.8130   -9.1200   69.7240 C.3   108  LEU108      0.1693
    138  C         37.3660   -8.7870   69.9930 C.2   108  LEU108      0.2592
    139  O         36.8850   -7.7230   69.6140 O.2   108  LEU108     -0.2718
    140  CB        39.5950   -9.0770   71.0200 C.3   108  LEU108      0.0284
    141  CG        39.4800   -7.8390   71.8950 C.3   108  LEU108      0.0019
    142  CD1       38.1490   -7.7800   72.6230 C.3   108  LEU108      0.0001
    143  CD2       40.6270   -7.9040   72.8970 C.3   108  LEU108      0.0001
    144  N         36.6760   -9.7060   70.6490 N.am  109  GLU109     -0.1966
    145  CA        35.2610   -9.5680   70.9460 C.3   109  GLU109      0.1733
    146  C         35.1500   -9.8500   72.4380 C.2   109  GLU109      0.2616
    147  O         35.9250  -10.6360   72.9850 O.2   109  GLU109     -0.2715
    148  CB        34.4240  -10.5480   70.1060 C.3   109  GLU109      0.0429
    149  CG        34.5790  -10.4010   68.5820 C.3   109  GLU109      0.1163
    150  CD        35.8770  -11.0070   67.9800 C.2   109  GLU109      0.3649
    151  OE1       36.7500  -11.5690   68.6930 O.co2 109  GLU109     -0.2457
    152  OE2       36.0530  -10.9170   66.7430 O.co2 109  GLU109     -0.2457
    153  N         34.2270   -9.1840   73.1160 N.am  110  VAL110     -0.1963
    154  CA        34.1120   -9.3300   74.5650 C.3   110  VAL110      0.1727
    155  C         32.6740   -9.1310   74.9930 C.2   110  VAL110      0.2616
    156  O         31.9700   -8.3240   74.4100 O.2   110  VAL110     -0.2715
    157  CB        35.0470   -8.3340   75.2620 C.3   110  VAL110      0.0290
    158  CG1       34.6310   -6.9160   75.0250 C.3   110  VAL110      0.0023
    159  CG2       35.0900   -8.5900   76.7340 C.3   110  VAL110      0.0023
    160  N         32.2190   -9.8820   75.9690 N.am  111  ARG111     -0.1977
    161  CA        30.8290   -9.8040   76.2940 C.3   111  ARG111      0.1597
    162  C         30.7160   -8.3650   76.6530 C.2   111  ARG111      0.2287
    163  O         31.6470   -7.7950   77.1530 O.2   111  ARG111     -0.2864
    164  CB        30.5050  -10.6650   77.5040 C.3   111  ARG111      0.0334
    165  CG        30.6190  -12.1590   77.2610 C.3   111  ARG111      0.0492
    166  CD        29.5710  -12.9340   78.0360 C.3   111  ARG111      0.2205
    167  NE        29.0190  -14.0430   77.2710 N.pl3 111  ARG111     -0.0865
    168  CZ        29.7230  -15.0820   76.8490 C.cat 111  ARG111      0.5346
    169  NH1       31.0130  -15.1570   77.1040 N.pl3 111  ARG111      0.1354
    170  NH2       29.1350  -16.0450   76.1670 N.pl3 111  ARG111      0.1354
    171  N         31.4830   -7.4820   80.4560 N.3   114  ASN114     -0.1240
    172  CA        32.6240   -7.7660   81.2810 C.3   114  ASN114      0.1653
    173  C         33.4210   -6.5260   81.6050 C.2   114  ASN114      0.2266
    174  O         34.1950   -6.0480   80.8090 O.2   114  ASN114     -0.2867
    175  CB        33.4960   -8.7580   80.5310 C.3   114  ASN114      0.1155
    176  CG        34.8110   -9.0040   81.2060 C.2   114  ASN114      0.2627
    177  OD1       35.6110   -8.0950   81.3780 O.2   114  ASN114     -0.2716
    178  ND2       35.0540  -10.2420   81.5740 N.am  114  ASN114     -0.0877
    179  N         35.9180   -5.7700   83.9590 N.3   116  GLU116     -0.1231
    180  CA        37.3720   -5.7400   84.0880 C.3   116  GLU116      0.1699
    181  C         38.0680   -5.9810   82.7720 C.2   116  GLU116      0.2592
    182  O         39.0260   -5.3050   82.4310 O.2   116  GLU116     -0.2718
    183  CB        37.8990   -6.6530   85.1940 C.3   116  GLU116      0.0402
    184  CG        39.4250   -6.7490   85.2450 C.3   116  GLU116      0.1161
    185  CD        40.1170   -5.6500   86.0370 C.2   116  GLU116      0.3649
    186  OE1       41.2780   -5.3300   85.7180 O.co2 116  GLU116     -0.2457
    187  OE2       39.5190   -5.1200   86.9860 O.co2 116  GLU116     -0.2457
    188  N         37.5660   -6.9330   82.0110 N.am  117  ALA117     -0.1980
    189  CA        38.2160   -7.2560   80.7550 C.3   117  ALA117      0.1597
    190  C         38.2810   -6.0110   79.8800 C.2   117  ALA117      0.2287
    191  O         39.3530   -5.6280   79.4050 O.2   117  ALA117     -0.2864
    192  CB        37.4610   -8.3370   80.0560 C.3   117  ALA117      0.0319
    193  N         37.9740   -2.8500   80.8250 N.3   119  ARG119     -0.1231
    194  CA        38.8740   -1.9850   81.5480 C.3   119  ARG119      0.1694
    195  C         40.2850   -2.4250   81.2730 C.2   119  ARG119      0.2592
    196  O         41.1390   -1.5950   81.0750 O.2   119  ARG119     -0.2718
    197  CB        38.6230   -2.0970   83.0440 C.3   119  ARG119      0.0321
    198  CG        39.0370   -0.8880   83.8690 C.3   119  ARG119      0.0489
    199  CD        38.2710   -0.8940   85.1940 C.3   119  ARG119      0.2205
    200  NE        36.9650   -0.2240   85.0860 N.pl3 119  ARG119     -0.0865
    201  CZ        35.8270   -0.6300   85.6490 C.cat 119  ARG119      0.5346
    202  NH1       35.7700   -1.7470   86.3710 N.pl3 119  ARG119      0.1354
    203  NH2       34.7230    0.0850   85.4700 N.pl3 119  ARG119      0.1354
    204  N         40.5290   -3.7320   81.2670 N.am  120  PHE120     -0.1962
    205  CA        41.8600   -4.2620   81.0110 C.3   120  PHE120      0.1771
    206  C         42.3320   -3.9300   79.5720 C.2   120  PHE120      0.2619
    207  O         43.4910   -3.5570   79.3130 O.2   120  PHE120     -0.2715
    208  CB        41.9150   -5.7930   81.2730 C.3   120  PHE120      0.0574
    209  CG        43.2420   -6.3770   80.9380 C.ar  120  PHE120     -0.0200
    210  CD1       44.3100   -6.0570   81.6870 C.ar  120  PHE120     -0.0042
    211  CD2       43.4430   -7.1130   79.7870 C.ar  120  PHE120     -0.0042
    212  CE1       45.5620   -6.5210   81.3440 C.ar  120  PHE120     -0.0003
    213  CE2       44.6960   -7.5740   79.4440 C.ar  120  PHE120     -0.0003
    214  CZ        45.7590   -7.2880   80.2320 C.ar  120  PHE120     -0.0000
    215  N         41.4330   -4.0840   78.6210 N.am  121  TYR121     -0.1974
    216  CA        41.8090   -3.8490   77.2370 C.3   121  TYR121      0.1639
    217  C         42.0160   -2.3660   77.0000 C.2   121  TYR121      0.2290
    218  O         42.9360   -1.9600   76.2710 O.2   121  TYR121     -0.2864
    219  CB        40.7290   -4.3750   76.2960 C.3   121  TYR121      0.0560
    220  CG        40.5910   -5.8930   76.2860 C.ar  121  TYR121     -0.0198
    221  CD1       41.6610   -6.7040   75.9310 C.ar  121  TYR121     -0.0009
    222  CD2       39.3780   -6.5070   76.6100 C.ar  121  TYR121     -0.0009
    223  CE1       41.5390   -8.0710   75.9220 C.ar  121  TYR121      0.0417
    224  CE2       39.2400   -7.8730   76.5890 C.ar  121  TYR121      0.0417
    225  CZ        40.3270   -8.6430   76.2460 C.ar  121  TYR121      0.1957
    226  OH        40.1880  -10.0010   76.2250 O.3   121  TYR121     -0.2866
    227  N         43.0060   -0.0880   79.1260 N.3   123  LYS123     -0.1245
    228  CA        44.3360    0.2610   79.6260 C.3   123  LYS123      0.1561
    229  C         45.3510   -0.0200   78.5630 C.2   123  LYS123      0.2260
    230  O         46.4210    0.5540   78.5820 O.2   123  LYS123     -0.2867
    231  CB        44.7360   -0.5560   80.8620 C.3   123  LYS123      0.0271
    232  CG        43.8230   -0.4020   82.0770 C.3   123  LYS123      0.0035
    233  CD        43.7370    1.0340   82.5760 C.3   123  LYS123      0.0206
    234  CE        42.7940    1.1560   83.7630 C.3   123  LYS123      0.1093
    235  NZ        42.7600    2.5560   84.2750 N.3   123  LYS123     -0.1314
@<TRIPOS>BOND
     1   152   150   ar
     2    42    40    1
     3    41    40    1
     4   150   149    1
     5   150   151   ar
     6    40    39    1
     7   149   148    1
     8   136   137    1
     9    27    28    1
    10   139   138    2
    11   137   138    1
    12   137   140    1
    13    39    36    1
    14   138   144   am
    15   148   145    1
    16    28    29    1
    17    28    31    1
    18    35    29   am
    19    35    36    1
    20    29    30    2
    21    36    37    1
    22   144   145    1
    23    32    31    1
    24    32    34    1
    25   145   146    1
    26   140   141    1
    27    31    33    1
    28   141   142    1
    29   141   143    1
    30    26    25    1
    31    37    38    2
    32    37    43   am
    33    24    25   ar
    34    24    22   ar
    35   146   147    2
    36   146   153   am
    37    25    23   ar
    38    22    20   ar
    39    43    44    1
    40   153   154    1
    41    49    48    1
    42    23    21   ar
    43    20    21   ar
    44    20    19    1
    45    48    47    1
    46    48    50    1
    47    44    47    1
    48    44    45    1
    49   156   155    2
    50   154   155    1
    51   154   157    1
    52    46    45    2
    53    19    16    1
    54    16    17    1
    55    16    15    1
    56   155   160   am
    57   158   157    1
    58    45    51   am
    59    17    18    2
    60   157   159    1
    61   223   221   ar
    62   223   225   ar
    63   221   220   ar
    64   160   161    1
    65   170   168    1
    66   226   225    1
    67   225   224   ar
    68    51    52    1
    69   218   217    2
    70   220   219    1
    71   220   222   ar
    72   161   162    1
    73   161   164    1
    74   219   216    1
    75   224   222   ar
    76   162   163    2
    77    55    52    1
    78    55    56    1
    79   168   169    1
    80   168   167    2
    81   217   216    1
    82    52    53    1
    83   216   215    1
    84   165   164    1
    85   165   166    1
    86   167   166    1
    87    57    56   ar
    88    57    59   ar
    89    56    58   ar
    90    13    12    1
    91    59    61   ar
    92    58    60   ar
    93    53    54    2
    94    53    62   am
    95   229   230    2
    96   229   228    1
    97   215   206   am
    98    61    60   ar
    99   227   228    1
   100   207   206    2
   101    11    12    1
   102    11     8    1
   103    12    14    1
   104   191   190    2
   105    62    63    1
   106   213   211   ar
   107   213   214   ar
   108   133   132    2
   109   206   205    1
   110   228   231    1
   111   211   209   ar
   112   190   189    1
   113   129   128    2
   114   192   189    1
   115   214   212   ar
   116     9     8    1
   117     9    10    2
   118   171   172    1
   119   175   176    1
   120   175   172    1
   121     8     7    1
   122   132   131    1
   123   189   188    1
   124    63    66    1
   125    63    64    1
   126   174   173    2
   127   193   194    1
   128   231   232    1
   129   209   208    1
   130   209   210   ar
   131   205   204    1
   132   205   208    1
   133   196   195    2
   134   128   130   am
   135   128   127    1
   136   176   177    2
   137   176   178   am
   138   131   130    1
   139   131   134    1
   140   204   195   am
   141   195   194    1
   142   172   173    1
   143   212   210   ar
   144    65    64    2
   145   194   197    1
   146     7     3   am
   147    64    67   am
   148   127   126    1
   149   188   181   am
   150   232   233    1
   151   122   121    2
   152   134   135    1
   153   182   181    2
   154   233   234    1
   155   181   180    1
   156     3     4    2
   157     3     2    1
   158   197   198    1
   159    67    68    1
   160   126   121   am
   161   121   120    1
   162    73    71    1
   163     5     2    1
   164     5     6    1
   165   234   235    1
   166   198   199    1
   167   125   123    1
   168     2     1    1
   169   179   180    1
   170   180   183    1
   171    68    71    1
   172    68    69    1
   173   120   123    1
   174   120   119    1
   175    71    72    1
   176   124   123    1
   177   118   117    2
   178   200   199    1
   179   200   201    2
   180   183   184    1
   181   184   185    1
   182    69    70    2
   183   203   201    1
   184   119   117   am
   185   201   202    1
   186   117   116    1
   187   186   185   ar
   188    94    93    1
   189   185   187   ar
   190    93    92    2
   191    93    95    1
   192    92    91    1
   193   116   115    1
   194    91    90    1
   195   115   109   am
   196    90    89    1
   197    99    98    2
   198    89    86    1
   199   109   110    2
   200   109   108    1
   201    77    76    2
   202    86    85    1
   203    86    87    1
   204    78    79    1
   205    78    75    1
   206    98    97    1
   207    98   107   am
   208    85    76   am
   209    76    75    1
   210   108   107    1
   211   108   111    1
   212    97   100    1
   213    97    96    1
   214    79    81   ar
   215    79    80   ar
   216    81    83   ar
   217   101   102    1
   218   101   100    1
   219   105   104    1
   220   102   103    1
   221    75    74    1
   222   104   103    2
   223   104   106    1
   224    87    96   am
   225    87    88    2
   226    80    82   ar
   227    83    84   ar
   228   111   112    1
   229    82    84   ar
   230   112   113    1
   231   113   114    1
