@<TRIPOS>MOLECULE
tmp/4pv7B00.pdb
 156 153 0 0 0
SMALL
GASTEIGER

@<TRIPOS>ATOM
      1  N        -16.1960   63.3150   -4.4520 N.3    86  ARG86      -0.1231
      2  CA       -15.1640   63.9580   -5.2540 C.3    86  ARG86       0.1694
      3  C        -15.5640   65.3300   -5.7600 C.2    86  ARG86       0.2592
      4  O        -14.7610   66.2590   -5.7380 O.2    86  ARG86      -0.2718
      5  CB       -14.7580   63.0950   -6.4360 C.3    86  ARG86       0.0321
      6  CG       -13.5810   63.6980   -7.1880 C.3    86  ARG86       0.0489
      7  CD       -13.1560   62.8220   -8.3080 C.3    86  ARG86       0.2205
      8  NE       -12.5760   61.5720   -7.8390 N.pl3  86  ARG86      -0.0865
      9  CZ       -11.2850   61.4050   -7.6120 C.cat  86  ARG86       0.5346
     10  NH1      -10.4520   62.4220   -7.8040 N.pl3  86  ARG86       0.1354
     11  NH2      -10.8270   60.2280   -7.2010 N.pl3  86  ARG86       0.1354
     12  N        -16.8020   65.4450   -6.2250 N.am   87  HIS87      -0.1976
     13  CA       -17.2950   66.6970   -6.7730 C.3    87  HIS87       0.1656
     14  C        -18.4750   67.2240   -5.9760 C.2    87  HIS87       0.2291
     15  O        -18.6730   68.4270   -5.8880 O.2    87  HIS87      -0.2864
     16  CB       -17.6970   66.5160   -8.2350 C.3    87  HIS87       0.0771
     17  CG       -16.6630   65.8220   -9.0650 C.ar   87  HIS87       0.0820
     18  ND1      -15.5570   66.4700   -9.5700 N.ar   87  HIS87      -0.2267
     19  CD2      -16.5700   64.5360   -9.4830 C.ar   87  HIS87       0.1154
     20  CE1      -14.8270   65.6130  -10.2650 C.ar   87  HIS87       0.1986
     21  NE2      -15.4230   64.4340  -10.2330 N.ar   87  HIS87      -0.2212
     22  N        -18.5610   59.8910   -9.8920 N.3   166  GLU166     -0.1231
     23  CA       -17.1560   59.4740   -9.9150 C.3   166  GLU166      0.1699
     24  C        -16.6750   59.0500  -11.2950 C.2   166  GLU166      0.2592
     25  O        -15.6130   59.4890  -11.7430 O.2   166  GLU166     -0.2718
     26  CB       -16.9260   58.3370   -8.9190 C.3   166  GLU166      0.0402
     27  CG       -15.5020   57.8160   -8.8740 C.3   166  GLU166      0.1161
     28  CD       -14.5210   58.8460   -8.3570 C.2   166  GLU166      0.3649
     29  OE1      -13.3010   58.5480   -8.3090 O.co2 166  GLU166     -0.2457
     30  OE2      -14.9740   59.9560   -7.9900 O.co2 166  GLU166     -0.2457
     31  N        -17.4760   58.2180  -11.9610 N.am  167  GLU167     -0.1979
     32  CA       -17.0380   57.4850  -13.1500 C.3   167  GLU167      0.1602
     33  C        -17.5840   58.0020  -14.4670 C.2   167  GLU167      0.2287
     34  O        -16.9340   57.8440  -15.4930 O.2   167  GLU167     -0.2864
     35  CB       -17.3690   55.9920  -13.0120 C.3   167  GLU167      0.0415
     36  CG       -16.7290   55.3190  -11.7980 C.3   167  GLU167      0.1163
     37  CD       -15.2240   55.3460  -11.8790 C.2   167  GLU167      0.3649
     38  OE1      -14.7310   55.5340  -13.0180 O.co2 167  GLU167     -0.2457
     39  OE2      -14.5400   55.1920  -10.8340 O.co2 167  GLU167     -0.2457
     40  N        -18.1850   63.2060  -13.8350 N.3   170  SER170     -0.1217
     41  CA       -17.2030   64.0170  -13.0860 C.3   170  SER170      0.1889
     42  C        -17.8650   65.2980  -12.5800 C.2   170  SER170      0.2288
     43  O        -17.2270   66.3400  -12.4200 O.2   170  SER170     -0.2866
     44  CB       -15.9570   64.3460  -13.9170 C.3   170  SER170      0.2089
     45  OG       -15.4450   63.1990  -14.5600 O.3   170  SER170     -0.2183
     46  N        -12.0000   57.6040  -21.4940 N.3   318  PHE318     -0.1241
     47  CA       -12.6180   57.1850  -20.2370 C.3   318  PHE318      0.1605
     48  C        -14.1260   57.1750  -20.3790 C.2   318  PHE318      0.2264
     49  O        -14.8340   56.5180  -19.6130 O.2   318  PHE318     -0.2867
     50  CB       -12.2190   58.1190  -19.1090 C.3   318  PHE318      0.0534
     51  CG       -10.7730   58.0300  -18.7360 C.ar  318  PHE318     -0.0203
     52  CD1      -10.3520   57.1530  -17.7430 C.ar  318  PHE318     -0.0042
     53  CD2       -9.8280   58.8290  -19.3700 C.ar  318  PHE318     -0.0042
     54  CE1       -9.0180   57.0770  -17.3830 C.ar  318  PHE318     -0.0003
     55  CE2       -8.4880   58.7490  -19.0230 C.ar  318  PHE318     -0.0003
     56  CZ        -8.0850   57.8720  -18.0230 C.ar  318  PHE318     -0.0000
     57  N          1.6430   54.5490  -11.3640 N.3   508  TYR508     -0.1241
     58  CA         0.1920   54.5650  -11.4650 C.3   508  TYR508      0.1605
     59  C         -0.2500   53.4830  -12.4510 C.2   508  TYR508      0.2264
     60  O         -0.9490   52.5410  -12.0710 O.2   508  TYR508     -0.2867
     61  CB        -0.3580   55.9390  -11.8620 C.3   508  TYR508      0.0534
     62  CG        -1.8750   55.9470  -11.9240 C.ar  508  TYR508     -0.0201
     63  CD1       -2.5410   55.9690  -13.1510 C.ar  508  TYR508     -0.0009
     64  CD2       -2.6420   55.8880  -10.7500 C.ar  508  TYR508     -0.0009
     65  CE1       -3.9250   55.9490  -13.2140 C.ar  508  TYR508      0.0417
     66  CE2       -4.0290   55.8690  -10.7920 C.ar  508  TYR508      0.0417
     67  CZ        -4.6680   55.9000  -12.0250 C.ar  508  TYR508      0.1957
     68  OH        -6.0510   55.8840  -12.0670 O.3   508  TYR508     -0.2866
     69  N         -3.9170   54.0560   -5.2290 N.3   591  SER591     -0.1202
     70  CA        -5.0710   53.5730   -5.9880 C.3   591  SER591      0.2020
     71  C         -4.7420   52.4200   -6.9420 C.2   591  SER591      0.2618
     72  O         -4.5090   51.2850   -6.5120 O.2   591  SER591     -0.2717
     73  CB        -5.7200   54.7190   -6.7670 C.3   591  SER591      0.2103
     74  OG        -6.5240   55.4950   -5.9200 O.3   591  SER591     -0.2182
     75  N         -4.7550   52.7170   -8.2410 N.am  592  TYR592     -0.1975
     76  CA        -4.4190   51.7300   -9.2340 C.3   592  TYR592      0.1639
     77  C         -2.9420   51.4540   -9.0550 C.2   592  TYR592      0.2290
     78  O         -2.5190   50.2920   -9.0300 O.2   592  TYR592     -0.2864
     79  CB        -4.7140   52.2220  -10.6470 C.3   592  TYR592      0.0560
     80  CG        -4.8100   51.0880  -11.6350 C.ar  592  TYR592     -0.0198
     81  CD1       -6.0430   50.6720  -12.1270 C.ar  592  TYR592     -0.0009
     82  CD2       -3.6680   50.4040  -12.0580 C.ar  592  TYR592     -0.0009
     83  CE1       -6.1360   49.6170  -13.0340 C.ar  592  TYR592      0.0417
     84  CE2       -3.7500   49.3440  -12.9530 C.ar  592  TYR592      0.0417
     85  CZ        -4.9870   48.9530  -13.4400 C.ar  592  TYR592      0.1957
     86  OH        -5.0780   47.9050  -14.3330 O.3   592  TYR592     -0.2866
     87  N         -6.5700   48.9040   -4.8850 N.3   617  VAL617     -0.1245
     88  CA        -7.5340   47.8590   -5.2570 C.3   617  VAL617      0.1561
     89  C         -6.8160   46.4980   -5.1030 C.2   617  VAL617      0.2260
     90  O         -5.6270   46.3700   -5.4230 O.2   617  VAL617     -0.2867
     91  CB        -8.1610   48.0820   -6.6790 C.3   617  VAL617      0.0252
     92  CG1       -8.8170   46.8200   -7.2300 C.3   617  VAL617      0.0019
     93  CG2       -9.1870   49.1860   -6.6270 C.3   617  VAL617      0.0019
     94  N        -10.7320   42.9750   -8.5320 N.3   620  TRP620     -0.1241
     95  CA       -11.6170   43.8600   -9.2950 C.3   620  TRP620      0.1605
     96  C        -13.0990   43.7360   -8.9790 C.2   620  TRP620      0.2264
     97  O        -13.8660   44.6690   -9.1870 O.2   620  TRP620     -0.2867
     98  CB       -11.3410   43.7530  -10.7950 C.3   620  TRP620      0.0550
     99  CG       -10.0400   44.3630  -11.1100 C.ar  620  TRP620      0.0003
    100  CD1       -8.9070   43.7240  -11.5160 C.ar  620  TRP620      0.0946
    101  CD2       -9.6990   45.7420  -10.9740 C.ar  620  TRP620      0.0152
    102  NE1       -7.8840   44.6280  -11.6670 N.ar  620  TRP620     -0.2442
    103  CE2       -8.3450   45.8760  -11.3420 C.ar  620  TRP620      0.0810
    104  CE3      -10.4110   46.8820  -10.5800 C.ar  620  TRP620      0.0012
    105  CZ2       -7.6830   47.1110  -11.3340 C.ar  620  TRP620      0.0191
    106  CZ3       -9.7550   48.1120  -10.5650 C.ar  620  TRP620      0.0001
    107  CH2       -8.4030   48.2150  -10.9440 C.ar  620  TRP620      0.0015
    108  N        -14.3180   46.6230   -6.8470 N.3   623  TYR623     -0.1241
    109  CA       -14.3470   48.0100   -7.2840 C.3   623  TYR623      0.1605
    110  C        -15.6320   48.3640   -8.0300 C.2   623  TYR623      0.2264
    111  O        -16.2880   47.4790   -8.5600 O.2   623  TYR623     -0.2867
    112  CB       -13.0980   48.3790   -8.0960 C.3   623  TYR623      0.0534
    113  CG       -12.8890   49.8810   -8.1570 C.ar  623  TYR623     -0.0201
    114  CD1      -12.8330   50.6440   -6.9740 C.ar  623  TYR623     -0.0009
    115  CD2      -12.7820   50.5440   -9.3860 C.ar  623  TYR623     -0.0009
    116  CE1      -12.6760   52.0150   -7.0220 C.ar  623  TYR623      0.0417
    117  CE2      -12.6200   51.9260   -9.4420 C.ar  623  TYR623      0.0417
    118  CZ       -12.5690   52.6560   -8.2580 C.ar  623  TYR623      0.1957
    119  OH       -12.4040   54.0320   -8.2980 O.3   623  TYR623     -0.2866
    120  N        -16.1870   51.5560  -13.8240 N.3   627  TYR627     -0.1241
    121  CA       -14.7530   51.6090  -14.1040 C.3   627  TYR627      0.1605
    122  C        -14.2340   50.2340  -14.4290 C.2   627  TYR627      0.2264
    123  O        -13.6020   50.0270  -15.4690 O.2   627  TYR627     -0.2867
    124  CB       -13.9640   52.1470  -12.9300 C.3   627  TYR627      0.0534
    125  CG       -12.4900   52.3310  -13.2240 C.ar  627  TYR627     -0.0201
    126  CD1      -12.0450   53.4390  -13.9310 C.ar  627  TYR627     -0.0009
    127  CD2      -11.5420   51.4100  -12.7780 C.ar  627  TYR627     -0.0009
    128  CE1      -10.7010   53.6370  -14.1840 C.ar  627  TYR627      0.0417
    129  CE2      -10.1900   51.5960  -13.0340 C.ar  627  TYR627      0.0417
    130  CZ        -9.7840   52.7180  -13.7370 C.ar  627  TYR627      0.1957
    131  OH        -8.4620   52.9430  -14.0150 O.3   627  TYR627     -0.2866
    132  N        -14.3240   55.3560   -2.0260 N.3   671  ASN671     -0.1225
    133  CA       -13.9420   55.0060   -3.3870 C.3   671  ASN671      0.1785
    134  C        -13.3660   53.5890   -3.4760 C.2   671  ASN671      0.2597
    135  O        -14.0520   52.6560   -3.8980 O.2   671  ASN671     -0.2718
    136  CB       -12.9500   56.0320   -3.9130 C.3   671  ASN671      0.1169
    137  CG       -12.8800   56.0530   -5.4150 C.2   671  ASN671      0.2627
    138  OD1      -12.7090   57.1030   -6.0100 O.2   671  ASN671     -0.2716
    139  ND2      -13.0230   54.9030   -6.0400 N.am  671  ASN671     -0.0877
    140  N        -12.0970   53.4460   -3.0850 N.am  672  VAL672     -0.1980
    141  CA       -11.4330   52.1560   -2.9410 C.3   672  VAL672      0.1595
    142  C        -11.6670   51.7520   -1.4940 C.2   672  VAL672      0.2287
    143  O        -11.1050   52.3320   -0.5700 O.2   672  VAL672     -0.2864
    144  CB        -9.9180   52.2740   -3.2460 C.3   672  VAL672      0.0276
    145  CG1       -9.2360   50.9500   -3.0580 C.3   672  VAL672      0.0022
    146  CG2       -9.6870   52.7710   -4.6540 C.3   672  VAL672      0.0022
    147  N        -10.3120   58.6820    0.5860 N.3   701  HIS701     -0.1241
    148  CA        -9.4660   58.1170   -0.4420 C.3   701  HIS701      0.1621
    149  C         -8.2950   58.9900   -0.7790 C.2   701  HIS701      0.2264
    150  O         -7.3340   58.5220   -1.3920 O.2   701  HIS701     -0.2867
    151  CB       -10.2430   57.8230   -1.7060 C.3   701  HIS701      0.0745
    152  CG        -9.4260   57.1230   -2.7350 C.ar  701  HIS701      0.0817
    153  ND1       -8.8720   55.8830   -2.5150 N.ar  701  HIS701     -0.2268
    154  CD2       -9.0410   57.4950   -3.9770 C.ar  701  HIS701      0.1154
    155  CE1       -8.1960   55.5130   -3.5850 C.ar  701  HIS701      0.1986
    156  NE2       -8.2890   56.4700   -4.4900 N.ar  701  HIS701     -0.2212
@<TRIPOS>BOND
     1    46    47    1
     2    48    47    1
     3    48    49    2
     4    47    50    1
     5    53    55   ar
     6    53    51   ar
     7    50    51    1
     8    55    56   ar
     9    51    52   ar
    10    56    54   ar
    11    52    54   ar
    12    34    33    2
    13   123   122    2
    14    45    44    1
    15    33    32    1
    16   122   121    1
    17    86    85    1
    18   128   126   ar
    19   128   130   ar
    20   121   120    1
    21   121   124    1
    22   131   130    1
    23   126   125   ar
    24    44    41    1
    25    40    41    1
    26   130   129   ar
    27    85    83   ar
    28    85    84   ar
    29   125   124    1
    30   125   127   ar
    31    65    63   ar
    32    65    67   ar
    33    63    62   ar
    34    32    35    1
    35    32    31    1
    36    41    42    1
    37   129   127   ar
    38    83    81   ar
    39    38    37   ar
    40    35    36    1
    41    84    82   ar
    42    42    43    2
    43    59    60    2
    44    59    58    1
    45    81    80   ar
    46    68    67    1
    47    82    80   ar
    48    67    66   ar
    49    31    24   am
    50    62    61    1
    51    62    64   ar
    52    37    36    1
    53    37    39   ar
    54    61    58    1
    55    25    24    2
    56   102   100   ar
    57   102   103   ar
    58    80    79    1
    59   100    99   ar
    60    58    57    1
    61   103   105   ar
    62   103   101   ar
    63   105   107   ar
    64    24    23    1
    65    99   101   ar
    66    99    98    1
    67   101   104   ar
    68   107   106   ar
    69    98    95    1
    70    66    64   ar
    71    79    76    1
    72   104   106   ar
    73    20    21   ar
    74    20    18   ar
    75    21    19   ar
    76    23    22    1
    77    23    26    1
    78    18    17   ar
    79    19    17   ar
    80   117   115   ar
    81   117   118   ar
    82   115   113   ar
    83    95    96    1
    84    95    94    1
    85    76    77    1
    86    76    75    1
    87    97    96    2
    88    17    16    1
    89    77    78    2
    90    26    27    1
    91    27    28    1
    92   111   110    2
    93    28    29   ar
    94    28    30   ar
    95     7     8    1
    96     7     6    1
    97   119   118    1
    98   118   116   ar
    99    75    71   am
   100    16    13    1
   101   113   112    1
   102   113   114   ar
   103   112   109    1
   104   110   109    1
   105     8     9    2
   106    10     9    1
   107     9    11    1
   108   109   108    1
   109    92    91    1
   110     6     5    1
   111   116   114   ar
   112    71    72    2
   113    71    70    1
   114    13    12    1
   115    13    14    1
   116    73    70    1
   117    73    74    1
   118    91    93    1
   119    91    88    1
   120     5     2    1
   121    12     3   am
   122   139   137   am
   123   138   137    2
   124    70    69    1
   125    14    15    2
   126     3     4    2
   127     3     2    1
   128    90    89    2
   129   137   136    1
   130    88    89    1
   131    88    87    1
   132     2     1    1
   133   146   144    1
   134   156   154   ar
   135   156   155   ar
   136   154   152   ar
   137   136   133    1
   138   135   134    2
   139   155   153   ar
   140   134   133    1
   141   134   140   am
   142   133   132    1
   143   144   145    1
   144   144   141    1
   145   140   141    1
   146   141   142    1
   147   152   153   ar
   148   152   151    1
   149   151   148    1
   150   142   143    2
   151   150   149    2
   152   149   148    1
   153   148   147    1
