@<TRIPOS>MOLECULE
tmp/4pvfA00.pdb
 89 85 0 0 0
SMALL
GASTEIGER

@<TRIPOS>ATOM
      1  N         37.1580   57.8320    0.7080 N.3   183  THR183     -0.1218
      2  CA        38.1240   58.6330   -0.0220 C.3   183  THR183      0.1862
      3  C         37.6860   58.9850   -1.4280 C.2   183  THR183      0.2287
      4  O         36.8270   58.3240   -2.0140 O.2   183  THR183     -0.2866
      5  CB        39.4720   57.8870   -0.1540 C.3   183  THR183      0.1770
      6  OG1       39.3110   56.7220   -0.9890 O.3   183  THR183     -0.2211
      7  CG2       40.0150   57.5010    1.1920 C.3   183  THR183      0.0375
      8  N         42.4830   57.8480   -3.2550 N.3   186  TYR186     -0.1241
      9  CA        43.3200   56.9540   -2.4480 C.3   186  TYR186      0.1605
     10  C         43.4050   55.6100   -3.1470 C.2   186  TYR186      0.2264
     11  O         42.4110   55.0570   -3.5340 O.2   186  TYR186     -0.2867
     12  CB        42.7420   56.8130   -1.0440 C.3   186  TYR186      0.0534
     13  CG        43.5180   55.9920    0.0210 C.ar  186  TYR186     -0.0201
     14  CD1       44.7480   56.4280    0.5430 C.ar  186  TYR186     -0.0009
     15  CD2       42.9350   54.8720    0.6000 C.ar  186  TYR186     -0.0009
     16  CE1       45.3890   55.7410    1.5560 C.ar  186  TYR186      0.0417
     17  CE2       43.5660   54.1900    1.6250 C.ar  186  TYR186      0.0417
     18  CZ        44.8180   54.6330    2.0840 C.ar  186  TYR186      0.1957
     19  OH        45.5110   53.9870    3.0740 O.3   186  TYR186     -0.2866
     20  N         44.4080   52.6080   -2.1240 N.3   188  ARG188     -0.1231
     21  CA        44.5230   51.3830   -1.3400 C.3   188  ARG188      0.1694
     22  C         43.2630   51.0580   -0.5370 C.2   188  ARG188      0.2592
     23  O         42.3800   51.8720   -0.4450 O.2   188  ARG188     -0.2718
     24  CB        45.6710   51.5070   -0.3420 C.3   188  ARG188      0.0321
     25  CG        47.0450   51.5860   -0.9500 C.3   188  ARG188      0.0489
     26  CD        47.5410   50.2330   -1.4110 C.3   188  ARG188      0.2205
     27  NE        48.7400   50.3860   -2.2590 N.pl3 188  ARG188     -0.0865
     28  CZ        49.3800   49.3870   -2.8630 C.cat 188  ARG188      0.5346
     29  NH1       48.9380   48.1380   -2.7250 N.pl3 188  ARG188      0.1354
     30  NH2       50.4480   49.6610   -3.6010 N.pl3 188  ARG188      0.1354
     31  N         43.2110   49.8860    0.0790 N.am  189  LEU189     -0.1966
     32  CA        42.0800   49.5240    0.9360 C.3   189  LEU189      0.1728
     33  C         42.1840   50.1780    2.3070 C.2   189  LEU189      0.2616
     34  O         43.2560   50.3240    2.8510 O.2   189  LEU189     -0.2715
     35  CB        41.9290   48.0090    1.0760 C.3   189  LEU189      0.0311
     36  CG        42.0330   47.1950   -0.2250 C.3   189  LEU189      0.0022
     37  CD1       41.7280   45.7140   -0.0130 C.3   189  LEU189      0.0001
     38  CD2       41.1320   47.7570   -1.3060 C.3   189  LEU189      0.0001
     39  N         41.0450   50.5530    2.8570 N.am  190  ILE190     -0.1977
     40  CA        40.9420   51.1930    4.1790 C.3   190  ILE190      0.1596
     41  C         40.7480   50.1630    5.2790 C.2   190  ILE190      0.2287
     42  O         39.9820   49.1980    5.1210 O.2   190  ILE190     -0.2864
     43  CB        39.7320   52.1340    4.2190 C.3   190  ILE190      0.0276
     44  CG1       39.9180   53.2470    3.1960 C.3   190  ILE190      0.0022
     45  CG2       39.5530   52.7810    5.5680 C.3   190  ILE190      0.0022
     46  CD1       38.6680   54.0750    2.9370 C.3   190  ILE190      0.0001
     47  N         38.9730   49.3100    7.8290 N.3   192  TYR192     -0.1241
     48  CA        37.7180   49.5660    8.4810 C.3   192  TYR192      0.1605
     49  C         37.7680   49.0390    9.8990 C.2   192  TYR192      0.2264
     50  O         37.2790   49.6680   10.7990 O.2   192  TYR192     -0.2867
     51  CB        36.5330   49.0190    7.6710 C.3   192  TYR192      0.0534
     52  CG        36.3980   49.6820    6.3110 C.ar  192  TYR192     -0.0201
     53  CD1       36.1470   51.0420    6.1980 C.ar  192  TYR192     -0.0009
     54  CD2       36.5310   48.9470    5.1280 C.ar  192  TYR192     -0.0009
     55  CE1       36.0290   51.6660    4.9380 C.ar  192  TYR192      0.0417
     56  CE2       36.4250   49.5510    3.8820 C.ar  192  TYR192      0.0417
     57  CZ        36.1640   50.9180    3.7870 C.ar  192  TYR192      0.1957
     58  OH        36.0970   51.5090    2.5580 O.3   192  TYR192     -0.2866
     59  N         34.0250   53.3110   -4.4230 N.3   213  ILE213     -0.1245
     60  CA        34.2990   51.8800   -4.4810 C.3   213  ILE213      0.1561
     61  C         33.0650   51.0150   -4.3760 C.2   213  ILE213      0.2260
     62  O         33.1900   49.8240   -4.2060 O.2   213  ILE213     -0.2867
     63  CB        35.2970   51.4700   -3.3610 C.3   213  ILE213      0.0252
     64  CG1       34.6700   51.6630   -1.9660 C.3   213  ILE213      0.0019
     65  CG2       36.6010   52.2490   -3.4830 C.3   213  ILE213      0.0019
     66  CD1       35.5760   51.2830   -0.8410 C.3   213  ILE213      0.0001
     67  N         36.4870   43.2630   -3.2840 N.3   222  ILE222     -0.1231
     68  CA        37.2470   43.8370   -2.1910 C.3   222  ILE222      0.1678
     69  C         36.4210   43.7210   -0.9330 C.2   222  ILE222      0.2434
     70  O         35.2080   43.4930   -0.9880 O.2   222  ILE222     -0.2733
     71  CB        37.6320   45.3330   -2.3940 C.3   222  ILE222      0.0265
     72  CG1       36.4130   46.2790   -2.3970 C.3   222  ILE222      0.0019
     73  CG2       38.4160   45.5240   -3.6800 C.3   222  ILE222      0.0020
     74  CD1       36.8010   47.7440   -2.6230 C.3   222  ILE222      0.0001
     75  N         37.0660   43.8800    0.2140 N.am  223  PRO223     -0.2729
     76  CA        36.3160   43.7210    1.4590 C.3   223  PRO223      0.1401
     77  C         35.2320   44.7960    1.6510 C.2   223  PRO223      0.2269
     78  O         35.3930   45.9180    1.1900 O.2   223  PRO223     -0.2865
     79  CB        37.3950   43.8390    2.5480 C.3   223  PRO223      0.0296
     80  CG        38.7040   43.6690    1.8580 C.3   223  PRO223      0.0237
     81  CD        38.5020   44.1390    0.4430 C.3   223  PRO223      0.0939
     82  N         42.8030   48.8630   -5.8980 N.3   328  ASN328     -0.1240
     83  CA        41.4770   49.2530   -6.3790 C.3   328  ASN328      0.1653
     84  C         41.4680   49.7960   -7.8210 C.2   328  ASN328      0.2266
     85  O         42.2330   49.3400   -8.7160 O.2   328  ASN328     -0.2867
     86  CB        40.7690   50.2150   -5.3800 C.3   328  ASN328      0.1155
     87  CG        41.4660   51.5610   -5.2000 C.2   328  ASN328      0.2627
     88  OD1       42.0880   52.1220   -6.0970 O.2   328  ASN328     -0.2716
     89  ND2       41.3230   52.1010   -4.0170 N.am  328  ASN328     -0.0877
@<TRIPOS>BOND
     1    85    84    2
     2    84    83    1
     3    83    82    1
     4    83    86    1
     5    88    87    2
     6    86    87    1
     7    87    89   am
     8    60    59    1
     9    60    61    1
    10    60    63    1
    11    61    62    2
    12    73    71    1
    13    30    28    1
    14    11    10    2
    15    65    63    1
    16    63    64    1
    17    67    68    1
    18     8     9    1
    19    10     9    1
    20    28    29    1
    21    28    27    2
    22    74    72    1
    23     9    12    1
    24    72    71    1
    25    71    68    1
    26    27    26    1
    27    68    69    1
    28    20    21    1
    29     4     3    2
    30    64    66    1
    31     3     2    1
    32    26    25    1
    33    21    22    1
    34    21    24    1
    35    38    36    1
    36    12    13    1
    37     6     5    1
    38    70    69    2
    39    25    24    1
    40    69    75   am
    41    22    23    2
    42    22    31   am
    43    36    37    1
    44    36    35    1
    45     5     2    1
    46     5     7    1
    47     2     1    1
    48    13    14   ar
    49    13    15   ar
    50    31    32    1
    51    75    81    1
    52    75    76    1
    53    81    80    1
    54    14    16   ar
    55    15    17   ar
    56    32    35    1
    57    32    33    1
    58    78    77    2
    59    76    77    1
    60    76    79    1
    61    16    18   ar
    62    17    18   ar
    63    80    79    1
    64    18    19    1
    65    33    34    2
    66    33    39   am
    67    58    57    1
    68    39    40    1
    69    46    44    1
    70    44    43    1
    71    57    56   ar
    72    57    55   ar
    73    56    54   ar
    74    40    43    1
    75    40    41    1
    76    43    45    1
    77    55    53   ar
    78    42    41    2
    79    54    52   ar
    80    53    52   ar
    81    52    51    1
    82    51    48    1
    83    47    48    1
    84    48    49    1
    85    49    50    2
