@<TRIPOS>MOLECULE
tmp/4pvgA00.pdb
 134 127 0 0 0
SMALL
GASTEIGER

@<TRIPOS>ATOM
      1  N         -2.7610   16.7790   -0.5610 N.3    29  TYR29      -0.1241
      2  CA        -2.6200   17.7990    0.4750 C.3    29  TYR29       0.1605
      3  C         -1.3090   18.5460    0.2570 C.2    29  TYR29       0.2264
      4  O         -0.2260   17.9590    0.2850 O.2    29  TYR29      -0.2867
      5  CB        -2.6470   17.1570    1.8680 C.3    29  TYR29       0.0534
      6  CG        -3.9410   16.4340    2.1570 C.ar   29  TYR29      -0.0201
      7  CD1       -5.1550   17.1160    2.1510 C.ar   29  TYR29      -0.0009
      8  CD2       -3.9570   15.0660    2.4210 C.ar   29  TYR29      -0.0009
      9  CE1       -6.3510   16.4560    2.4010 C.ar   29  TYR29       0.0417
     10  CE2       -5.1520   14.3940    2.6730 C.ar   29  TYR29       0.0417
     11  CZ        -6.3400   15.0940    2.6620 C.ar   29  TYR29       0.1957
     12  OH        -7.5200   14.4410    2.9170 O.3    29  TYR29      -0.2866
     13  N          1.4210   17.9050    2.9190 N.3    32  ILE32      -0.1245
     14  CA         2.0250   16.5880    3.0660 C.3    32  ILE32       0.1561
     15  C          2.8620   16.2250    1.8380 C.2    32  ILE32       0.2260
     16  O          2.3290   16.0310    0.7480 O.2    32  ILE32      -0.2867
     17  CB         0.9450   15.5390    3.3050 C.3    32  ILE32       0.0252
     18  CG1        0.0420   16.0090    4.4510 C.3    32  ILE32       0.0019
     19  CG2        1.5880   14.2100    3.6460 C.3    32  ILE32       0.0019
     20  CD1       -1.1870   15.1730    4.6650 C.3    32  ILE32       0.0001
     21  N        -16.7060    9.2910    4.8380 N.3   101  ARG101     -0.1245
     22  CA       -17.3720   10.4530    5.4000 C.3   101  ARG101      0.1563
     23  C        -17.8240   11.4260    4.3160 C.2   101  ARG101      0.2260
     24  O        -17.7960   12.6430    4.5050 O.2   101  ARG101     -0.2867
     25  CB       -16.4270   11.1420    6.3920 C.3   101  ARG101      0.0307
     26  CG       -15.0040   11.2350    5.8730 C.3   101  ARG101      0.0489
     27  CD       -13.9890   11.4800    6.9500 C.3   101  ARG101      0.2205
     28  NE       -14.5970   11.4440    8.2760 N.pl3 101  ARG101     -0.0865
     29  CZ       -13.9120   11.3020    9.4050 C.cat 101  ARG101      0.5346
     30  NH1      -12.5950   11.1730    9.3650 N.pl3 101  ARG101      0.1354
     31  NH2      -14.5420   11.2960   10.5730 N.pl3 101  ARG101      0.1354
     32  N        -16.3620   11.9560    1.4200 N.3   103  LYS103     -0.1245
     33  CA       -15.2940   12.5410    0.6230 C.3   103  LYS103      0.1561
     34  C        -14.4200   11.4910   -0.0390 C.2   103  LYS103      0.2260
     35  O        -14.2860   10.3730    0.4490 O.2   103  LYS103     -0.2867
     36  CB       -14.4340   13.4860    1.4850 C.3   103  LYS103      0.0271
     37  CG       -14.7130   13.4360    3.0010 C.3   103  LYS103      0.0035
     38  CD       -13.7180   12.5470    3.7530 C.3   103  LYS103      0.0206
     39  CE       -12.3200   13.1660    3.8070 C.3   103  LYS103      0.1093
     40  NZ       -12.2940   14.3630    4.6890 N.3   103  LYS103     -0.1314
     41  N        -11.3860    9.5720   -0.7370 N.3   105  LYS105     -0.1245
     42  CA       -10.1130    9.2580   -0.1110 C.3   105  LYS105      0.1561
     43  C         -9.2150    8.6800   -1.1960 C.2   105  LYS105      0.2260
     44  O         -8.0060    8.8910   -1.1980 O.2   105  LYS105     -0.2867
     45  CB       -10.3030    8.2270    0.9970 C.3   105  LYS105      0.0271
     46  CG       -11.1600    8.7020    2.1600 C.3   105  LYS105      0.0035
     47  CD       -10.4280    9.7210    3.0360 C.3   105  LYS105      0.0206
     48  CE       -11.2240   10.0190    4.3100 C.3   105  LYS105      0.1093
     49  NZ       -10.5970   11.0290    5.2160 N.3   105  LYS105     -0.1314
     50  N        -12.4380   -0.7020    8.2320 N.3   162  TRP162     -0.1241
     51  CA       -11.9360    0.3740    9.0950 C.3   162  TRP162      0.1605
     52  C        -12.9160    1.5350    9.2360 C.2   162  TRP162      0.2264
     53  O        -13.2550    2.1960    8.2520 O.2   162  TRP162     -0.2867
     54  CB       -10.5980    0.8950    8.5730 C.3   162  TRP162      0.0550
     55  CG        -9.9140    1.8790    9.4900 C.ar  162  TRP162      0.0003
     56  CD1      -10.3130    3.1600    9.7770 C.ar  162  TRP162      0.0946
     57  CD2       -8.6790    1.6770   10.1900 C.ar  162  TRP162      0.0152
     58  NE1       -9.3980    3.7640   10.6040 N.ar  162  TRP162     -0.2442
     59  CE2       -8.3850    2.8790   10.8730 C.ar  162  TRP162      0.0810
     60  CE3       -7.7900    0.6000   10.3010 C.ar  162  TRP162      0.0012
     61  CZ2       -7.2330    3.0320   11.6550 C.ar  162  TRP162      0.0191
     62  CZ3       -6.6480    0.7540   11.0760 C.ar  162  TRP162      0.0001
     63  CH2       -6.3800    1.9610   11.7420 C.ar  162  TRP162      0.0015
     64  N        -14.5680    6.9620   11.6800 N.3   165  HIS165     -0.1241
     65  CA       -14.0410    7.7710   12.7560 C.3   165  HIS165      0.1621
     66  C        -13.2710    6.9110   13.7370 C.2   165  HIS165      0.2264
     67  O        -13.6860    5.7970   14.0660 O.2   165  HIS165     -0.2867
     68  CB       -15.1870    8.4870   13.4760 C.3   165  HIS165      0.0745
     69  CG       -14.7420    9.6430   14.3160 C.ar  165  HIS165      0.0817
     70  ND1      -13.9610    9.4890   15.4430 N.ar  165  HIS165     -0.2268
     71  CD2      -14.9510   10.9740   14.1820 C.ar  165  HIS165      0.1154
     72  CE1      -13.7100   10.6760   15.9660 C.ar  165  HIS165      0.1986
     73  NE2      -14.2990   11.5940   15.2190 N.ar  165  HIS165     -0.2212
     74  N         -3.5580    5.3830    1.8150 N.3   198  CYS198     -0.1221
     75  CA        -4.7750    5.8830    2.4450 C.3   198  CYS198      0.1808
     76  C         -4.8990    7.2850    1.8980 C.2   198  CYS198      0.2602
     77  O         -4.0510    7.6980    1.1160 O.2   198  CYS198     -0.2717
     78  CB        -4.6570    5.8940    3.9850 C.3   198  CYS198      0.0970
     79  SG        -3.2940    6.8790    4.7390 S.3   198  CYS198     -0.0800
     80  N         -5.9360    8.0180    2.2830 N.am  199  SER199     -0.1938
     81  CA        -6.1090    9.3740    1.7680 C.3   199  SER199      0.2055
     82  C         -4.7910   10.0930    1.5350 C.2   199  SER199      0.2643
     83  O         -4.4270   10.3410    0.3870 O.2   199  SER199     -0.2714
     84  CB        -6.9970   10.1970    2.7020 C.3   199  SER199      0.2130
     85  OG        -6.8450    9.7780    4.0450 O.3   199  SER199     -0.2179
     86  N         -4.0650   10.4030    2.6070 N.am  200  ALA200     -0.1963
     87  CA        -2.7880   11.1110    2.4820 C.3   200  ALA200      0.1728
     88  C         -1.5820   10.1890    2.4940 C.2   200  ALA200      0.2616
     89  O         -0.4910   10.5810    2.0900 O.2   200  ALA200     -0.2715
     90  CB        -2.6530   12.1440    3.5900 C.3   200  ALA200      0.0334
     91  N         -1.7710    8.9620    2.9640 N.am  201  GLY201     -0.1955
     92  CA        -0.6600    8.0300    3.0050 C.3   201  GLY201      0.1869
     93  C          0.3600    8.2160    4.1290 C.2   201  GLY201      0.2309
     94  O          1.5480    7.9340    3.9380 O.2   201  GLY201     -0.2863
     95  N         -1.1040    8.7670    7.9560 N.3   203  GLY203     -0.1210
     96  CA        -1.7660    8.4040    9.2010 C.3   203  GLY203      0.1956
     97  C         -1.9890    6.9030    9.3030 C.2   203  GLY203      0.2611
     98  O         -1.1310    6.1540    9.8040 O.2   203  GLY203     -0.2717
     99  N         -3.1510    6.4700    8.8100 N.am  204  ARG204     -0.1979
    100  CA        -3.5440    5.0700    8.7900 C.3   204  ARG204      0.1597
    101  C         -2.4880    4.2320    8.0980 C.2   204  ARG204      0.2287
    102  O         -2.1890    3.1280    8.5230 O.2   204  ARG204     -0.2864
    103  CB        -4.8620    4.9270    8.0540 C.3   204  ARG204      0.0334
    104  CG        -5.4400    3.5380    8.0480 C.3   204  ARG204      0.0492
    105  CD        -6.7230    3.5400    7.2610 C.3   204  ARG204      0.2205
    106  NE        -7.6160    4.6290    7.6460 N.pl3 204  ARG204     -0.0865
    107  CZ        -8.8480    4.7760    7.1690 C.cat 204  ARG204      0.5346
    108  NH1       -9.3190    3.8990    6.2900 N.pl3 204  ARG204      0.1354
    109  NH2       -9.6180    5.7820    7.5750 N.pl3 204  ARG204      0.1354
    110  N         -0.6410    9.9360   12.7540 N.3   245  GLN245     -0.1231
    111  CA        -1.0300   11.2960   13.1220 C.3   245  GLN245      0.1698
    112  C         -1.9080   11.4520   14.3410 C.2   245  GLN245      0.2592
    113  O         -2.2880   12.5760   14.6600 O.2   245  GLN245     -0.2718
    114  CB        -1.7720   11.9900   11.9800 C.3   245  GLN245      0.0381
    115  CG        -1.2510   11.7820   10.5930 C.3   245  GLN245      0.0905
    116  CD        -2.3740   11.9440    9.5950 C.2   245  GLN245      0.2608
    117  OE1       -3.4150   11.3100    9.7350 O.2   245  GLN245     -0.2717
    118  NE2       -2.1770   12.7940    8.5900 N.am  245  GLN245     -0.0878
    119  N         -2.2770   10.3720   15.0130 N.am  246  THR246     -0.1953
    120  CA        -3.1200   10.5670   16.1810 C.3   246  THR246      0.1897
    121  C         -2.6700    9.7080   17.3520 C.2   246  THR246      0.2313
    122  O         -1.8500    8.8110   17.1930 O.2   246  THR246     -0.2863
    123  CB        -4.6390   10.3050   15.8500 C.3   246  THR246      0.1794
    124  OG1       -4.9390    8.9070   15.9420 O.3   246  THR246     -0.2208
    125  CG2       -4.9660   10.7870   14.4540 C.3   246  THR246      0.0378
    126  N         -4.4150    6.2390   17.0170 N.3   249  GLN249     -0.1245
    127  CA        -3.7190    5.3610   16.0980 C.3   249  GLN249      0.1566
    128  C         -2.4570    4.8770   16.7870 C.2   249  GLN249      0.2260
    129  O         -1.9540    3.7940   16.4810 O.2   249  GLN249     -0.2867
    130  CB        -3.3360    6.0950   14.8160 C.3   249  GLN249      0.0367
    131  CG        -4.4920    6.8420   14.1900 C.3   249  GLN249      0.0905
    132  CD        -4.2010    7.3450   12.7920 C.2   249  GLN249      0.2608
    133  OE1       -3.0620    7.6620   12.4450 O.2   249  GLN249     -0.2717
    134  NE2       -5.2470    7.4350   11.9860 N.am  249  GLN249     -0.0878
@<TRIPOS>BOND
     1    44    43    2
     2    43    42    1
     3    41    42    1
     4     1     2    1
     5    42    45    1
     6    34    35    2
     7    34    33    1
     8     3     4    2
     9     3     2    1
    10    83    82    2
    11     2     5    1
    12    33    32    1
    13    33    36    1
    14    16    15    2
    15    45    46    1
    16    77    76    2
    17    36    37    1
    18    82    81    1
    19    82    86   am
    20    81    80    1
    21    81    84    1
    22    74    75    1
    23    15    14    1
    24     5     6    1
    25    76    80   am
    26    76    75    1
    27    89    88    2
    28     7     6   ar
    29     7     9   ar
    30     6     8   ar
    31    46    47    1
    32     9    11   ar
    33     8    10   ar
    34    75    78    1
    35    87    88    1
    36    87    86    1
    37    87    90    1
    38    88    91   am
    39    11    10   ar
    40    11    12    1
    41    84    85    1
    42    13    14    1
    43    91    92    1
    44    37    38    1
    45    92    93    1
    46    47    48    1
    47    14    17    1
    48    17    19    1
    49    17    18    1
    50    38    39    1
    51    39    40    1
    52    94    93    2
    53    78    79    1
    54    48    49    1
    55    23    24    2
    56    23    22    1
    57    18    20    1
    58    21    22    1
    59    22    25    1
    60    26    25    1
    61    26    27    1
    62   108   107    1
    63    27    28    1
    64   107   109    1
    65   107   106    2
    66   105   106    1
    67   105   104    1
    68    95    96    1
    69   104   103    1
    70   103   100    1
    71   101   102    2
    72   101   100    1
    73    50    51    1
    74    53    52    2
    75    28    29    2
    76    54    51    1
    77    54    55    1
    78   118   116   am
    79   100    99    1
    80    99    97   am
    81    51    52    1
    82    96    97    1
    83    97    98    2
    84    30    29    1
    85    29    31    1
    86    55    56   ar
    87    55    57   ar
    88   116   117    2
    89   116   115    1
    90    56    58   ar
    91    57    60   ar
    92    57    59   ar
    93    60    62   ar
    94   115   114    1
    95    58    59   ar
    96    59    61   ar
    97    62    63   ar
    98    61    63   ar
    99    64    65    1
   100   114   111    1
   101   134   132   am
   102   133   132    2
   103   110   111    1
   104    65    68    1
   105    65    66    1
   106   132   131    1
   107   111   112    1
   108    68    69    1
   109    66    67    2
   110    71    69   ar
   111    71    73   ar
   112   131   130    1
   113    69    70   ar
   114   112   113    2
   115   112   119   am
   116   125   123    1
   117   130   127    1
   118   119   120    1
   119    73    72   ar
   120    70    72   ar
   121   123   124    1
   122   123   120    1
   123   127   128    1
   124   127   126    1
   125   120   121    1
   126   129   128    2
   127   122   121    2
