@<TRIPOS>MOLECULE
tmp/4pviA00.pdb
 143 138 0 0 0
SMALL
GASTEIGER

@<TRIPOS>ATOM
      1  N         18.2380  -21.9350    0.7470 N.3    32  LYS32      -0.1245
      2  CA        17.0720  -22.2380    1.5490 C.3    32  LYS32       0.1561
      3  C         15.7550  -21.7800    0.9080 C.2    32  LYS32       0.2260
      4  O         15.7220  -20.9820   -0.0190 O.2    32  LYS32      -0.2867
      5  CB        17.2010  -21.4790    2.8770 C.3    32  LYS32       0.0271
      6  CG        18.3770  -21.8850    3.7390 C.3    32  LYS32       0.0035
      7  CD        18.3160  -21.2040    5.1140 C.3    32  LYS32       0.0206
      8  CE        17.2490  -21.8390    5.9990 C.3    32  LYS32       0.1093
      9  NZ        17.1590  -21.1390    7.3040 N.3    32  LYS32      -0.1314
     10  N         20.5020  -12.5620    5.5130 N.3    55  TYR55      -0.1241
     11  CA        19.6950  -13.1920    4.4880 C.3    55  TYR55       0.1605
     12  C         19.4660  -12.2870    3.2950 C.2    55  TYR55       0.2264
     13  O         19.1850  -11.0850    3.4310 O.2    55  TYR55      -0.2867
     14  CB        18.3200  -13.5880    5.0590 C.3    55  TYR55       0.0534
     15  CG        18.3290  -14.8190    5.9370 C.ar   55  TYR55      -0.0201
     16  CD1       18.7250  -14.7440    7.2570 C.ar   55  TYR55      -0.0009
     17  CD2       17.9070  -16.0410    5.4470 C.ar   55  TYR55      -0.0009
     18  CE1       18.7430  -15.8680    8.0510 C.ar   55  TYR55       0.0417
     19  CE2       17.9090  -17.1460    6.2230 C.ar   55  TYR55       0.0417
     20  CZ        18.3170  -17.0620    7.5280 C.ar   55  TYR55       0.1957
     21  OH        18.3200  -18.1970    8.2960 O.3    55  TYR55      -0.2866
     22  N         17.8600   -7.1910    4.4970 N.3    85  TYR85      -0.1241
     23  CA        17.2460   -8.4300    4.8850 C.3    85  TYR85       0.1605
     24  C         16.0390   -8.7200    3.9710 C.2    85  TYR85       0.2264
     25  O         15.1640   -7.9620    3.8980 O.2    85  TYR85      -0.2867
     26  CB        16.8220   -8.3940    6.3550 C.3    85  TYR85       0.0534
     27  CG        16.0440   -9.6220    6.8100 C.ar   85  TYR85      -0.0201
     28  CD1       14.6780   -9.5880    6.9060 C.ar   85  TYR85      -0.0009
     29  CD2       16.6710  -10.7750    7.0920 C.ar   85  TYR85      -0.0009
     30  CE1       13.9690  -10.6820    7.3140 C.ar   85  TYR85       0.0417
     31  CE2       15.9740  -11.8680    7.4940 C.ar   85  TYR85       0.0417
     32  CZ        14.6270  -11.8150    7.6060 C.ar   85  TYR85       0.1957
     33  OH        13.9570  -12.9290    7.9880 O.3    85  TYR85      -0.2866
     34  N          9.6050  -11.9780    2.9900 N.3   105  GLN105     -0.1245
     35  CA         9.6430  -11.1890    4.2240 C.3   105  GLN105      0.1566
     36  C         10.8450  -10.2680    4.2240 C.2   105  GLN105      0.2260
     37  O         11.9010  -10.6230    3.6920 O.2   105  GLN105     -0.2867
     38  CB         9.6480  -12.0940    5.4460 C.3   105  GLN105      0.0367
     39  CG        10.9520  -12.8490    5.6900 C.3   105  GLN105      0.0905
     40  CD        10.7660  -14.2950    6.1940 C.2   105  GLN105      0.2608
     41  OE1        9.8370  -14.9880    5.8150 O.2   105  GLN105     -0.2717
     42  NE2       11.6860  -14.7510    7.0180 N.am  105  GLN105     -0.0878
     43  N          9.3320  -14.9430   15.5390 N.3   146  TYR146     -0.1241
     44  CA         9.7730  -14.2130   14.3580 C.3   146  TYR146      0.1605
     45  C          8.6450  -14.2900   13.3520 C.2   146  TYR146      0.2264
     46  O          8.1180  -15.3670   13.1250 O.2   146  TYR146     -0.2867
     47  CB        11.0070  -14.8850   13.7390 C.3   146  TYR146      0.0534
     48  CG        12.2220  -14.9590   14.6400 C.ar  146  TYR146     -0.0201
     49  CD1       12.9410  -13.8230   14.9520 C.ar  146  TYR146     -0.0009
     50  CD2       12.6530  -16.1700   15.1280 C.ar  146  TYR146     -0.0009
     51  CE1       14.0650  -13.8980   15.7590 C.ar  146  TYR146      0.0417
     52  CE2       13.7750  -16.2590   15.9430 C.ar  146  TYR146      0.0417
     53  CZ        14.4730  -15.1230   16.2370 C.ar  146  TYR146      0.1957
     54  OH        15.5840  -15.2110   17.0440 O.3   146  TYR146     -0.2866
     55  N          7.4080  -14.7640    9.9490 N.3   148  VAL148     -0.1245
     56  CA         8.0790  -15.4200    8.8320 C.3   148  VAL148      0.1561
     57  C          7.1030  -16.1240    7.8800 C.2   148  VAL148      0.2260
     58  O          5.9710  -16.4670    8.2670 O.2   148  VAL148     -0.2867
     59  CB         9.1040  -16.4590    9.3270 C.3   148  VAL148      0.0252
     60  CG1       10.2100  -15.7690   10.1280 C.3   148  VAL148      0.0019
     61  CG2        8.4420  -17.5560   10.1480 C.3   148  VAL148      0.0019
     62  N          6.6330  -18.3360   14.4920 N.3   172  ASP172     -0.1239
     63  CA         7.5470  -19.1520   15.3000 C.3   172  ASP172      0.1674
     64  C          7.1320  -19.1080   16.7820 C.2   172  ASP172      0.2266
     65  O          7.9860  -19.1040   17.6790 O.2   172  ASP172     -0.2867
     66  CB         8.9980  -18.6730   15.1190 C.3   172  ASP172      0.1410
     67  CG         9.6670  -19.2490   13.9260 C.2   172  ASP172      0.3668
     68  OD1        8.9780  -19.8950   13.1030 O.co2 172  ASP172     -0.2456
     69  OD2       10.9020  -19.0800   13.8090 O.co2 172  ASP172     -0.2456
     70  N          6.0540  -26.0930   18.2710 N.3   204  TYR204     -0.1241
     71  CA         6.8250  -26.7140   17.2140 C.3   204  TYR204      0.1605
     72  C          5.9850  -27.6220   16.3220 C.2   204  TYR204      0.2264
     73  O          6.4400  -28.0130   15.2590 O.2   204  TYR204     -0.2867
     74  CB         8.0220  -27.4660   17.8180 C.3   204  TYR204      0.0534
     75  CG         8.8470  -26.5430   18.6530 C.ar  204  TYR204     -0.0201
     76  CD1        9.5510  -25.4920   18.0920 C.ar  204  TYR204     -0.0009
     77  CD2        8.8730  -26.6910   20.0190 C.ar  204  TYR204     -0.0009
     78  CE1       10.2820  -24.6140   18.8600 C.ar  204  TYR204      0.0417
     79  CE2        9.6010  -25.8180   20.8190 C.ar  204  TYR204      0.0417
     80  CZ        10.2930  -24.7730   20.2300 C.ar  204  TYR204      0.1957
     81  OH        11.0110  -23.9000   21.0270 O.3   204  TYR204     -0.2866
     82  N          4.8090  -24.8100   13.0960 N.3   207  TRP207     -0.1227
     83  CA         5.9980  -23.9710   13.2600 C.3   207  TRP207      0.1737
     84  C          6.1280  -22.8630   12.2360 C.2   207  TRP207      0.2595
     85  O          6.0990  -21.6820   12.5980 O.2   207  TRP207     -0.2718
     86  CB         7.2440  -24.8600   13.3290 C.3   207  TRP207      0.0564
     87  CG         8.4980  -24.1360   13.7220 C.ar  207  TRP207      0.0003
     88  CD1        9.6790  -24.1040   13.0230 C.ar  207  TRP207      0.0946
     89  CD2        8.7130  -23.3610   14.9000 C.ar  207  TRP207      0.0152
     90  NE1       10.6000  -23.3580   13.6900 N.ar  207  TRP207     -0.2442
     91  CE2       10.0380  -22.8880   14.8450 C.ar  207  TRP207      0.0810
     92  CE3        7.9150  -23.0090   15.9920 C.ar  207  TRP207      0.0012
     93  CZ2       10.5720  -22.0860   15.8410 C.ar  207  TRP207      0.0191
     94  CZ3        8.4560  -22.2040   16.9690 C.ar  207  TRP207      0.0001
     95  CH2        9.7650  -21.7680   16.8870 C.ar  207  TRP207      0.0015
     96  N          6.1900  -23.2160   10.9540 N.am  208  GLU208     -0.1979
     97  CA         6.4020  -22.2110    9.9200 C.3   208  GLU208      0.1602
     98  C          6.2500  -22.8670    8.5630 C.2   208  GLU208      0.2287
     99  O          5.7730  -23.9940    8.4520 O.2   208  GLU208     -0.2864
    100  CB         7.7860  -21.5470   10.0840 C.3   208  GLU208      0.0415
    101  CG         8.9170  -22.5150    9.9060 C.3   208  GLU208      0.1163
    102  CD        10.2700  -22.0740   10.4860 C.2   208  GLU208      0.3649
    103  OE1       10.3760  -20.9970   11.1270 O.co2 208  GLU208     -0.2457
    104  OE2       11.2420  -22.8360   10.2840 O.co2 208  GLU208     -0.2457
    105  N          8.5640  -29.4460   13.8290 N.3   231  ILE231     -0.1245
    106  CA         9.8090  -30.0140   14.3160 C.3   231  ILE231      0.1561
    107  C          9.4890  -31.2190   15.1880 C.2   231  ILE231      0.2260
    108  O          8.7550  -31.1030   16.1600 O.2   231  ILE231     -0.2867
    109  CB        10.6530  -29.0140   15.1100 C.3   231  ILE231      0.0252
    110  CG1       10.7540  -27.6730   14.3750 C.3   231  ILE231      0.0019
    111  CG2       12.0260  -29.6250   15.4000 C.3   231  ILE231      0.0019
    112  CD1       11.6950  -26.6580   15.0410 C.3   231  ILE231      0.0001
    113  N         12.8340  -31.9640   10.8390 N.3   237  ARG237     -0.1245
    114  CA        11.7340  -31.2300   10.2300 C.3   237  ARG237      0.1563
    115  C         10.8880  -32.1340    9.3450 C.2   237  ARG237      0.2260
    116  O         11.4240  -32.9860    8.6250 O.2   237  ARG237     -0.2867
    117  CB        12.2390  -30.0840    9.3620 C.3   237  ARG237      0.0307
    118  CG        13.2160  -29.1030   10.0510 C.3   237  ARG237      0.0489
    119  CD        12.6360  -28.5480   11.3060 C.3   237  ARG237      0.2205
    120  NE        13.4500  -27.4560   11.8800 N.pl3 237  ARG237     -0.0865
    121  CZ        13.2470  -26.1390   11.7000 C.cat 237  ARG237      0.5346
    122  NH1       12.2550  -25.6810   10.9550 N.pl3 237  ARG237      0.1354
    123  NH2       14.0580  -25.2770   12.3200 N.pl3 237  ARG237      0.1354
    124  N         22.2140  -21.6430   13.8800 N.3   316  TYR316     -0.1227
    125  CA        21.1300  -21.9480   12.9430 C.3   316  TYR316      0.1736
    126  C         21.3510  -21.2550   11.5940 C.2   316  TYR316      0.2595
    127  O         21.2320  -21.8940   10.5510 O.2   316  TYR316     -0.2718
    128  CB        19.7150  -21.6170   13.5170 C.3   316  TYR316      0.0548
    129  CG        18.6180  -21.8300   12.4800 C.ar  316  TYR316     -0.0200
    130  CD1       18.0530  -23.0950   12.2760 C.ar  316  TYR316     -0.0009
    131  CD2       18.1770  -20.7960   11.6820 C.ar  316  TYR316     -0.0009
    132  CE1       17.0820  -23.3010   11.2950 C.ar  316  TYR316      0.0417
    133  CE2       17.2120  -21.0000   10.6980 C.ar  316  TYR316      0.0417
    134  CZ        16.6670  -22.2560   10.5110 C.ar  316  TYR316      0.1957
    135  OH        15.7270  -22.4660    9.5080 O.3   316  TYR316     -0.2866
    136  N         21.6750  -19.9610   11.6180 N.am  317  ASN317     -0.1974
    137  CA        21.8250  -19.2030   10.3670 C.3   317  ASN317      0.1688
    138  C         23.0380  -19.6310    9.5260 C.2   317  ASN317      0.2292
    139  O         23.1570  -19.2560    8.3460 O.2   317  ASN317     -0.2864
    140  CB        21.8630  -17.7090   10.6550 C.3   317  ASN317      0.1181
    141  CG        20.4920  -17.1430   11.0060 C.2   317  ASN317      0.2629
    142  OD1       20.3720  -16.0640   11.5950 O.2   317  ASN317     -0.2716
    143  ND2       19.4430  -17.8860   10.6650 N.am  317  ASN317     -0.0877
@<TRIPOS>BOND
     1     4     3    2
     2     1     2    1
     3     3     2    1
     4     2     5    1
     5     5     6    1
     6    34    35    1
     7    12    13    2
     8    12    11    1
     9    37    36    2
    10     6     7    1
    11    25    24    2
    12    24    23    1
    13    36    35    1
    14    35    38    1
    15    11    14    1
    16    11    10    1
    17    22    23    1
    18    23    26    1
    19    14    15    1
    20     7     8    1
    21    38    39    1
    22    17    15   ar
    23    17    19   ar
    24    39    40    1
    25    41    40    2
    26    15    16   ar
    27     8     9    1
    28    40    42   am
    29    19    20   ar
    30    26    27    1
    31    27    28   ar
    32    27    29   ar
    33    28    30   ar
    34    29    31   ar
    35    16    18   ar
    36    30    32   ar
    37    31    32   ar
    38    20    18   ar
    39    20    21    1
    40    32    33    1
    41    57    58    2
    42    57    56    1
    43   139   138    2
    44    99    98    2
    45    98    97    1
    46   116   115    2
    47    56    59    1
    48    56    55    1
    49    59    60    1
    50    59    61    1
    51   115   114    1
    52   117   118    1
    53   117   114    1
    54   135   134    1
    55   138   137    1
    56   101   100    1
    57   101   102    1
    58    97   100    1
    59    97    96    1
    60   118   119    1
    61   114   113    1
    62   104   102   ar
    63   137   140    1
    64   137   136    1
    65   102   103   ar
    66   134   133   ar
    67   134   132   ar
    68   127   126    2
    69   140   141    1
    70   143   141   am
    71   133   131   ar
    72    96    84   am
    73   122   121    1
    74   141   142    2
    75   132   130   ar
    76   119   120    1
    77   126   136   am
    78   126   125    1
    79   131   129   ar
    80   121   120    2
    81   121   123    1
    82    84    85    2
    83    84    83    1
    84   130   129   ar
    85   129   128    1
    86   125   128    1
    87   125   124    1
    88    88    90   ar
    89    88    87   ar
    90    82    83    1
    91    68    67   ar
    92    46    45    2
    93    83    86    1
    94    86    87    1
    95    45    44    1
    96    90    91   ar
    97    87    89   ar
    98    47    44    1
    99    47    48    1
   100    69    67   ar
   101   105   106    1
   102    67    66    1
   103   106   109    1
   104   106   107    1
   105    44    43    1
   106   110   112    1
   107   110   109    1
   108    62    63    1
   109    48    49   ar
   110    48    50   ar
   111    91    89   ar
   112    91    93   ar
   113    89    92   ar
   114    49    51   ar
   115   109   111    1
   116    66    63    1
   117    50    52   ar
   118   107   108    2
   119    73    72    2
   120    63    64    1
   121    51    53   ar
   122    93    95   ar
   123    52    53   ar
   124    92    94   ar
   125    53    54    1
   126    72    71    1
   127    64    65    2
   128    95    94   ar
   129    71    74    1
   130    71    70    1
   131    74    75    1
   132    76    75   ar
   133    76    78   ar
   134    75    77   ar
   135    78    80   ar
   136    77    79   ar
   137    80    79   ar
   138    80    81    1
