@<TRIPOS>MOLECULE
tmp/4pvoA01.pdb
 95 93 0 0 0
SMALL
GASTEIGER

@<TRIPOS>ATOM
      1  N        -33.9530   -7.0730   57.4860 N.3    29  GLN29      -0.1245
      2  CA       -34.1740   -7.8500   58.6770 C.3    29  GLN29       0.1566
      3  C        -34.4710   -6.9010   59.8140 C.2    29  GLN29       0.2260
      4  O        -33.9740   -5.7740   59.8380 O.2    29  GLN29      -0.2867
      5  CB       -32.9150   -8.7100   58.9270 C.3    29  GLN29       0.0367
      6  CG       -33.0950   -9.9410   59.7630 C.3    29  GLN29       0.0905
      7  CD       -34.3710  -10.7090   59.4450 C.2    29  GLN29       0.2608
      8  OE1      -35.3950  -10.4430   60.0410 O.2    29  GLN29      -0.2717
      9  NE2      -34.3120  -11.6440   58.5050 N.am   29  GLN29      -0.0878
     10  N        -34.4900   -6.2550   63.9360 N.3    31  PHE31      -0.1241
     11  CA       -33.9440   -6.7300   65.1830 C.3    31  PHE31       0.1605
     12  C        -33.8360   -5.5730   66.1200 C.2    31  PHE31       0.2264
     13  O        -33.5300   -4.4600   65.6990 O.2    31  PHE31      -0.2867
     14  CB       -32.5750   -7.3570   64.9670 C.3    31  PHE31       0.0534
     15  CG       -32.0170   -8.0030   66.2040 C.ar   31  PHE31      -0.0203
     16  CD1      -30.9150   -7.4660   66.8540 C.ar   31  PHE31      -0.0042
     17  CD2      -32.6260   -9.1290   66.7400 C.ar   31  PHE31      -0.0042
     18  CE1      -30.4140   -8.0620   68.0070 C.ar   31  PHE31      -0.0003
     19  CE2      -32.1370   -9.7250   67.8920 C.ar   31  PHE31      -0.0003
     20  CZ       -31.0310   -9.1940   68.5270 C.ar   31  PHE31      -0.0000
     21  N        -32.9930   -3.1870   59.2280 N.3    36  TYR36      -0.1228
     22  CA       -31.7070   -3.0490   58.5560 C.3    36  TYR36       0.1721
     23  C        -31.7680   -3.6350   57.1670 C.2    36  TYR36       0.2437
     24  O        -32.3110   -4.7190   56.9800 O.2    36  TYR36      -0.2733
     25  CB       -30.6410   -3.8320   59.3390 C.3    36  TYR36       0.0547
     26  CG       -30.5030   -3.3690   60.7490 C.ar   36  TYR36      -0.0200
     27  CD1      -31.2560   -3.9270   61.7790 C.ar   36  TYR36      -0.0009
     28  CD2      -29.6360   -2.3420   61.0630 C.ar   36  TYR36      -0.0009
     29  CE1      -31.1130   -3.4920   63.0770 C.ar   36  TYR36       0.0417
     30  CE2      -29.4900   -1.9040   62.3500 C.ar   36  TYR36       0.0417
     31  CZ       -30.2360   -2.4720   63.3520 C.ar   36  TYR36       0.1957
     32  OH       -30.0670   -1.9880   64.6370 O.3    36  TYR36      -0.2866
     33  N        -31.1330   -2.9810   56.1910 N.am   37  PRO37      -0.2729
     34  CA       -31.0090   -3.5530   54.8520 C.3    37  PRO37       0.1401
     35  C        -29.7270   -4.3910   54.7690 C.2    37  PRO37       0.2269
     36  O        -28.8060   -4.2090   55.5740 O.2    37  PRO37      -0.2865
     37  CB       -30.8690   -2.3100   53.9570 C.3    37  PRO37       0.0296
     38  CG       -30.0520   -1.4090   54.7930 C.3    37  PRO37       0.0237
     39  CD       -30.5310   -1.6450   56.2540 C.3    37  PRO37       0.0939
     40  N        -29.8970  -13.1200   54.3090 N.3    56  TRP56      -0.1241
     41  CA       -30.0790  -12.9280   55.7400 C.3    56  TRP56       0.1605
     42  C        -31.3130  -13.6730   56.2310 C.2    56  TRP56       0.2264
     43  O        -32.3170  -13.0850   56.6480 O.2    56  TRP56      -0.2867
     44  CB       -30.1360  -11.4370   56.1120 C.3    56  TRP56       0.0550
     45  CG       -29.8630  -11.0980   57.5460 C.ar   56  TRP56       0.0003
     46  CD1      -29.7400  -11.9550   58.6130 C.ar   56  TRP56       0.0946
     47  CD2      -29.6970   -9.7820   58.0760 C.ar   56  TRP56       0.0152
     48  NE1      -29.4910  -11.2370   59.7650 N.ar   56  TRP56      -0.2442
     49  CE2      -29.4220   -9.9050   59.4440 C.ar   56  TRP56       0.0810
     50  CE3      -29.7020   -8.4960   57.4940 C.ar   56  TRP56       0.0012
     51  CZ2      -29.1930   -8.8010   60.2570 C.ar   56  TRP56       0.0191
     52  CZ3      -29.4420   -7.4060   58.2970 C.ar   56  TRP56       0.0001
     53  CH2      -29.2110   -7.5630   59.6730 C.ar   56  TRP56       0.0015
     54  N        -21.3220    1.7510   54.0160 N.3   171  GLU171     -0.1245
     55  CA       -21.9270    2.7970   53.2250 C.3   171  GLU171      0.1567
     56  C        -21.6560    4.1840   53.8170 C.2   171  GLU171      0.2260
     57  O        -21.4080    4.3370   55.0060 O.2   171  GLU171     -0.2867
     58  CB       -23.4310    2.5740   53.0950 C.3   171  GLU171      0.0388
     59  CG       -24.2580    2.8920   54.3220 C.3   171  GLU171      0.1160
     60  CD       -25.7580    2.9460   54.0200 C.2   171  GLU171      0.3649
     61  OE1      -26.2130    3.4720   52.9620 O.co2 171  GLU171     -0.2457
     62  OE2      -26.5190    2.4800   54.8870 O.co2 171  GLU171     -0.2457
     63  N        -23.4330    5.5980   56.9900 N.3   174  ARG174     -0.1245
     64  CA       -23.0990    4.9770   58.2540 C.3   174  ARG174      0.1563
     65  C        -21.8730    5.6340   58.8260 C.2   174  ARG174      0.2260
     66  O        -20.7750    5.4440   58.3180 O.2   174  ARG174     -0.2867
     67  CB       -22.8550    3.4990   58.0440 C.3   174  ARG174      0.0307
     68  CG       -22.8920    2.6630   59.2960 C.3   174  ARG174      0.0489
     69  CD       -23.1500    1.2120   58.8730 C.3   174  ARG174      0.2205
     70  NE       -22.8570    0.2660   59.9260 N.pl3 174  ARG174     -0.0865
     71  CZ       -22.6000   -1.0180   59.7050 C.cat 174  ARG174      0.5346
     72  NH1      -22.5830   -1.4900   58.4610 N.pl3 174  ARG174      0.1354
     73  NH2      -22.3340   -1.8140   60.7310 N.pl3 174  ARG174      0.1354
     74  N        -20.6490   -0.1700   63.7220 N.3   178  GLY178     -0.1210
     75  CA       -21.7930   -0.8880   64.2490 C.3   178  GLY178      0.1956
     76  C        -21.4060   -1.7500   65.4430 C.2   178  GLY178      0.2611
     77  O        -20.8890   -1.3010   66.4870 O.2   178  GLY178     -0.2717
     78  N        -21.7210   -3.0170   65.2830 N.am  179  ASN179     -0.1974
     79  CA       -21.3020   -4.0590   66.1810 C.3   179  ASN179      0.1688
     80  C        -19.9380   -4.5050   65.6770 C.2   179  ASN179      0.2292
     81  O        -19.7970   -4.9880   64.5570 O.2   179  ASN179     -0.2864
     82  CB       -22.3150   -5.1890   66.0780 C.3   179  ASN179      0.1181
     83  CG       -22.0560   -6.3220   67.0280 C.2   179  ASN179      0.2629
     84  OD1      -21.0150   -6.3940   67.6760 O.2   179  ASN179     -0.2716
     85  ND2      -23.0140   -7.2430   67.1020 N.am  179  ASN179     -0.0877
     86  N        -24.1100   -3.5360   53.6170 N.3   209  HIS209     -0.1241
     87  CA       -25.3840   -2.9200   54.0360 C.3   209  HIS209      0.1621
     88  C        -25.4630   -1.5440   53.4490 C.2   209  HIS209      0.2264
     89  O        -24.5530   -0.7380   53.6750 O.2   209  HIS209     -0.2867
     90  CB       -25.5380   -2.9170   55.5640 C.3   209  HIS209      0.0745
     91  CG       -25.3160   -4.2670   56.1680 C.ar  209  HIS209      0.0817
     92  ND1      -26.3400   -5.1720   56.3460 N.ar  209  HIS209     -0.2268
     93  CD2      -24.2050   -4.8400   56.6670 C.ar  209  HIS209      0.1154
     94  CE1      -25.8340   -6.2840   56.8810 C.ar  209  HIS209      0.1986
     95  NE2      -24.5380   -6.1100   57.0620 N.ar  209  HIS209     -0.2212
@<TRIPOS>BOND
     1    61    60   ar
     2    58    55    1
     3    58    59    1
     4    55    56    1
     5    55    54    1
     6    88    89    2
     7    88    87    1
     8    86    87    1
     9    56    57    2
    10    37    38    1
    11    37    34    1
    12    60    59    1
    13    60    62   ar
    14    87    90    1
    15    40    41    1
    16    35    34    1
    17    35    36    2
    18    38    39    1
    19    34    33    1
    20    90    91    1
    21    41    44    1
    22    41    42    1
    23    44    45    1
    24    91    92   ar
    25    91    93   ar
    26    33    39    1
    27    33    23   am
    28    42    43    2
    29    92    94   ar
    30    93    95   ar
    31    94    95   ar
    32    24    23    2
    33    63    64    1
    34    23    22    1
    35     1     2    1
    36    50    47   ar
    37    50    52   ar
    38    45    47   ar
    39    45    46   ar
    40    67    64    1
    41    67    68    1
    42    47    49   ar
    43    64    65    1
    44    52    53   ar
    45    66    65    2
    46    72    71    1
    47     9     7   am
    48    22    21    1
    49    22    25    1
    50    46    48   ar
    51     2     5    1
    52     2     3    1
    53    69    68    1
    54    69    70    1
    55     5     6    1
    56    25    26    1
    57    49    48   ar
    58    49    51   ar
    59     7     6    1
    60     7     8    2
    61    53    51   ar
    62    71    70    2
    63    71    73    1
    64     3     4    2
    65    26    28   ar
    66    26    27   ar
    67    28    30   ar
    68    27    29   ar
    69    30    31   ar
    70    29    31   ar
    71    31    32    1
    72    74    75    1
    73    10    11    1
    74    75    76    1
    75    81    80    2
    76    14    11    1
    77    14    15    1
    78    11    12    1
    79    78    76   am
    80    78    79    1
    81    76    77    2
    82    80    79    1
    83    13    12    2
    84    82    79    1
    85    82    83    1
    86    15    17   ar
    87    15    16   ar
    88    17    19   ar
    89    16    18   ar
    90    83    85   am
    91    83    84    2
    92    19    20   ar
    93    18    20   ar
