@<TRIPOS>MOLECULE
tmp/4pvpA00.pdb
 77 72 0 0 0
SMALL
GASTEIGER

@<TRIPOS>ATOM
      1  N         -4.1080   -9.2620    9.1020 N.3   156  GLY156     -0.1210
      2  CA        -3.4120   -8.6410    7.9640 C.3   156  GLY156      0.1956
      3  C         -3.2740   -9.4940    6.7060 C.2   156  GLY156      0.2612
      4  O         -3.6330  -10.6770    6.7020 O.2   156  GLY156     -0.2717
      5  N         -2.7410   -8.8810    5.6440 N.am  157  THR157     -0.1952
      6  CA        -2.5890   -9.5150    4.3240 C.3   157  THR157      0.1897
      7  C         -1.8530  -10.8640    4.3600 C.2   157  THR157      0.2313
      8  O         -0.8350  -11.0000    5.0480 O.2   157  THR157     -0.2863
      9  CB        -1.8380   -8.5720    3.3410 C.3   157  THR157      0.1794
     10  OG1       -2.5460   -7.3310    3.2130 O.3   157  THR157     -0.2208
     11  CG2       -1.7180   -9.2030    1.9810 C.3   157  THR157      0.0378
     12  N         -6.1490  -10.0610    0.7180 N.3   175  THR175     -0.1218
     13  CA        -6.4860   -9.4050    2.0000 C.3   175  THR175      0.1862
     14  C         -7.9410   -8.9190    2.0910 C.2   175  THR175      0.2287
     15  O         -8.5850   -8.6530    1.0720 O.2   175  THR175     -0.2866
     16  CB        -5.5470   -8.1710    2.2650 C.3   175  THR175      0.1770
     17  OG1       -5.6970   -7.7000    3.6140 O.3   175  THR175     -0.2211
     18  CG2       -5.8690   -7.0330    1.3120 C.3   175  THR175      0.0375
     19  N         -8.0810   -6.2350    3.9290 N.3   177  GLY177     -0.1210
     20  CA        -7.6590   -4.8430    4.1510 C.3   177  GLY177      0.1956
     21  C         -7.4220   -4.5300    5.6220 C.2   177  GLY177      0.2611
     22  O         -6.7530   -5.2850    6.3330 O.2   177  GLY177     -0.2717
     23  N         -7.9860   -3.4170    6.0810 N.am  178  ILE178     -0.1979
     24  CA        -7.8190   -2.9910    7.4690 C.3   178  ILE178      0.1595
     25  C         -9.1670   -2.7490    8.1710 C.2   178  ILE178      0.2287
     26  O        -10.1470   -2.3310    7.5420 O.2   178  ILE178     -0.2864
     27  CB        -6.8090   -1.7860    7.5680 C.3   178  ILE178      0.0276
     28  CG1       -6.4320   -1.4760    9.0240 C.3   178  ILE178      0.0022
     29  CG2       -7.3120   -0.5520    6.7990 C.3   178  ILE178      0.0022
     30  CD1       -5.4270   -2.4600    9.6240 C.3   178  ILE178      0.0001
     31  N        -11.5930    1.6150    0.0760 N.3   185  ARG185     -0.1245
     32  CA       -10.1670    1.8000    0.3070 C.3   185  ARG185      0.1563
     33  C         -9.5030    0.5840   -0.3180 C.2   185  ARG185      0.2260
     34  O        -10.0040   -0.5430   -0.1860 O.2   185  ARG185     -0.2867
     35  CB        -9.8280    1.8750    1.8120 C.3   185  ARG185      0.0307
     36  CG        -8.3170    2.0000    2.1590 C.3   185  ARG185      0.0489
     37  CD        -7.6680    0.6160    2.3590 C.3   185  ARG185      0.2205
     38  NE        -6.4000    0.6520    3.0950 N.pl3 185  ARG185     -0.0865
     39  CZ        -5.6220   -0.4100    3.2910 C.cat 185  ARG185      0.5346
     40  NH1       -5.9760   -1.5950    2.8110 N.pl3 185  ARG185      0.1354
     41  NH2       -4.4910   -0.3060    3.9740 N.pl3 185  ARG185      0.1354
     42  N         -5.6410   -1.1590   -0.6570 N.3   187  GLY187     -0.1210
     43  CA        -4.2860   -1.1080   -0.1180 C.3   187  GLY187      0.1956
     44  C         -3.1850   -1.3650   -1.1270 C.2   187  GLY187      0.2612
     45  O         -3.3240   -1.0880   -2.3260 O.2   187  GLY187     -0.2717
     46  N         -2.0710   -1.8670   -0.6150 N.am  188  ASP188     -0.1959
     47  CA        -0.9260   -2.2910   -1.4090 C.3   188  ASP188      0.1840
     48  C         -1.1680   -3.6230   -2.1370 C.2   188  ASP188      0.2622
     49  O         -0.5380   -3.8960   -3.1630 O.2   188  ASP188     -0.2715
     50  CB         0.2720   -2.4700   -0.4780 C.3   188  ASP188      0.1450
     51  CG        -0.0260   -3.4250    0.6770 C.2   188  ASP188      0.3671
     52  OD1       -1.0740   -3.2600    1.3370 O.co2 188  ASP188     -0.2456
     53  OD2        0.7670   -4.3550    0.9170 O.co2 188  ASP188     -0.2456
     54  N         -2.0710   -4.4410   -1.5900 N.am  189  SER189     -0.1950
     55  CA        -2.2000   -5.8570   -1.9780 C.3   189  SER189      0.1924
     56  C         -2.4390   -6.1390   -3.4510 C.2   189  SER189      0.2314
     57  O         -1.9830   -7.1700   -3.9500 O.2   189  SER189     -0.2863
     58  CB        -3.2600   -6.5700   -1.1390 C.3   189  SER189      0.2116
     59  OG        -2.8530   -6.6420    0.2150 O.3   189  SER189     -0.2180
     60  N          1.6290   -5.6850    6.0450 N.3   209  GLY209     -0.1210
     61  CA         1.8550   -4.6770    7.0880 C.3   209  GLY209      0.1956
     62  C          0.9870   -3.4770    6.8070 C.2   209  GLY209      0.2612
     63  O         -0.1290   -3.6400    6.3290 O.2   209  GLY209     -0.2717
     64  N          1.4900   -2.2780    7.0960 N.am  210  HIS210     -0.1961
     65  CA         0.7230   -1.0350    6.8690 C.3   210  HIS210      0.1787
     66  C          0.6340   -0.7340    5.3760 C.2   210  HIS210      0.2620
     67  O          1.5820   -0.2380    4.7790 O.2   210  HIS210     -0.2715
     68  CB         1.3600    0.1350    7.6200 C.3   210  HIS210      0.0785
     69  CG         0.5550    1.4010    7.5830 C.ar  210  HIS210      0.0821
     70  ND1        1.1050    2.6220    7.2520 N.ar  210  HIS210     -0.2267
     71  CD2       -0.7540    1.6390    7.8450 C.ar  210  HIS210      0.1154
     72  CE1        0.1720    3.5580    7.3120 C.ar  210  HIS210      0.1986
     73  NE2       -0.9660    2.9860    7.6670 N.ar  210  HIS210     -0.2212
     74  N         -0.5180   -1.0350    4.7850 N.am  211  GLY211     -0.1954
     75  CA        -0.6760   -0.9670    3.3300 C.3   211  GLY211      0.1869
     76  C         -0.2700    0.3560    2.7150 C.2   211  GLY211      0.2309
     77  O          0.4730    0.3830    1.7290 O.2   211  GLY211     -0.2863
@<TRIPOS>BOND
     1    57    56    2
     2    56    55    1
     3    49    48    2
     4    45    44    2
     5    48    54   am
     6    48    47    1
     7    55    54    1
     8    55    58    1
     9    47    46    1
    10    47    50    1
    11    58    59    1
    12    44    46   am
    13    44    43    1
    14    42    43    1
    15    50    51    1
    16    33    34    2
    17    33    32    1
    18    31    32    1
    19    32    35    1
    20    51    53   ar
    21    51    52   ar
    22    12    13    1
    23    15    14    2
    24    18    16    1
    25    77    76    2
    26    35    36    1
    27    11     9    1
    28    13    14    1
    29    13    16    1
    30    36    37    1
    31    16    17    1
    32    37    38    1
    33    76    75    1
    34    40    39    1
    35    38    39    2
    36    10     9    1
    37    39    41    1
    38    75    74    1
    39     9     6    1
    40    19    20    1
    41    20    21    1
    42     6     7    1
    43     6     5    1
    44     7     8    2
    45    67    66    2
    46    74    66   am
    47    66    65    1
    48    21    23   am
    49    21    22    2
    50     5     3   am
    51    60    61    1
    52    23    24    1
    53    63    62    2
    54     4     3    2
    55     3     2    1
    56    29    27    1
    57    62    61    1
    58    62    64   am
    59    65    64    1
    60    65    68    1
    61    70    72   ar
    62    70    69   ar
    63    72    73   ar
    64    24    27    1
    65    24    25    1
    66    26    25    2
    67    27    28    1
    68    69    68    1
    69    69    71   ar
    70    73    71   ar
    71     2     1    1
    72    28    30    1
