@<TRIPOS>MOLECULE
tmp/4pvrA00.pdb
 113 102 0 0 0
SMALL
GASTEIGER

@<TRIPOS>ATOM
      1  N          0.9940   -9.4240    9.0130 N.3    12  GLY12      -0.1225
      2  CA         2.0310   -8.7120    9.7770 C.3    12  GLY12       0.1811
      3  C          1.4670   -7.8000   10.8570 C.2    12  GLY12       0.2280
      4  O          1.3350   -6.5890   10.6510 O.2    12  GLY12      -0.2866
      5  N         -9.2330   -7.4700   -1.7500 N.3    79  ASP79      -0.1239
      6  CA        -8.2670   -7.2040   -2.8260 C.3    79  ASP79       0.1674
      7  C         -7.3800   -8.4250   -2.9520 C.2    79  ASP79       0.2266
      8  O         -7.1090   -9.1060   -1.9610 O.2    79  ASP79      -0.2867
      9  CB        -7.3300   -6.0130   -2.5300 C.3    79  ASP79       0.1410
     10  CG        -8.0600   -4.7520   -2.0230 C.2    79  ASP79       0.3668
     11  OD1       -9.2050   -4.4780   -2.4280 O.co2  79  ASP79      -0.2456
     12  OD2       -7.4490   -4.0170   -1.2120 O.co2  79  ASP79      -0.2456
     13  N         -2.4480   -4.7340    9.7230 N.3   155  ASN155     -0.1225
     14  CA        -3.1820   -4.8620   10.9790 C.3   155  ASN155      0.1785
     15  C         -3.3420   -6.2890   11.5030 C.2   155  ASN155      0.2597
     16  O         -3.1060   -6.5270   12.6810 O.2   155  ASN155     -0.2718
     17  CB        -4.5280   -4.1440   10.9040 C.3   155  ASN155      0.1169
     18  CG        -5.1870   -4.0040   12.2570 C.2   155  ASN155      0.2627
     19  OD1       -5.1530   -2.9380   12.8700 O.2   155  ASN155     -0.2716
     20  ND2       -5.7800   -5.0840   12.7380 N.am  155  ASN155     -0.0877
     21  N         -3.7370   -7.2360   10.6480 N.am  156  LEU156     -0.1980
     22  CA        -3.7340   -8.6530   11.0400 C.3   156  LEU156      0.1596
     23  C         -4.3030   -9.6140    9.9990 C.2   156  LEU156      0.2287
     24  O         -5.2210   -9.2670    9.2520 O.2   156  LEU156     -0.2864
     25  CB        -4.4720   -8.8420   12.3690 C.3   156  LEU156      0.0297
     26  CG        -5.8870   -8.2710   12.4350 C.3   156  LEU156      0.0022
     27  CD1       -6.8660   -9.1480   11.6640 C.3   156  LEU156      0.0001
     28  CD2       -6.3170   -8.1170   13.8940 C.3   156  LEU156      0.0001
     29  N         -3.5870  -10.9340    7.0780 N.3   158  THR158     -0.1218
     30  CA        -3.5070  -10.8400    5.6200 C.3   158  THR158      0.1862
     31  C         -2.6160  -11.9530    5.0460 C.2   158  THR158      0.2287
     32  O         -1.7420  -12.4700    5.7550 O.2   158  THR158     -0.2866
     33  CB        -3.0320   -9.4470    5.2030 C.3   158  THR158      0.1770
     34  OG1       -4.0520   -8.5040    5.5560 O.3   158  THR158     -0.2211
     35  CG2       -2.7750   -9.3930    3.7120 C.3   158  THR158      0.0375
     36  N         -6.4400  -10.0070    0.6010 N.3   176  THR176     -0.1218
     37  CA        -6.7550   -9.3880    1.8810 C.3   176  THR176      0.1862
     38  C         -8.2030   -8.9300    1.9400 C.2   176  THR176      0.2287
     39  O         -8.8510   -8.7520    0.8970 O.2   176  THR176     -0.2866
     40  CB        -5.8020   -8.1640    2.1430 C.3   176  THR176      0.1770
     41  OG1       -5.8990   -7.7440    3.5060 O.3   176  THR176     -0.2211
     42  CG2       -6.1240   -6.9870    1.2330 C.3   176  THR176      0.0375
     43  N         -8.3290   -6.2150    3.8420 N.3   178  GLY178     -0.1210
     44  CA        -7.8840   -4.8390    4.1510 C.3   178  GLY178      0.1956
     45  C         -7.6760   -4.5810    5.6380 C.2   178  GLY178      0.2611
     46  O         -7.1670   -5.4350    6.3560 O.2   178  GLY178     -0.2717
     47  N         -8.0480   -3.3880    6.0960 N.am  179  ILE179     -0.1979
     48  CA        -7.9310   -3.0260    7.5190 C.3   179  ILE179      0.1595
     49  C         -9.3260   -2.7430    8.0950 C.2   179  ILE179      0.2287
     50  O        -10.1710   -2.1530    7.4170 O.2   179  ILE179     -0.2864
     51  CB        -6.9430   -1.8330    7.7030 C.3   179  ILE179      0.0276
     52  CG1       -5.5250   -2.2510    7.2840 C.3   179  ILE179      0.0022
     53  CG2       -6.9370   -1.3210    9.1490 C.3   179  ILE179      0.0022
     54  CD1       -4.5540   -1.0990    7.0450 C.3   179  ILE179      0.0001
     55  N        -11.8700    1.6840   -0.0180 N.3   186  ARG186     -0.1245
     56  CA       -10.4320    1.7760    0.2400 C.3   186  ARG186      0.1563
     57  C         -9.7000    0.6060   -0.4040 C.2   186  ARG186      0.2260
     58  O        -10.0430   -0.5540   -0.1650 O.2   186  ARG186     -0.2867
     59  CB       -10.1220    1.8520    1.7480 C.3   186  ARG186      0.0307
     60  CG        -8.6260    1.9720    2.1210 C.3   186  ARG186      0.0489
     61  CD        -7.9890    0.6130    2.4000 C.3   186  ARG186      0.2205
     62  NE        -6.6610    0.7270    2.9890 N.pl3 186  ARG186     -0.0865
     63  CZ        -5.9100   -0.3080    3.3540 C.cat 186  ARG186      0.5346
     64  NH1       -6.3520   -1.5500    3.1900 N.pl3 186  ARG186      0.1354
     65  NH2       -4.7120   -0.1060    3.8810 N.pl3 186  ARG186      0.1354
     66  N         -5.9380   -1.1480   -0.7290 N.3   188  GLY188     -0.1210
     67  CA        -4.6780   -1.2420    0.0050 C.3   188  GLY188      0.1956
     68  C         -3.5490   -1.5930   -0.9370 C.2   188  GLY188      0.2612
     69  O         -3.6650   -1.4010   -2.1490 O.2   188  GLY188     -0.2717
     70  N         -2.4600   -2.1210   -0.3900 N.am  189  ASP189     -0.1959
     71  CA        -1.3150   -2.4850   -1.2150 C.3   189  ASP189      0.1840
     72  C         -1.4990   -3.7960   -1.9700 C.2   189  ASP189      0.2622
     73  O         -0.8490   -4.0090   -2.9930 O.2   189  ASP189     -0.2715
     74  CB        -0.0530   -2.5700   -0.3650 C.3   189  ASP189      0.1450
     75  CG        -0.1020   -3.7100    0.6170 C.2   189  ASP189      0.3671
     76  OD1       -0.9580   -3.6610    1.5220 O.co2 189  ASP189     -0.2456
     77  OD2        0.6980   -4.6570    0.4720 O.co2 189  ASP189     -0.2456
     78  N         -2.3740   -4.6700   -1.4660 N.am  190  SER190     -0.1950
     79  CA        -2.4140   -6.0630   -1.9400 C.3   190  SER190      0.1924
     80  C         -2.6430   -6.2750   -3.4310 C.2   190  SER190      0.2314
     81  O         -2.1510   -7.2620   -3.9580 O.2   190  SER190     -0.2863
     82  CB        -3.3910   -6.9080   -1.1250 C.3   190  SER190      0.2116
     83  OG        -3.0010   -6.9120    0.2490 O.3   190  SER190     -0.2180
     84  N          4.1630   -9.0190    0.4500 N.3   208  THR208     -0.1203
     85  CA         4.2770   -8.1430    1.6190 C.3   208  THR208      0.1994
     86  C          2.9820   -8.1090    2.4090 C.2   208  THR208      0.2619
     87  O          1.9320   -8.5520    1.9330 O.2   208  THR208     -0.2717
     88  CB         4.6200   -6.6940    1.2060 C.3   208  THR208      0.1784
     89  OG1        3.5170   -6.1440    0.4750 O.3   208  THR208     -0.2211
     90  CG2        5.8840   -6.6480    0.3390 C.3   208  THR208      0.0376
     91  N          3.0700   -7.5530    3.6180 N.am  209  THR209     -0.1938
     92  CA         1.9400   -7.3920    4.5100 C.3   209  THR209      0.2028
     93  C          2.2790   -6.2580    5.4840 C.2   209  THR209      0.2642
     94  O          3.4370   -5.8680    5.6110 O.2   209  THR209     -0.2714
     95  CB         1.6070   -8.7100    5.2700 C.3   209  THR209      0.1808
     96  OG1        0.5280   -8.4870    6.1800 O.3   209  THR209     -0.2208
     97  CG2        2.8310   -9.2440    6.0340 C.3   209  THR209      0.0379
     98  N          1.2600   -5.7350    6.1390 N.am  210  GLY210     -0.1954
     99  CA         1.4200   -4.6430    7.1040 C.3   210  GLY210      0.1869
    100  C          0.5540   -3.4630    6.7330 C.2   210  GLY210      0.2309
    101  O         -0.4960   -3.6220    6.1130 O.2   210  GLY210     -0.2863
    102  N         -0.8310   -1.0510    4.6670 N.3   212  GLY212     -0.1225
    103  CA        -0.8540   -0.9480    3.2020 C.3   212  GLY212      0.1811
    104  C         -0.4720    0.4110    2.6430 C.2   212  GLY212      0.2280
    105  O          0.2120    0.4980    1.6200 O.2   212  GLY212     -0.2866
    106  N          3.3030    0.6010    2.6330 N.3   215  ILE215     -0.1245
    107  CA         3.7570   -0.3270    1.5980 C.3   215  ILE215      0.1561
    108  C          3.6500    0.2860    0.1980 C.2   215  ILE215      0.2260
    109  O          4.6190    0.2200   -0.5520 O.2   215  ILE215     -0.2867
    110  CB         3.0010   -1.6910    1.6560 C.3   215  ILE215      0.0252
    111  CG1        3.1880   -2.3530    3.0330 C.3   215  ILE215      0.0019
    112  CG2        3.4830   -2.6290    0.5640 C.3   215  ILE215      0.0019
    113  CD1        2.1940   -3.4810    3.3650 C.3   215  ILE215      0.0001
@<TRIPOS>BOND
     1    81    80    2
     2    80    79    1
     3    73    72    2
     4     7     6    1
     5     7     8    2
     6     6     9    1
     7     6     5    1
     8     9    10    1
     9    11    10   ar
    10    69    68    2
    11    10    12   ar
    12    72    78   am
    13    72    71    1
    14    79    78    1
    15    79    82    1
    16    71    70    1
    17    71    74    1
    18    82    83    1
    19    68    70   am
    20    68    67    1
    21    66    67    1
    22   109   108    2
    23    57    58    2
    24    57    56    1
    25    74    75    1
    26    55    56    1
    27   108   107    1
    28    56    59    1
    29    90    88    1
    30    84    85    1
    31    77    75   ar
    32    89    88    1
    33   112   110    1
    34    36    37    1
    35    75    76   ar
    36    39    38    2
    37    88    85    1
    38    42    40    1
    39   107   110    1
    40   107   106    1
    41    85    86    1
    42   105   104    2
    43   110   111    1
    44    59    60    1
    45    37    38    1
    46    37    40    1
    47    87    86    2
    48    60    61    1
    49    40    41    1
    50    61    62    1
    51    86    91   am
    52   104   103    1
    53    62    63    2
    54   111   113    1
    55    64    63    1
    56   103   102    1
    57    63    65    1
    58    91    92    1
    59    35    33    1
    60    43    44    1
    61    44    45    1
    62    92    95    1
    63    92    93    1
    64    31    30    1
    65    31    32    2
    66    33    34    1
    67    33    30    1
    68    95    97    1
    69    95    96    1
    70    93    94    2
    71    93    98   am
    72    30    29    1
    73    45    47   am
    74    45    46    2
    75    47    48    1
    76   101   100    2
    77    98    99    1
    78   100    99    1
    79    54    52    1
    80    52    51    1
    81    50    49    2
    82    48    51    1
    83    48    49    1
    84    51    53    1
    85     1     2    1
    86    24    23    2
    87    13    14    1
    88     2     3    1
    89    23    22    1
    90    21    22    1
    91    21    15   am
    92     4     3    2
    93    17    14    1
    94    17    18    1
    95    14    15    1
    96    22    25    1
    97    15    16    2
    98    27    26    1
    99    18    20   am
   100    18    19    2
   101    25    26    1
   102    26    28    1
