@<TRIPOS>MOLECULE
tmp/4pvuB00.pdb
 145 135 0 0 0
SMALL
GASTEIGER

@<TRIPOS>ATOM
      1  N         44.0130   -4.0390   44.2420 N.3    61  ILE61      -0.1245
      2  CA        42.6100   -4.4650   44.1190 C.3    61  ILE61       0.1561
      3  C         42.1630   -4.4600   42.6580 C.2    61  ILE61       0.2260
      4  O         41.5600   -5.4270   42.1860 O.2    61  ILE61      -0.2867
      5  CB        41.6430   -3.5910   44.9640 C.3    61  ILE61       0.0252
      6  CG1       41.8670   -3.8300   46.4480 C.3    61  ILE61       0.0019
      7  CG2       40.1950   -3.9550   44.6920 C.3    61  ILE61       0.0019
      8  CD1       41.1520   -2.8490   47.3510 C.3    61  ILE61       0.0001
      9  N         43.9540   -7.1870   40.6610 N.3    64  GLY64      -0.1210
     10  CA        43.3670   -8.4720   41.0170 C.3    64  GLY64       0.1956
     11  C         42.0900   -8.7400   40.2550 C.2    64  GLY64       0.2612
     12  O         41.9090   -9.8290   39.7070 O.2    64  GLY64      -0.2717
     13  N         41.2060   -7.7460   40.2160 N.am   65  CYS65      -0.1970
     14  CA        39.9700   -7.8660   39.4520 C.3    65  CYS65       0.1712
     15  C         40.3070   -8.2640   38.0190 C.2    65  CYS65       0.2296
     16  O         39.7400   -9.2010   37.4740 O.2    65  CYS65      -0.2864
     17  CB        39.1790   -6.5470   39.4760 C.3    65  CYS65       0.0983
     18  SG        37.5830   -6.6360   38.6070 S.3    65  CYS65      -0.0798
     19  N         41.5310  -11.8980   37.6390 N.3    68  ARG68      -0.1231
     20  CA        40.4040  -12.8240   37.6850 C.3    68  ARG68       0.1694
     21  C         39.5780  -12.7730   36.4050 C.2    68  ARG68       0.2592
     22  O         39.0670  -13.7960   35.9600 O.2    68  ARG68      -0.2718
     23  CB        39.5150  -12.5690   38.9080 C.3    68  ARG68       0.0321
     24  CG        38.3120  -13.5100   39.0240 C.3    68  ARG68       0.0489
     25  CD        38.6360  -14.9970   38.9420 C.3    68  ARG68       0.2205
     26  NE        37.4330  -15.8300   39.0770 N.pl3  68  ARG68      -0.0865
     27  CZ        36.7350  -16.3860   38.0800 C.cat  68  ARG68       0.5346
     28  NH1       37.0890  -16.2370   36.8080 N.pl3  68  ARG68       0.1354
     29  NH2       35.6600  -17.1190   38.3630 N.pl3  68  ARG68       0.1354
     30  N         39.4530  -11.5890   35.8100 N.am   69  SER69      -0.1952
     31  CA        38.7330  -11.4340   34.5320 C.3    69  SER69       0.1924
     32  C         39.3240  -12.3140   33.4450 C.2    69  SER69       0.2314
     33  O         38.5990  -12.9250   32.6740 O.2    69  SER69      -0.2863
     34  CB        38.7800   -9.9860   34.0470 C.3    69  SER69       0.2116
     35  OG        38.0070   -9.1500   34.8830 O.3    69  SER69      -0.2180
     36  N         38.3210  -15.7680   33.8370 N.3    72  ALA72      -0.1245
     37  CA        36.9100  -15.8310   33.4600 C.3    72  ALA72       0.1562
     38  C         36.7850  -15.9600   31.9530 C.2    72  ALA72       0.2260
     39  O         35.9590  -16.7120   31.4500 O.2    72  ALA72      -0.2867
     40  CB        36.1640  -14.5920   33.9370 C.3    72  ALA72       0.0290
     41  N         31.0850  -10.8670   31.6350 N.3   106  ILE106     -0.1245
     42  CA        31.7540  -10.7460   32.9150 C.3   106  ILE106      0.1561
     43  C         30.9070   -9.9510   33.9050 C.2   106  ILE106      0.2260
     44  O         30.7880  -10.3480   35.0640 O.2   106  ILE106     -0.2867
     45  CB        33.1650  -10.1450   32.7580 C.3   106  ILE106      0.0252
     46  CG1       34.1330  -11.2570   32.3480 C.3   106  ILE106      0.0019
     47  CG2       33.6400   -9.5070   34.0500 C.3   106  ILE106      0.0019
     48  CD1       35.4480  -10.7500   31.8040 C.3   106  ILE106      0.0001
     49  N         27.8450  -12.0310   35.1260 N.3   109  MET109     -0.1230
     50  CA        28.1630  -13.0620   36.1150 C.3   109  MET109      0.1702
     51  C         28.6140  -12.4780   37.4360 C.2   109  MET109      0.2592
     52  O         28.3070  -13.0150   38.5060 O.2   109  MET109     -0.2718
     53  CB        29.2320  -13.9870   35.5680 C.3   109  MET109      0.0401
     54  CG        28.7260  -14.8000   34.3860 C.3   109  MET109      0.0596
     55  SD        29.8830  -16.0900   33.8830 S.3   109  MET109     -0.1393
     56  CE        31.4780  -15.2550   34.0740 C.3   109  MET109      0.0692
     57  N         29.3180  -11.3570   37.3590 N.am  110  LEU110     -0.1980
     58  CA        29.6780  -10.5940   38.5500 C.3   110  LEU110      0.1596
     59  C         28.4640  -10.2240   39.3910 C.2   110  LEU110      0.2287
     60  O         28.5530  -10.1780   40.6060 O.2   110  LEU110     -0.2864
     61  CB        30.3900   -9.3150   38.1580 C.3   110  LEU110      0.0297
     62  CG        31.1750   -8.6180   39.2490 C.3   110  LEU110      0.0022
     63  CD1       32.2790   -9.5250   39.7830 C.3   110  LEU110      0.0001
     64  CD2       31.7590   -7.3380   38.6740 C.3   110  LEU110      0.0001
     65  N         27.6140  -12.5030   42.0270 N.3   113  LEU113     -0.1245
     66  CA        28.4930  -12.4640   43.1950 C.3   113  LEU113      0.1561
     67  C         28.2360  -11.2690   44.1180 C.2   113  LEU113      0.2260
     68  O         28.8860  -11.1380   45.1600 O.2   113  LEU113     -0.2867
     69  CB        29.9570  -12.4110   42.7520 C.3   113  LEU113      0.0270
     70  CG        30.4600  -13.5870   41.8950 C.3   113  LEU113      0.0019
     71  CD1       31.8710  -13.3710   41.3390 C.3   113  LEU113      0.0001
     72  CD2       30.3810  -14.9110   42.6220 C.3   113  LEU113      0.0001
     73  N         30.5350   -7.6250   47.4970 N.3   119  VAL119     -0.1231
     74  CA        30.8150   -8.5990   46.4730 C.3   119  VAL119      0.1692
     75  C         31.7390   -9.7020   46.9640 C.2   119  VAL119      0.2592
     76  O         32.7230   -9.4350   47.6640 O.2   119  VAL119     -0.2718
     77  CB        31.4020   -7.9090   45.2100 C.3   119  VAL119      0.0266
     78  CG1       32.7660   -7.2870   45.4830 C.3   119  VAL119      0.0020
     79  CG2       31.4810   -8.8900   44.0550 C.3   119  VAL119      0.0020
     80  N         31.4270  -10.9340   46.5560 N.am  120  LEU120     -0.1966
     81  CA        32.2610  -12.0880   46.8700 C.3   120  LEU120      0.1728
     82  C         33.5630  -12.0250   46.1120 C.2   120  LEU120      0.2616
     83  O         33.5970  -11.5700   44.9830 O.2   120  LEU120     -0.2715
     84  CB        31.5760  -13.3840   46.4810 C.3   120  LEU120      0.0311
     85  CG        30.4210  -13.8430   47.3560 C.3   120  LEU120      0.0022
     86  CD1       29.8660  -15.1400   46.7880 C.3   120  LEU120      0.0001
     87  CD2       30.8710  -14.0430   48.7970 C.3   120  LEU120      0.0001
     88  N         34.6360  -12.4980   46.7280 N.am  121  ILE121     -0.1963
     89  CA        35.9190  -12.5670   46.0450 C.3   121  ILE121      0.1727
     90  C         36.6020  -13.8960   46.3640 C.2   121  ILE121      0.2617
     91  O         36.1510  -14.6560   47.2210 O.2   121  ILE121     -0.2715
     92  CB        36.8130  -11.3490   46.3770 C.3   121  ILE121      0.0290
     93  CG1       37.2330  -11.3430   47.8410 C.3   121  ILE121      0.0022
     94  CG2       36.0860  -10.0480   46.0950 C.3   121  ILE121      0.0023
     95  CD1       38.5120  -12.1000   48.1060 C.3   121  ILE121      0.0001
     96  N         37.6810  -14.1630   45.6420 N.am  122  SER122     -0.1936
     97  CA        38.4500  -15.4130   45.7150 C.3   122  SER122      0.2055
     98  C         37.5970  -16.6560   45.9350 C.2   122  SER122      0.2642
     99  O         37.6080  -17.2690   47.0050 O.2   122  SER122     -0.2714
    100  CB        39.5650  -15.3120   46.7650 C.3   122  SER122      0.2130
    101  OG        39.0570  -15.4610   48.0690 O.3   122  SER122     -0.2179
    102  N         36.8610  -17.0160   44.8960 N.am  123  GLU123     -0.1976
    103  CA        36.0260  -18.2010   44.9070 C.3   123  GLU123      0.1602
    104  C         35.0260  -18.1790   46.0660 C.2   123  GLU123      0.2287
    105  O         34.6950  -19.2210   46.6100 O.2   123  GLU123     -0.2864
    106  CB        36.9020  -19.4670   44.9550 C.3   123  GLU123      0.0415
    107  CG        37.4640  -19.9220   43.6070 C.3   123  GLU123      0.1163
    108  CD        36.6610  -21.0610   42.9930 C.2   123  GLU123      0.3649
    109  OE1       35.6330  -20.7940   42.3460 O.co2 123  GLU123     -0.2457
    110  OE2       37.0550  -22.2330   43.1580 O.co2 123  GLU123     -0.2457
    111  N         33.9520   -8.3550   49.8880 N.3   128  MET128     -0.1245
    112  CA        34.4700   -7.0010   50.0040 C.3   128  MET128      0.1570
    113  C         33.3040   -6.0420   49.9510 C.2   128  MET128      0.2261
    114  O         32.5420   -6.0540   48.9950 O.2   128  MET128     -0.2867
    115  CB        35.4680   -6.6970   48.8760 C.3   128  MET128      0.0387
    116  CG        36.3840   -5.5240   49.1900 C.3   128  MET128      0.0595
    117  SD        37.6430   -5.2500   47.9320 S.3   128  MET128     -0.1393
    118  CE        38.4720   -6.8330   47.9670 C.3   128  MET128      0.0692
    119  N         35.0320   -0.3070   48.8720 N.3   133  LEU133     -0.1245
    120  CA        35.4000   -0.0380   47.4700 C.3   133  LEU133      0.1561
    121  C         35.2000    1.4320   47.1360 C.2   133  LEU133      0.2260
    122  O         36.1080    2.1030   46.6450 O.2   133  LEU133     -0.2867
    123  CB        34.5800   -0.9020   46.5200 C.3   133  LEU133      0.0270
    124  CG        34.9580   -2.3790   46.5720 C.3   133  LEU133      0.0019
    125  CD1       33.9210   -3.2320   45.8590 C.3   133  LEU133      0.0001
    126  CD2       36.3430   -2.6040   45.9830 C.3   133  LEU133      0.0001
    127  N         35.1450    2.7680   40.2960 N.3   142  PHE142     -0.1227
    128  CA        35.0610    1.8120   39.2000 C.3   142  PHE142      0.1736
    129  C         33.9670    0.7900   39.4560 C.2   142  PHE142      0.2595
    130  O         33.2790    0.3880   38.5260 O.2   142  PHE142     -0.2718
    131  CB        36.4350    1.1650   38.8580 C.3   142  PHE142      0.0547
    132  CG        36.8890    0.0580   39.7900 C.ar  142  PHE142     -0.0202
    133  CD1       36.6940   -1.2880   39.4600 C.ar  142  PHE142     -0.0042
    134  CD2       37.5940    0.3550   40.9490 C.ar  142  PHE142     -0.0042
    135  CE1       37.1480   -2.3070   40.2940 C.ar  142  PHE142     -0.0003
    136  CE2       38.0440   -0.6540   41.7860 C.ar  142  PHE142     -0.0003
    137  CZ        37.8190   -1.9830   41.4590 C.ar  142  PHE142     -0.0000
    138  N         33.7940    0.3780   40.7060 N.am  143  MET143     -0.1979
    139  CA        32.8250   -0.6600   41.0180 C.3   143  MET143      0.1605
    140  C         31.3950   -0.1630   41.1880 C.2   143  MET143      0.2287
    141  O         30.4590   -0.9460   41.0220 O.2   143  MET143     -0.2864
    142  CB        33.2580   -1.4540   42.2530 C.3   143  MET143      0.0413
    143  CG        34.3710   -2.4390   41.9550 C.3   143  MET143      0.0598
    144  SD        33.9450   -3.7130   40.7460 S.3   143  MET143     -0.1393
    145  CE        33.1600   -4.9200   41.8100 C.3   143  MET143      0.0692
@<TRIPOS>BOND
     1    39    38    2
     2    41    42    1
     3    48    46    1
     4    38    37    1
     5    46    45    1
     6    33    32    2
     7    45    42    1
     8    45    47    1
     9    42    43    1
    10    32    31    1
    11    37    36    1
    12    37    40    1
    13    55    56    1
    14    55    54    1
    15    43    44    2
    16    34    31    1
    17    34    35    1
    18    54    53    1
    19    31    30    1
    20    49    50    1
    21    53    50    1
    22    30    21   am
    23    22    21    2
    24    50    51    1
    25    21    20    1
    26    28    27    1
    27    57    51   am
    28    57    58    1
    29    51    52    2
    30    16    15    2
    31    19    20    1
    32    20    23    1
    33    15    14    1
    34    27    29    1
    35    27    26    2
    36    61    58    1
    37    61    62    1
    38   130   129    2
    39    58    59    1
    40    18    17    1
    41    64    62    1
    42   131   128    1
    43   131   132    1
    44    23    24    1
    45    25    24    1
    46    25    26    1
    47   128   129    1
    48   128   127    1
    49    62    63    1
    50    59    60    2
    51    14    17    1
    52    14    13    1
    53   129   138   am
    54   133   132   ar
    55   133   135   ar
    56    12    11    2
    57   132   134   ar
    58    13    11   am
    59    11    10    1
    60   135   137   ar
    61     9    10    1
    62   138   139    1
    63   144   145    1
    64   144   143    1
    65   134   136   ar
    66   139   140    1
    67   139   142    1
    68   141   140    2
    69    71    70    1
    70   137   136   ar
    71    70    72    1
    72    70    69    1
    73   143   142    1
    74    65    66    1
    75     4     3    2
    76   109   108   ar
    77     3     2    1
    78    69    66    1
    79   108   110   ar
    80   108   107    1
    81    66    67    1
    82   107   106    1
    83    79    77    1
    84    67    68    2
    85     2     1    1
    86     2     5    1
    87     7     5    1
    88   102   103    1
    89   102    98   am
    90   103   106    1
    91   103   104    1
    92     5     6    1
    93    83    82    2
    94    77    78    1
    95    77    74    1
    96    96    97    1
    97    96    90   am
    98    97    98    1
    99    97   100    1
   100   125   124    1
   101    98    99    2
   102   126   124    1
   103    89    90    1
   104    89    92    1
   105    89    88    1
   106   104   105    2
   107    94    92    1
   108    82    88   am
   109    82    81    1
   110    90    91    2
   111    92    93    1
   112     6     8    1
   113    74    75    1
   114    74    73    1
   115    84    81    1
   116    84    85    1
   117   123   124    1
   118   123   120    1
   119    80    81    1
   120    80    75   am
   121   122   121    2
   122   100   101    1
   123    86    85    1
   124    75    76    2
   125   121   120    1
   126    85    87    1
   127   120   119    1
   128    93    95    1
   129   117   118    1
   130   117   116    1
   131   115   116    1
   132   115   112    1
   133   114   113    2
   134   111   112    1
   135   113   112    1
