@<TRIPOS>MOLECULE
tmp/4pvvA00.pdb
 129 119 0 0 0
SMALL
GASTEIGER

@<TRIPOS>ATOM
      1  N         18.7580   -2.4740   15.2350 N.3     8  SER8       -0.1217
      2  CA        18.8870   -1.9750   13.8980 C.3     8  SER8        0.1889
      3  C         19.3130   -0.4880   13.8800 C.2     8  SER8        0.2288
      4  O         18.8600    0.3120   14.6510 O.2     8  SER8       -0.2866
      5  CB        17.5190   -2.1150   13.1760 C.3     8  SER8        0.2089
      6  OG        16.6320   -0.9610   13.3660 O.3     8  SER8       -0.2183
      7  N         19.0920    2.6960   11.2150 N.3    10  ALA10      -0.1245
      8  CA        18.5140    3.1510    9.9480 C.3    10  ALA10       0.1562
      9  C         18.4650    4.6850    9.8070 C.2    10  ALA10       0.2260
     10  O         18.5060    5.4840   10.8060 O.2    10  ALA10      -0.2867
     11  CB        17.0860    2.6400    9.8390 C.3    10  ALA10       0.0290
     12  N         15.3840    7.0970    8.2900 N.3    12  ASP12      -0.1239
     13  CA        13.8920    6.8830    8.2820 C.3    12  ASP12       0.1674
     14  C         13.2950    8.0180    7.5470 C.2    12  ASP12       0.2266
     15  O         13.4480    9.1360    7.9630 O.2    12  ASP12      -0.2867
     16  CB        13.2130    6.9770    9.6740 C.3    12  ASP12       0.1410
     17  CG        13.4210    5.7750   10.6090 C.2    12  ASP12       0.3668
     18  OD1       14.0850    4.6860   10.3600 O.co2  12  ASP12      -0.2456
     19  OD2       12.8260    5.9990   11.6930 O.co2  12  ASP12      -0.2456
     20  N         16.2290    3.7570   13.1800 N.3    48  GLY48      -0.1210
     21  CA        16.7520    2.4730   13.5560 C.3    48  GLY48       0.1956
     22  C         16.3950    2.2260   14.9850 C.2    48  GLY48       0.2611
     23  O         16.3130    3.2180   15.7950 O.2    48  GLY48      -0.2717
     24  N         16.1810    0.9310   15.3130 N.am   49  VAL49      -0.1979
     25  CA        15.5960    0.5930   16.6130 C.3    49  VAL49       0.1595
     26  C         16.6370    0.6730   17.6960 C.2    49  VAL49       0.2287
     27  O         16.3690    1.1350   18.8020 O.2    49  VAL49      -0.2864
     28  CB        14.8210   -0.7820   16.6460 C.3    49  VAL49       0.0276
     29  CG1       14.9220   -1.4700   18.0180 C.3    49  VAL49       0.0022
     30  CG2       13.3420   -0.5920   16.2660 C.3    49  VAL49       0.0022
     31  N         17.3710    4.5680   18.0900 N.3    52  ASN52      -0.1240
     32  CA        16.3950    5.4420   18.8000 C.3    52  ASN52       0.1653
     33  C         16.5880    5.2060   20.2760 C.2    52  ASN52       0.2266
     34  O         16.5200    6.1420   21.0460 O.2    52  ASN52      -0.2867
     35  CB        14.9190    5.2360   18.4450 C.3    52  ASN52       0.1155
     36  CG        14.5680    5.5330   16.9590 C.2    52  ASN52       0.2627
     37  OD1       14.6780    6.6760   16.4420 O.2    52  ASN52      -0.2716
     38  ND2       14.1080    4.4870   16.2640 N.am   52  ASN52      -0.0877
     39  N         14.2440    2.9740    6.1300 N.3   102  PHE102     -0.1241
     40  CA        12.8910    2.7560    6.5150 C.3   102  PHE102      0.1605
     41  C         12.0510    3.8210    5.8560 C.2   102  PHE102      0.2264
     42  O         12.1720    5.0310    6.1440 O.2   102  PHE102     -0.2867
     43  CB        12.7120    2.8610    8.0330 C.3   102  PHE102      0.0534
     44  CG        11.2570    2.7000    8.4820 C.ar  102  PHE102     -0.0203
     45  CD1       10.5850    1.4900    8.2830 C.ar  102  PHE102     -0.0042
     46  CD2       10.5480    3.7640    9.0170 C.ar  102  PHE102     -0.0042
     47  CE1        9.2300    1.3580    8.6530 C.ar  102  PHE102     -0.0003
     48  CE2        9.2010    3.6090    9.4180 C.ar  102  PHE102     -0.0003
     49  CZ         8.5440    2.4120    9.2420 C.ar  102  PHE102     -0.0000
     50  N          4.4980    1.0470    4.4440 N.3   114  ALA114     -0.1231
     51  CA         5.9840    1.0640    4.6020 C.3   114  ALA114      0.1694
     52  C          6.8620   -0.0010    3.8550 C.2   114  ALA114      0.2593
     53  O          6.4550   -1.1290    3.6170 O.2   114  ALA114     -0.2718
     54  CB         6.2930    0.9370    6.0990 C.3   114  ALA114      0.0304
     55  N          8.1240    0.3340    3.6000 N.am  115  SER115     -0.1938
     56  CA         9.0890   -0.6150    3.0250 C.3   115  SER115      0.2055
     57  C         10.3130   -0.6560    3.8810 C.2   115  SER115      0.2643
     58  O         10.6530    0.3460    4.4760 O.2   115  SER115     -0.2714
     59  CB         9.5180   -0.1290    1.6600 C.3   115  SER115      0.2130
     60  OG         8.4900   -0.3160    0.6830 O.3   115  SER115     -0.2179
     61  N         11.0280   -1.7640    3.9140 N.am  116  PHE116     -0.1973
     62  CA        12.2890   -1.8100    4.6990 C.3   116  PHE116      0.1639
     63  C         13.4720   -2.3480    3.8940 C.2   116  PHE116      0.2290
     64  O         13.5780   -3.5390    3.6930 O.2   116  PHE116     -0.2864
     65  CB        12.1650   -2.5320    6.0540 C.3   116  PHE116      0.0560
     66  CG        13.4030   -2.3930    6.9260 C.ar  116  PHE116     -0.0200
     67  CD1       13.6540   -1.2380    7.6500 C.ar  116  PHE116     -0.0042
     68  CD2       14.3750   -3.3850    6.9840 C.ar  116  PHE116     -0.0042
     69  CE1       14.8140   -1.0780    8.4120 C.ar  116  PHE116     -0.0003
     70  CE2       15.5600   -3.2090    7.7760 C.ar  116  PHE116     -0.0003
     71  CZ        15.7550   -2.0440    8.4760 C.ar  116  PHE116     -0.0000
     72  N         22.4800   -4.0800    7.5780 N.3   121  MET121     -0.1245
     73  CA        21.8510   -4.7320    8.7380 C.3   121  MET121      0.1570
     74  C         21.9910   -6.2610    8.7680 C.2   121  MET121      0.2261
     75  O         21.9670   -6.8140    9.8600 O.2   121  MET121     -0.2867
     76  CB        20.3500   -4.4190    8.8140 C.3   121  MET121      0.0387
     77  CG        19.7130   -4.9640   10.1140 C.3   121  MET121      0.0595
     78  SD        18.0090   -4.4590   10.2630 S.3   121  MET121     -0.1393
     79  CE        17.2260   -5.9470    9.5560 C.3   121  MET121      0.0692
     80  N         14.8480   -5.2730   17.5750 N.3   146  ALA146     -0.1231
     81  CA        14.4770   -5.7800   16.2770 C.3   146  ALA146      0.1694
     82  C         15.6160   -5.4700   15.2790 C.2   146  ALA146      0.2592
     83  O         16.0790   -4.3590   15.2070 O.2   146  ALA146     -0.2718
     84  CB        13.1670   -5.2080   15.7890 C.3   146  ALA146      0.0304
     85  N         16.0360   -6.4850   14.5360 N.am  147  ASN147     -0.1974
     86  CA        17.3400   -6.4730   13.8200 C.3   147  ASN147      0.1688
     87  C         17.2210   -7.4190   12.6250 C.2   147  ASN147      0.2292
     88  O         16.1060   -7.8170   12.2370 O.2   147  ASN147     -0.2864
     89  CB        18.4600   -7.0010   14.7520 C.3   147  ASN147      0.1181
     90  CG        19.8540   -6.4940   14.4060 C.2   147  ASN147      0.2629
     91  OD1       20.1240   -6.0430   13.2690 O.2   147  ASN147     -0.2716
     92  ND2       20.7810   -6.5880   15.3950 N.am  147  ASN147     -0.0877
     93  N          8.8590   -6.7530   15.7850 N.3   172  GLN172     -0.1231
     94  CA         8.7590   -6.7060   14.3410 C.3   172  GLN172      0.1698
     95  C          8.7820   -8.1070   13.7340 C.2   172  GLN172      0.2592
     96  O          8.1290   -8.3750   12.7480 O.2   172  GLN172     -0.2718
     97  CB         9.8750   -5.7630   13.7870 C.3   172  GLN172      0.0381
     98  CG        10.0660   -4.4810   14.6420 C.3   172  GLN172      0.0905
     99  CD         9.9790   -3.1440   13.8880 C.2   172  GLN172      0.2608
    100  OE1        9.5220   -3.0940   12.7570 O.2   172  GLN172     -0.2717
    101  NE2       10.3570   -2.0270   14.5650 N.am  172  GLN172     -0.0878
    102  N          9.5220   -9.0000   14.3570 N.am  173  GLN173     -0.1979
    103  CA         9.7460  -10.3360   13.8090 C.3   173  GLN173      0.1601
    104  C          8.7830  -11.4140   14.2890 C.2   173  GLN173      0.2287
    105  O          8.9240  -12.5680   13.9440 O.2   173  GLN173     -0.2864
    106  CB        11.1600  -10.7800   14.1620 C.3   173  GLN173      0.0394
    107  CG        12.2260  -10.0610   13.3840 C.3   173  GLN173      0.0908
    108  CD        12.1040  -10.3480   11.9130 C.2   173  GLN173      0.2608
    109  OE1       11.5980  -11.4000   11.4840 O.2   173  GLN173     -0.2717
    110  NE2       12.5550   -9.4060   11.1180 N.am  173  GLN173     -0.0878
    111  N          5.8910    6.4290   14.9150 N.3   250  THR250     -0.1203
    112  CA         7.1960    5.7690   14.9520 C.3   250  THR250      0.1994
    113  C          8.0480    6.2290   16.0960 C.2   250  THR250      0.2618
    114  O          8.1100    7.4480   16.4120 O.2   250  THR250     -0.2717
    115  CB         7.9370    6.0380   13.6130 C.3   250  THR250      0.1784
    116  OG1        7.1500    5.5110   12.5280 O.3   250  THR250     -0.2211
    117  CG2        9.3490    5.4410   13.5590 C.3   250  THR250      0.0376
    118  N          8.7350    5.2650   16.6930 N.am  251  GLY251     -0.1956
    119  CA         9.7420    5.5540   17.7430 C.3   251  GLY251      0.1869
    120  C          9.2600    5.3340   19.1460 C.2   251  GLY251      0.2309
    121  O          9.9410    4.7140   19.9130 O.2   251  GLY251     -0.2863
    122  N         10.0270    2.0870   21.1760 N.3   254  ASP254     -0.1239
    123  CA        11.4350    2.0210   21.5840 C.3   254  ASP254      0.1674
    124  C         11.7760    3.0940   22.6670 C.2   254  ASP254      0.2266
    125  O         12.7290    2.9640   23.4620 O.2   254  ASP254     -0.2867
    126  CB        12.3240    2.2300   20.3700 C.3   254  ASP254      0.1410
    127  CG        12.1440    1.1460   19.2960 C.2   254  ASP254      0.3668
    128  OD1       12.2690   -0.0640   19.6130 O.co2 254  ASP254     -0.2456
    129  OD2       11.9010    1.5200   18.1280 O.co2 254  ASP254     -0.2456
@<TRIPOS>BOND
     1    60    59    1
     2    59    56    1
     3    56    55    1
     4    56    57    1
     5    55    52   am
     6    53    52    2
     7    64    63    2
     8    52    51    1
     9    57    61   am
    10    57    58    2
    11    63    62    1
    12    61    62    1
    13    50    51    1
    14    51    54    1
    15    62    65    1
    16    41    42    2
    17    41    40    1
    18    65    66    1
    19    39    40    1
    20    40    43    1
    21    66    68   ar
    22    66    67   ar
    23    68    70   ar
    24    14    15    2
    25    14    13    1
    26    72    73    1
    27    67    69   ar
    28    70    71   ar
    29    43    44    1
    30    13    12    1
    31    13    16    1
    32    45    44   ar
    33    45    47   ar
    34    69    71   ar
    35    44    46   ar
    36    47    49   ar
    37    73    74    1
    38    73    76    1
    39    74    75    2
    40    76    77    1
    41    46    48   ar
    42    49    48   ar
    43    79    78    1
    44    16    17    1
    45     9     8    1
    46     9    10    2
    47    11     8    1
    48     8     7    1
    49    77    78    1
    50    18    17   ar
    51    17    19   ar
    52   110   108   am
    53   109   108    2
    54   108   107    1
    55    88    87    2
    56   116   115    1
    57    87    86    1
    58    96    95    2
    59   100    99    2
    60     5     6    1
    61     5     2    1
    62    20    21    1
    63    91    90    2
    64   107   106    1
    65    21    22    1
    66   117   115    1
    67   115   112    1
    68    95    94    1
    69    95   102   am
    70    97    94    1
    71    97    98    1
    72   103   106    1
    73   103   104    1
    74   103   102    1
    75    86    85    1
    76    86    89    1
    77     3     2    1
    78     3     4    2
    79    99   101   am
    80    99    98    1
    81     2     1    1
    82   105   104    2
    83    94    93    1
    84    90    89    1
    85    90    92   am
    86    85    82   am
    87   111   112    1
    88   112   113    1
    89    22    24   am
    90    22    23    2
    91    83    82    2
    92    82    81    1
    93    24    25    1
    94    84    81    1
    95   113   114    2
    96   113   118   am
    97    38    36   am
    98    30    28    1
    99    81    80    1
   100    37    36    2
   101    25    28    1
   102    25    26    1
   103    28    29    1
   104   118   119    1
   105    36    35    1
   106    26    27    2
   107   119   120    1
   108    31    32    1
   109   129   127   ar
   110    35    32    1
   111    32    33    1
   112   120   121    2
   113   127   128   ar
   114   127   126    1
   115    33    34    2
   116   126   123    1
   117   122   123    1
   118   123   124    1
   119   124   125    2
