@<TRIPOS>MOLECULE
tmp/4pvxA00.pdb
 213 199 0 0 0
SMALL
GASTEIGER

@<TRIPOS>ATOM
      1  N         10.5930   26.6170   -1.0900 N.3    89  GLN89      -0.1245
      2  CA        11.0130   27.9240   -1.5770 C.3    89  GLN89       0.1566
      3  C         12.0830   28.5830   -0.5950 C.2    89  GLN89       0.2260
      4  O         13.0700   29.1320   -1.0370 O.2    89  GLN89      -0.2867
      5  CB         9.7780   28.7650   -1.6830 C.3    89  GLN89       0.0367
      6  CG         9.9270   30.2700   -1.7900 C.3    89  GLN89       0.0905
      7  CD        10.1820   30.6220   -3.1890 C.2    89  GLN89       0.2608
      8  OE1       11.0810   30.0960   -3.7670 O.2    89  GLN89      -0.2717
      9  NE2        9.3260   31.4120   -3.7810 N.am   89  GLN89      -0.0878
     10  N         14.2390   27.0940    1.3310 N.3    91  PHE91      -0.1227
     11  CA        15.4840   26.3920    1.0430 C.3    91  PHE91       0.1736
     12  C         16.1660   26.9380   -0.2210 C.2    91  PHE91       0.2595
     13  O         17.3880   27.2850   -0.2310 O.2    91  PHE91      -0.2718
     14  CB        15.1120   24.8940    0.9900 C.3    91  PHE91       0.0547
     15  CG        15.9900   24.0140    0.1610 C.ar   91  PHE91      -0.0202
     16  CD1       17.3210   23.8740    0.4190 C.ar   91  PHE91      -0.0042
     17  CD2       15.4360   23.2510   -0.8560 C.ar   91  PHE91      -0.0042
     18  CE1       18.1230   22.9990   -0.3230 C.ar   91  PHE91      -0.0003
     19  CE2       16.1980   22.3880   -1.5960 C.ar   91  PHE91      -0.0003
     20  CZ        17.5420   22.2460   -1.3200 C.ar   91  PHE91      -0.0000
     21  N         15.3630   27.0650   -1.2860 N.am   92  PHE92      -0.1962
     22  CA        15.8680   27.5300   -2.5640 C.3    92  PHE92       0.1771
     23  C         16.4660   28.9300   -2.4560 C.2    92  PHE92       0.2619
     24  O         17.5460   29.1840   -2.9750 O.2    92  PHE92      -0.2715
     25  CB        14.7810   27.5380   -3.6650 C.3    92  PHE92       0.0574
     26  CG        14.2940   26.1560   -4.1070 C.ar   92  PHE92      -0.0200
     27  CD1       15.0710   25.0140   -3.9670 C.ar   92  PHE92      -0.0042
     28  CD2       13.0260   26.0060   -4.6940 C.ar   92  PHE92      -0.0042
     29  CE1       14.6130   23.7560   -4.4190 C.ar   92  PHE92      -0.0003
     30  CE2       12.5810   24.7700   -5.1300 C.ar   92  PHE92      -0.0003
     31  CZ        13.3510   23.6440   -4.9750 C.ar   92  PHE92      -0.0000
     32  N         15.7510   29.8380   -1.8010 N.am   93  LEU93      -0.1977
     33  CA        16.1500   31.2310   -1.7930 C.3    93  LEU93       0.1596
     34  C         17.4370   31.3840   -1.0160 C.2    93  LEU93       0.2287
     35  O         18.3880   32.0110   -1.4880 O.2    93  LEU93      -0.2864
     36  CB        15.0460   32.1560   -1.2630 C.3    93  LEU93       0.0297
     37  CG        14.6160   32.1930    0.2120 C.3    93  LEU93       0.0022
     38  CD1       15.4890   33.0930    1.0700 C.3    93  LEU93       0.0001
     39  CD2       13.1530   32.6370    0.3020 C.3    93  LEU93       0.0001
     40  N         19.8840   29.4000   -0.4200 N.3    95  ALA95      -0.1231
     41  CA        20.9890   28.9080   -1.2190 C.3    95  ALA95       0.1694
     42  C         21.2470   29.7960   -2.4390 C.2    95  ALA95       0.2592
     43  O         22.3910   30.0640   -2.7740 O.2    95  ALA95      -0.2718
     44  CB        20.7350   27.4410   -1.6650 C.3    95  ALA95       0.0304
     45  N         20.1860   30.1510   -3.1550 N.am   96  ASP96      -0.1960
     46  CA        20.3050   31.0140   -4.3410 C.3    96  ASP96       0.1840
     47  C         20.9650   32.3900   -3.9890 C.2    96  ASP96       0.2622
     48  O         21.8240   32.8950   -4.7220 O.2    96  ASP96      -0.2715
     49  CB        18.9310   31.2660   -4.9220 C.3    96  ASP96       0.1450
     50  CG        18.9670   32.1620   -6.1620 C.2    96  ASP96       0.3671
     51  OD1       19.3900   31.7010   -7.2850 O.co2  96  ASP96      -0.2456
     52  OD2       18.4360   33.3060   -6.0600 O.co2  96  ASP96      -0.2456
     53  N         20.5640   32.9870   -2.8780 N.am   97  ASP97      -0.1971
     54  CA        21.1610   34.2690   -2.4480 C.3    97  ASP97       0.1709
     55  C         22.6630   34.1990   -2.2760 C.2    97  ASP97       0.2293
     56  O         23.4170   35.0850   -2.6800 O.2    97  ASP97      -0.2864
     57  CB        20.4630   34.8040   -1.2120 C.3    97  ASP97       0.1436
     58  CG        19.1170   35.4040   -1.5300 C.2    97  ASP97       0.3671
     59  OD1       18.9350   35.7820   -2.7080 O.co2  97  ASP97      -0.2456
     60  OD2       18.2520   35.5220   -0.6200 O.co2  97  ASP97      -0.2456
     61  N         24.5580   31.8880   -3.8960 N.3    99  MET99      -0.1230
     62  CA        25.1120   31.6690   -5.2640 C.3    99  MET99       0.1702
     63  C         25.0560   32.8990   -6.1940 C.2    99  MET99       0.2592
     64  O         25.8370   33.0120   -7.1140 O.2    99  MET99      -0.2718
     65  CB        24.4000   30.5130   -5.9380 C.3    99  MET99       0.0401
     66  CG        24.7510   29.1930   -5.2680 C.3    99  MET99       0.0596
     67  SD        24.0380   27.7580   -6.0600 S.3    99  MET99      -0.1393
     68  CE        22.5100   27.6660   -5.3370 C.3    99  MET99       0.0692
     69  N         24.1220   33.7860   -5.9310 N.am  100  ASP100     -0.1974
     70  CA        23.9330   35.0250   -6.6810 C.3   100  ASP100      0.1709
     71  C         24.5960   36.2260   -6.0620 C.2   100  ASP100      0.2293
     72  O         24.5480   37.2900   -6.6450 O.2   100  ASP100     -0.2864
     73  CB        22.4230   35.2780   -6.8990 C.3   100  ASP100      0.1436
     74  CG        21.7930   34.2550   -7.8480 C.2   100  ASP100      0.3671
     75  OD1       22.5500   33.5200   -8.5440 O.co2 100  ASP100     -0.2456
     76  OD2       20.5550   34.1910   -7.9420 O.co2 100  ASP100     -0.2456
     77  N         23.6410   37.9170   -3.5010 N.3   102  SER102     -0.1217
     78  CA        22.6050   38.8890   -3.2770 C.3   102  SER102      0.1889
     79  C         22.7970   39.6040   -1.9450 C.2   102  SER102      0.2288
     80  O         23.4800   39.1100   -1.0390 O.2   102  SER102     -0.2866
     81  CB        21.2460   38.1990   -3.4170 C.3   102  SER102      0.2089
     82  OG        21.0050   37.8510   -4.8120 O.3   102  SER102     -0.2183
     83  N         16.6790   40.3790    0.7150 N.3   105  ARG105     -0.1245
     84  CA        15.5770   39.5220    0.3260 C.3   105  ARG105      0.1563
     85  C         14.4250   39.7740    1.3070 C.2   105  ARG105      0.2260
     86  O         14.6460   39.9140    2.5350 O.2   105  ARG105     -0.2867
     87  CB        16.0850   38.0990    0.3220 C.3   105  ARG105      0.0307
     88  CG        15.0700   36.9740    0.4040 C.3   105  ARG105      0.0489
     89  CD        14.5360   36.5010   -0.9180 C.3   105  ARG105      0.2205
     90  NE        15.5710   35.8980   -1.7530 N.pl3 105  ARG105     -0.0865
     91  CZ        15.4080   35.7050   -3.0610 C.cat 105  ARG105      0.5346
     92  NH1       14.2350   36.0120   -3.6070 N.pl3 105  ARG105      0.1354
     93  NH2       16.3740   35.1820   -3.8060 N.pl3 105  ARG105      0.1354
     94  N         14.0100   21.5510  -10.3330 N.3   160  THR160     -0.1203
     95  CA        14.4150   22.8680   -9.9520 C.3   160  THR160      0.1994
     96  C         15.9080   22.9630   -9.9250 C.2   160  THR160      0.2617
     97  O         16.4560   23.9710  -10.3620 O.2   160  THR160     -0.2717
     98  CB        13.8450   23.2900   -8.5470 C.3   160  THR160      0.1784
     99  OG1       12.4280   23.3120   -8.5910 O.3   160  THR160     -0.2211
    100  CG2       14.3140   24.6860   -8.1900 C.3   160  THR160      0.0376
    101  N         16.5820   21.9280   -9.4220 N.am  161  GLU161     -0.1979
    102  CA        18.0600   21.9330   -9.3730 C.3   161  GLU161      0.1602
    103  C         18.6870   21.7840  -10.7670 C.2   161  GLU161      0.2287
    104  O         19.8040   22.2780  -11.0420 O.2   161  GLU161     -0.2864
    105  CB        18.5830   20.8660   -8.3840 C.3   161  GLU161      0.0415
    106  CG        18.1820   21.2320   -6.9520 C.3   161  GLU161      0.1163
    107  CD        18.1450   20.0890   -5.9740 C.2   161  GLU161      0.3649
    108  OE1       18.4930   18.9450   -6.3050 O.co2 161  GLU161     -0.2457
    109  OE2       17.7330   20.3530   -4.8540 O.co2 161  GLU161     -0.2457
    110  N         18.4610   25.2260  -12.0390 N.3   164  GLN164     -0.1245
    111  CA        19.5600   26.0220  -11.4320 C.3   164  GLN164      0.1566
    112  C         20.9400   25.7200  -12.0780 C.2   164  GLN164      0.2260
    113  O         21.7370   26.6190  -12.3170 O.2   164  GLN164     -0.2867
    114  CB        19.6030   25.7960   -9.9150 C.3   164  GLN164      0.0367
    115  CG        20.6160   26.6500   -9.1290 C.3   164  GLN164      0.0905
    116  CD        20.3050   28.1570   -9.1280 C.2   164  GLN164      0.2608
    117  OE1       19.2880   28.5870   -9.6680 O.2   164  GLN164     -0.2717
    118  NE2       21.1760   28.9610   -8.4810 N.am  164  GLN164     -0.0878
    119  N         20.9540   27.6130  -15.2680 N.3   167  ASP167     -0.1239
    120  CA        21.1070   29.0130  -14.8690 C.3   167  ASP167      0.1674
    121  C         22.5930   29.3390  -14.6280 C.2   167  ASP167      0.2266
    122  O         23.1270   30.3050  -15.2080 O.2   167  ASP167     -0.2867
    123  CB        20.2050   29.3240  -13.6530 C.3   167  ASP167      0.1410
    124  CG        20.4290   30.7340  -13.0680 C.2   167  ASP167      0.3668
    125  OD1       21.4730   30.9580  -12.4010 O.co2 167  ASP167     -0.2456
    126  OD2       19.5470   31.6030  -13.2130 O.co2 167  ASP167     -0.2456
    127  N         13.8260   25.7900  -13.5540 N.3   193  LYS193     -0.1231
    128  CA        14.1890   26.4490  -12.3120 C.3   193  LYS193      0.1693
    129  C         13.0450   27.0690  -11.5560 C.2   193  LYS193      0.2592
    130  O         13.1280   27.1920  -10.3360 O.2   193  LYS193     -0.2718
    131  CB        15.3080   27.4740  -12.5300 C.3   193  LYS193      0.0285
    132  CG        14.9270   28.8740  -12.9540 C.3   193  LYS193      0.0035
    133  CD        16.0620   29.8370  -12.6880 C.3   193  LYS193      0.0206
    134  CE        15.7780   31.1800  -13.4110 C.3   193  LYS193      0.1093
    135  NZ        16.7010   32.3000  -13.0370 N.3   193  LYS193     -0.1314
    136  N         11.9750   27.4250  -12.2570 N.am  194  THR194     -0.1953
    137  CA        10.8910   28.1840  -11.6640 C.3   194  THR194      0.1897
    138  C          9.4850   27.5520  -11.8600 C.2   194  THR194      0.2313
    139  O          8.7260   27.4110  -10.9160 O.2   194  THR194     -0.2863
    140  CB        10.8980   29.6280  -12.2490 C.3   194  THR194      0.1794
    141  OG1       12.0270   30.3210  -11.7050 O.3   194  THR194     -0.2208
    142  CG2        9.6230   30.3960  -11.8020 C.3   194  THR194      0.0378
    143  N          8.1870   24.1550   -9.7760 N.3   197  TYR197     -0.1241
    144  CA         7.9320   24.2750   -8.3500 C.3   197  TYR197      0.1605
    145  C          6.9810   25.4010   -7.9870 C.2   197  TYR197      0.2264
    146  O          6.3330   25.3230   -6.9200 O.2   197  TYR197     -0.2867
    147  CB         9.2440   24.4140   -7.5450 C.3   197  TYR197      0.0534
    148  CG         9.7170   25.8430   -7.2100 C.ar  197  TYR197     -0.0201
    149  CD1        9.3150   26.4480   -6.0570 C.ar  197  TYR197     -0.0009
    150  CD2       10.5810   26.5670   -8.0740 C.ar  197  TYR197     -0.0009
    151  CE1        9.7400   27.7120   -5.7160 C.ar  197  TYR197      0.0417
    152  CE2       11.0330   27.8510   -7.7390 C.ar  197  TYR197      0.0417
    153  CZ        10.5910   28.4220   -6.5650 C.ar  197  TYR197      0.1957
    154  OH        11.0040   29.6790   -6.1680 O.3   197  TYR197     -0.2866
    155  N          8.6440   34.0510  -14.4440 N.3   233  GLN233     -0.1245
    156  CA        10.0620   34.2460  -14.4040 C.3   233  GLN233      0.1566
    157  C         10.4870   35.4360  -15.2440 C.2   233  GLN233      0.2260
    158  O         11.3530   36.1820  -14.8580 O.2   233  GLN233     -0.2867
    159  CB        10.8130   32.9820  -14.8260 C.3   233  GLN233      0.0367
    160  CG        12.3080   33.0770  -14.5730 C.3   233  GLN233      0.0905
    161  CD        12.6300   33.4460  -13.1250 C.2   233  GLN233      0.2608
    162  OE1       12.1480   32.8410  -12.1950 O.2   233  GLN233     -0.2717
    163  NE2       13.4580   34.4390  -12.9510 N.am  233  GLN233     -0.0878
    164  N          9.9140   38.2990  -13.1410 N.3   236  ASP236     -0.1225
    165  CA        10.9650   38.3260  -12.1530 C.3   236  ASP236      0.1805
    166  C         12.2180   38.9660  -12.7220 C.2   236  ASP236      0.2597
    167  O         12.8680   39.7990  -12.0450 O.2   236  ASP236     -0.2718
    168  CB        11.2810   36.9210  -11.6150 C.3   236  ASP236      0.1424
    169  CG        12.3300   36.9520  -10.5490 C.2   236  ASP236      0.3668
    170  OD1       12.0200   37.4820   -9.4740 O.co2 236  ASP236     -0.2456
    171  OD2       13.4820   36.4580  -10.7570 O.co2 236  ASP236     -0.2456
    172  N         12.5650   38.6030  -13.9580 N.am  237  ASP237     -0.1974
    173  CA        13.7230   39.2120  -14.5670 C.3   237  ASP237      0.1709
    174  C         13.4960   40.7270  -14.8290 C.2   237  ASP237      0.2293
    175  O         14.4140   41.5400  -14.5990 O.2   237  ASP237     -0.2864
    176  CB        14.0960   38.5090  -15.8620 C.3   237  ASP237      0.1436
    177  CG        14.5030   37.0660  -15.6730 C.2   237  ASP237      0.3671
    178  OD1       14.7860   36.6260  -14.5390 O.co2 237  ASP237     -0.2456
    179  OD2       14.5200   36.3570  -16.7090 O.co2 237  ASP237     -0.2456
    180  N         13.8830   42.5840  -11.6270 N.3   240  ASP240     -0.1239
    181  CA        15.2450   42.5700  -11.1000 C.3   240  ASP240      0.1674
    182  C         15.9270   43.9130  -11.3050 C.2   240  ASP240      0.2266
    183  O         16.6610   44.3720  -10.4310 O.2   240  ASP240     -0.2867
    184  CB        16.0700   41.5210  -11.7900 C.3   240  ASP240      0.1410
    185  CG        17.3680   41.2500  -11.0690 C.2   240  ASP240      0.3668
    186  OD1       17.3310   40.5930  -10.0240 O.co2 240  ASP240     -0.2456
    187  OD2       18.4170   41.7170  -11.5360 O.co2 240  ASP240     -0.2456
    188  N         13.9810   43.2980   -2.6530 N.3   250  LYS250     -0.1245
    189  CA        15.3080   42.7580   -2.9610 C.3   250  LYS250      0.1561
    190  C         16.0050   43.4920   -4.0860 C.2   250  LYS250      0.2260
    191  O         15.3930   43.9910   -5.0580 O.2   250  LYS250     -0.2867
    192  CB        15.2300   41.2460   -3.2900 C.3   250  LYS250      0.0271
    193  CG        14.7170   40.9700   -4.6810 C.3   250  LYS250      0.0035
    194  CD        14.1910   39.5450   -4.8780 C.3   250  LYS250      0.0206
    195  CE        13.4290   39.5610   -6.1940 C.3   250  LYS250      0.1093
    196  NZ        13.0430   38.2640   -6.7740 N.3   250  LYS250     -0.1314
    197  N         21.1520   40.5840  -11.6530 N.3   254  ASP254     -0.1239
    198  CA        21.2370   39.7630  -12.8790 C.3   254  ASP254      0.1674
    199  C         22.3490   40.2270  -13.8290 C.2   254  ASP254      0.2266
    200  O         23.1280   39.4320  -14.2910 O.2   254  ASP254     -0.2867
    201  CB        19.9150   39.7180  -13.6270 C.3   254  ASP254      0.1410
    202  CG        18.8690   38.8370  -12.9320 C.2   254  ASP254      0.3668
    203  OD1       19.2200   38.0870  -11.9610 O.co2 254  ASP254     -0.2456
    204  OD2       17.6990   38.9280  -13.3830 O.co2 254  ASP254     -0.2456
    205  N         23.6380   37.0590  -15.9860 N.3   259  LYS259     -0.1245
    206  CA        22.5580   36.0920  -16.1770 C.3   259  LYS259      0.1561
    207  C         21.9150   36.1420  -17.5570 C.2   259  LYS259      0.2260
    208  O         21.8220   37.1850  -18.1690 O.2   259  LYS259     -0.2867
    209  CB        21.4650   36.3130  -15.1390 C.3   259  LYS259      0.0271
    210  CG        21.8190   35.9790  -13.6820 C.3   259  LYS259      0.0035
    211  CD        22.3380   34.5500  -13.4780 C.3   259  LYS259      0.0206
    212  CE        22.7780   34.3980  -12.0110 C.3   259  LYS259      0.1093
    213  NZ        23.6170   33.2120  -11.7500 N.3   259  LYS259     -0.1314
@<TRIPOS>BOND
     1   208   207    2
     2   207   206    1
     3   179   177   ar
     4   206   205    1
     5   206   209    1
     6   176   177    1
     7   176   173    1
     8   177   178   ar
     9   119   120    1
    10   157   158    2
    11   157   156    1
    12   122   121    2
    13   209   210    1
    14   120   121    1
    15   120   123    1
    16   174   175    2
    17   174   173    1
    18   159   160    1
    19   159   156    1
    20   160   161    1
    21   173   172    1
    22   155   156    1
    23   200   199    2
    24   172   166   am
    25   199   198    1
    26   210   211    1
    27   123   124    1
    28   201   202    1
    29   201   198    1
    30   127   128    1
    31   211   212    1
    32   134   135    1
    33   134   133    1
    34   204   202   ar
    35   126   124   ar
    36   164   165    1
    37   161   163   am
    38   161   162    2
    39   124   125   ar
    40   132   133    1
    41   132   131    1
    42   202   203   ar
    43   198   197    1
    44   166   165    1
    45   166   167    2
    46   131   128    1
    47   113   112    2
    48   128   129    1
    49   136   137    1
    50   136   129   am
    51   140   142    1
    52   140   141    1
    53   140   137    1
    54   165   168    1
    55   112   111    1
    56   110   111    1
    57   212   213    1
    58   138   137    1
    59   138   139    2
    60   184   181    1
    61   184   185    1
    62   180   181    1
    63   168   169    1
    64   129   130    2
    65   187   185   ar
    66   111   114    1
    67   182   181    1
    68   182   183    2
    69   185   186   ar
    70   104   103    2
    71   103   102    1
    72   171   169   ar
    73   169   170   ar
    74    97    96    2
    75    94    95    1
    76    95    96    1
    77    95    98    1
    78    96   101   am
    79   114   115    1
    80   143   144    1
    81   117   116    2
    82   101   102    1
    83   102   105    1
    84   115   116    1
    85   116   118   am
    86    99    98    1
    87    98   100    1
    88    75    74   ar
    89   105   106    1
    90   144   145    1
    91   144   147    1
    92   150   152   ar
    93   150   148   ar
    94   145   146    2
    95    76    74   ar
    96    74    73    1
    97   152   153   ar
    98   147   148    1
    99    51    50   ar
   100   148   149   ar
   101    64    63    2
   102   106   107    1
   103    73    70    1
   104   196   195    1
   105    70    71    1
   106    70    69    1
   107    72    71    2
   108   153   154    1
   109   153   151   ar
   110   108   107   ar
   111   195   194    1
   112    63    69   am
   113    63    62    1
   114    50    52   ar
   115    50    49    1
   116    67    68    1
   117    67    66    1
   118   149   151   ar
   119   107   109   ar
   120    65    66    1
   121    65    62    1
   122    62    61    1
   123    30    31   ar
   124    30    28   ar
   125   191   190    2
   126    31    29   ar
   127    49    46    1
   128   194   193    1
   129    82    81    1
   130    48    47    2
   131    28    26   ar
   132   193   192    1
   133    29    27   ar
   134    46    47    1
   135    46    45    1
   136    26    27   ar
   137    26    25    1
   138   190   189    1
   139    47    53   am
   140    93    91    1
   141     9     7   am
   142     8     7    2
   143    25    22    1
   144    92    91    1
   145    77    78    1
   146    81    78    1
   147   192   189    1
   148    78    79    1
   149     7     6    1
   150    45    42   am
   151    91    90    2
   152    24    23    2
   153   189   188    1
   154    53    54    1
   155    43    42    2
   156    59    58   ar
   157    56    55    2
   158    22    23    1
   159    22    21    1
   160    23    32   am
   161    54    55    1
   162    54    57    1
   163    42    41    1
   164    79    80    2
   165    32    33    1
   166    33    36    1
   167    33    34    1
   168     6     5    1
   169    90    89    1
   170     5     2    1
   171    44    41    1
   172    19    20   ar
   173    19    17   ar
   174     2     1    1
   175     2     3    1
   176    58    57    1
   177    58    60   ar
   178    35    34    2
   179    20    18   ar
   180    21    12   am
   181    36    37    1
   182    41    40    1
   183     4     3    2
   184    89    88    1
   185    17    15   ar
   186    18    16   ar
   187    13    12    2
   188    12    11    1
   189    15    16   ar
   190    15    14    1
   191    37    39    1
   192    37    38    1
   193    87    84    1
   194    87    88    1
   195    84    83    1
   196    84    85    1
   197    14    11    1
   198    11    10    1
   199    85    86    2
