@<TRIPOS>MOLECULE
tmp/4pvyA00.pdb
 224 209 0 0 0
SMALL
GASTEIGER

@<TRIPOS>ATOM
      1  N          2.5700   30.5390   -2.9800 N.3    53  ARG53      -0.1245
      2  CA         2.6990   29.1190   -3.3900 C.3    53  ARG53       0.1563
      3  C          1.9900   28.2390   -2.3500 C.2    53  ARG53       0.2260
      4  O          1.2170   27.3390   -2.6920 O.2    53  ARG53      -0.2867
      5  CB         4.1770   28.7210   -3.5890 C.3    53  ARG53       0.0307
      6  CG         4.8970   29.4500   -4.7260 C.3    53  ARG53       0.0489
      7  CD         6.4050   29.1170   -4.6020 C.3    53  ARG53       0.2205
      8  NE         7.2290   29.9510   -5.4790 N.pl3  53  ARG53      -0.0865
      9  CZ         7.6340   31.1980   -5.2210 C.cat  53  ARG53       0.5346
     10  NH1        7.3090   31.8100   -4.0790 N.pl3  53  ARG53       0.1354
     11  NH2        8.3990   31.8210   -6.1000 N.pl3  53  ARG53       0.1354
     12  N         10.2750   26.5140   -0.7870 N.3    89  GLN89      -0.1245
     13  CA        10.6670   27.8040   -1.2570 C.3    89  GLN89       0.1566
     14  C         11.7480   28.4070   -0.3330 C.2    89  GLN89       0.2260
     15  O         12.6520   29.0220   -0.8220 O.2    89  GLN89      -0.2867
     16  CB         9.4580   28.7040   -1.3150 C.3    89  GLN89       0.0367
     17  CG         9.7170   30.2190   -1.5140 C.3    89  GLN89       0.0905
     18  CD        10.3840   30.5390   -2.8570 C.2    89  GLN89       0.2608
     19  OE1       10.4560   29.7200   -3.7480 O.2    89  GLN89      -0.2717
     20  NE2       10.9200   31.7480   -2.9730 N.am   89  GLN89      -0.0878
     21  N         14.0480   26.9040    1.5930 N.3    91  PHE91      -0.1227
     22  CA        15.2020   26.1270    1.2250 C.3    91  PHE91       0.1736
     23  C         15.8780   26.6910   -0.0110 C.2    91  PHE91       0.2595
     24  O         17.0810   27.0370    0.0300 O.2    91  PHE91      -0.2718
     25  CB        14.7530   24.6460    1.0520 C.3    91  PHE91       0.0547
     26  CG        15.6650   23.7660    0.2800 C.ar   91  PHE91      -0.0202
     27  CD1       17.0370   23.7200    0.5280 C.ar   91  PHE91      -0.0042
     28  CD2       15.1540   22.9360   -0.7060 C.ar   91  PHE91      -0.0042
     29  CE1       17.8770   22.8880   -0.2270 C.ar   91  PHE91      -0.0003
     30  CE2       15.9780   22.1000   -1.4560 C.ar   91  PHE91      -0.0003
     31  CZ        17.3590   22.0760   -1.2060 C.ar   91  PHE91      -0.0000
     32  N         15.0780   26.8060   -1.0720 N.am   92  PHE92      -0.1962
     33  CA        15.5800   27.2770   -2.3270 C.3    92  PHE92       0.1771
     34  C         16.1640   28.6800   -2.2200 C.2    92  PHE92       0.2619
     35  O         17.2670   28.8940   -2.6760 O.2    92  PHE92      -0.2715
     36  CB        14.4500   27.2340   -3.3830 C.3    92  PHE92       0.0574
     37  CG        14.0970   25.8410   -3.8490 C.ar   92  PHE92      -0.0200
     38  CD1       15.0210   24.7960   -3.8320 C.ar   92  PHE92      -0.0042
     39  CD2       12.8380   25.5710   -4.3750 C.ar   92  PHE92      -0.0042
     40  CE1       14.7120   23.5030   -4.3430 C.ar   92  PHE92      -0.0003
     41  CE2       12.5150   24.2930   -4.8570 C.ar   92  PHE92      -0.0003
     42  CZ        13.4310   23.2650   -4.8370 C.ar   92  PHE92      -0.0000
     43  N         15.4410   29.6090   -1.6070 N.am   93  LEU93      -0.1977
     44  CA        15.8410   30.9820   -1.6160 C.3    93  LEU93       0.1596
     45  C         17.0980   31.1980   -0.7730 C.2    93  LEU93       0.2287
     46  O         17.9470   32.0300   -1.1740 O.2    93  LEU93      -0.2864
     47  CB        14.7540   31.9710   -1.1720 C.3    93  LEU93       0.0297
     48  CG        14.3610   32.0300    0.2770 C.3    93  LEU93       0.0022
     49  CD1       15.2170   32.8910    1.2270 C.3    93  LEU93       0.0001
     50  CD2       12.8670   32.3400    0.5280 C.3    93  LEU93       0.0001
     51  N         19.6170   29.1660   -0.2700 N.3    95  ALA95      -0.1231
     52  CA        20.6970   28.6760   -1.1540 C.3    95  ALA95       0.1694
     53  C         20.9220   29.5300   -2.3850 C.2    95  ALA95       0.2592
     54  O         22.0470   29.7830   -2.7600 O.2    95  ALA95      -0.2718
     55  CB        20.4940   27.2380   -1.5450 C.3    95  ALA95       0.0304
     56  N         19.8600   29.9500   -3.0190 N.am   96  ASP96      -0.1960
     57  CA        19.9780   30.7420   -4.2130 C.3    96  ASP96       0.1840
     58  C         20.5900   32.1080   -3.9060 C.2    96  ASP96       0.2622
     59  O         21.3570   32.6300   -4.6910 O.2    96  ASP96      -0.2715
     60  CB        18.6210   30.8760   -4.8520 C.3    96  ASP96       0.1450
     61  CG        18.6310   31.7470   -6.0740 C.2    96  ASP96       0.3671
     62  OD1       19.0880   31.2230   -7.1410 O.co2  96  ASP96      -0.2456
     63  OD2       18.1380   32.8860   -6.0170 O.co2  96  ASP96      -0.2456
     64  N         20.2510   32.6940   -2.7750 N.am   97  ASP97      -0.1971
     65  CA        20.7890   33.9610   -2.4330 C.3    97  ASP97       0.1709
     66  C         22.2850   33.8640   -2.2490 C.2    97  ASP97       0.2293
     67  O         23.0250   34.7610   -2.6400 O.2    97  ASP97      -0.2864
     68  CB        20.1290   34.5240   -1.1900 C.3    97  ASP97       0.1436
     69  CG        18.7740   35.1040   -1.4890 C.2    97  ASP97       0.3671
     70  OD1       18.5440   35.5030   -2.7100 O.co2  97  ASP97      -0.2456
     71  OD2       17.9450   35.2560   -0.5300 O.co2  97  ASP97      -0.2456
     72  N         24.2440   31.5980   -3.8370 N.3    99  MET99      -0.1230
     73  CA        24.6860   31.3940   -5.2260 C.3    99  MET99       0.1702
     74  C         24.6660   32.6350   -6.0930 C.2    99  MET99       0.2592
     75  O         25.4940   32.8100   -6.9880 O.2    99  MET99      -0.2718
     76  CB        23.8060   30.3190   -5.8940 C.3    99  MET99       0.0401
     77  CG        23.9840   28.9140   -5.3110 C.3    99  MET99       0.0596
     78  SD        23.0550   27.6500   -6.2230 S.3    99  MET99      -0.1393
     79  CE        23.6930   27.8830   -7.9190 C.3    99  MET99       0.0692
     80  N         23.7050   33.4980   -5.8870 N.am  100  ASP100     -0.1974
     81  CA        23.5680   34.7000   -6.7180 C.3   100  ASP100      0.1709
     82  C         24.2410   35.9330   -6.1520 C.2   100  ASP100      0.2293
     83  O         24.1700   37.0390   -6.7570 O.2   100  ASP100     -0.2864
     84  CB        22.1030   34.9770   -6.9840 C.3   100  ASP100      0.1436
     85  CG        21.4720   33.9000   -7.8520 C.2   100  ASP100      0.3671
     86  OD1       22.2530   33.1730   -8.4820 O.co2 100  ASP100     -0.2456
     87  OD2       20.2270   33.7650   -7.9370 O.co2 100  ASP100     -0.2456
     88  N         23.3170   37.6100   -3.4750 N.3   102  SER102     -0.1273
     89  CA        22.3160   38.6020   -3.2410 C.3   102  SER102      0.1575
     90  C         22.5430   39.2790   -1.9060 C.3   102  SER102      0.2036
     91  O         23.3130   38.7450   -1.0120 O.3   102  SER102     -0.2187
     92  CB        20.9480   37.9460   -3.3750 C.3   102  SER102      0.2036
     93  OG        20.7240   37.6290   -4.7890 O.3   102  SER102     -0.2187
     94  N         16.4550   40.1120    0.8370 N.3   105  ARG105     -0.1245
     95  CA        15.3480   39.1710    0.5110 C.3   105  ARG105      0.1563
     96  C         14.1990   39.4310    1.4710 C.2   105  ARG105      0.2260
     97  O         14.4190   39.5250    2.7180 O.2   105  ARG105     -0.2867
     98  CB        15.8530   37.7650    0.6870 C.3   105  ARG105      0.0307
     99  CG        14.8110   36.6510    0.6830 C.3   105  ARG105      0.0489
    100  CD        14.2580   36.3310   -0.7230 C.3   105  ARG105      0.2205
    101  NE        15.2640   35.6910   -1.6020 N.pl3 105  ARG105     -0.0865
    102  CZ        15.0020   35.3790   -2.8700 C.cat 105  ARG105      0.5346
    103  NH1       13.7850   35.6060   -3.3230 N.pl3 105  ARG105      0.1354
    104  NH2       15.8970   34.8390   -3.6520 N.pl3 105  ARG105      0.1354
    105  N         13.6100   21.2240  -10.3040 N.3   160  THR160     -0.1203
    106  CA        13.9980   22.5770   -9.9550 C.3   160  THR160      0.1994
    107  C         15.5270   22.7660   -9.9590 C.2   160  THR160      0.2617
    108  O         16.0340   23.7710  -10.4590 O.2   160  THR160     -0.2717
    109  CB        13.3600   22.9780   -8.6270 C.3   160  THR160      0.1784
    110  OG1       11.9580   22.9690   -8.7770 O.3   160  THR160     -0.2211
    111  CG2       13.7350   24.3910   -8.2820 C.3   160  THR160      0.0376
    112  N         16.2240   21.7580   -9.4440 N.am  161  GLU161     -0.1979
    113  CA        17.6700   21.7320   -9.3760 C.3   161  GLU161      0.1602
    114  C         18.2530   21.5040  -10.7540 C.2   161  GLU161      0.2287
    115  O         19.3100   21.9970  -11.0350 O.2   161  GLU161     -0.2864
    116  CB        18.1270   20.6700   -8.3760 C.3   161  GLU161      0.0415
    117  CG        17.7100   21.1380   -6.9340 C.3   161  GLU161      0.1163
    118  CD        17.8080   20.0660   -5.8730 C.2   161  GLU161      0.3649
    119  OE1       18.2600   18.9750   -6.1880 O.co2 161  GLU161     -0.2457
    120  OE2       17.3720   20.3070   -4.7270 O.co2 161  GLU161     -0.2457
    121  N         18.0410   25.0050  -12.0810 N.3   164  GLN164     -0.1245
    122  CA        19.0830   25.7940  -11.5020 C.3   164  GLN164      0.1566
    123  C         20.4620   25.5230  -12.1320 C.2   164  GLN164      0.2260
    124  O         21.2750   26.4170  -12.2430 O.2   164  GLN164     -0.2867
    125  CB        19.1130   25.5050   -9.9970 C.3   164  GLN164      0.0367
    126  CG        20.0450   26.4010   -9.1810 C.3   164  GLN164      0.0905
    127  CD        19.4540   27.8080   -8.9800 C.2   164  GLN164      0.2608
    128  OE1       18.5850   28.2350   -9.7220 O.2   164  GLN164     -0.2717
    129  NE2       19.8860   28.5000   -7.9350 N.am  164  GLN164     -0.0878
    130  N         20.6430   27.3480  -15.3430 N.3   167  ASP167     -0.1239
    131  CA        20.7990   28.7720  -14.9930 C.3   167  ASP167      0.1674
    132  C         22.2650   29.1080  -14.7530 C.2   167  ASP167      0.2266
    133  O         22.8180   30.0220  -15.3730 O.2   167  ASP167     -0.2867
    134  CB        19.8890   29.0880  -13.7760 C.3   167  ASP167      0.1410
    135  CG        20.0570   30.5230  -13.2120 C.2   167  ASP167      0.3668
    136  OD1       21.1090   30.8520  -12.6070 O.co2 167  ASP167     -0.2456
    137  OD2       19.1080   31.3040  -13.3440 O.co2 167  ASP167     -0.2456
    138  N         13.4950   25.6320  -13.6180 N.3   193  LYS193     -0.1231
    139  CA        13.9150   26.2850  -12.3900 C.3   193  LYS193      0.1693
    140  C         12.7570   26.8570  -11.5890 C.2   193  LYS193      0.2592
    141  O         12.8610   26.8990  -10.3550 O.2   193  LYS193     -0.2718
    142  CB        15.0890   27.3000  -12.6070 C.3   193  LYS193      0.0285
    143  CG        14.7060   28.7030  -12.9770 C.3   193  LYS193      0.0035
    144  CD        15.7440   29.7110  -12.6100 C.3   193  LYS193      0.0206
    145  CE        15.3730   31.0680  -13.1730 C.3   193  LYS193      0.1093
    146  NZ        16.4650   32.0570  -13.0320 N.3   193  LYS193     -0.1314
    147  N         11.6860   27.2930  -12.2590 N.am  194  THR194     -0.1953
    148  CA        10.6420   27.9780  -11.5610 C.3   194  THR194      0.1897
    149  C          9.2390   27.4020  -11.7520 C.2   194  THR194      0.2313
    150  O          8.4710   27.3180  -10.7930 O.2   194  THR194     -0.2863
    151  CB        10.6670   29.5030  -11.8560 C.3   194  THR194      0.1794
    152  OG1       11.8390   30.0640  -11.2570 O.3   194  THR194     -0.2208
    153  CG2        9.3950   30.2230  -11.2840 C.3   194  THR194      0.0378
    154  N          7.9520   23.9860   -9.6040 N.3   197  TYR197     -0.1241
    155  CA         7.7200   24.0450   -8.1560 C.3   197  TYR197      0.1605
    156  C          6.8120   25.1810   -7.7380 C.2   197  TYR197      0.2264
    157  O          6.1490   25.0810   -6.6860 O.2   197  TYR197     -0.2867
    158  CB         9.0030   24.1610   -7.3880 C.3   197  TYR197      0.0534
    159  CG         9.5120   25.5410   -7.0900 C.ar  197  TYR197     -0.0201
    160  CD1       10.3650   26.2250   -7.9900 C.ar  197  TYR197     -0.0009
    161  CD2        9.2720   26.1250   -5.8290 C.ar  197  TYR197     -0.0009
    162  CE1       10.9140   27.4650   -7.6650 C.ar  197  TYR197      0.0417
    163  CE2        9.8020   27.3670   -5.5080 C.ar  197  TYR197      0.0417
    164  CZ        10.5990   28.0530   -6.4230 C.ar  197  TYR197      0.1957
    165  OH        11.1490   29.2510   -6.0110 O.3   197  TYR197     -0.2866
    166  N          8.2490   33.8780  -14.1070 N.3   233  GLN233     -0.1245
    167  CA         9.6960   34.0550  -14.0850 C.3   233  GLN233      0.1566
    168  C         10.1040   35.2160  -14.9550 C.2   233  GLN233      0.2260
    169  O         11.0210   35.9440  -14.6060 O.2   233  GLN233     -0.2867
    170  CB        10.4500   32.7890  -14.4510 C.3   233  GLN233      0.0367
    171  CG        11.9670   32.8240  -14.2360 C.3   233  GLN233      0.0905
    172  CD        12.3450   33.1880  -12.8110 C.2   233  GLN233      0.2608
    173  OE1       11.8710   32.5750  -11.8290 O.2   233  GLN233     -0.2717
    174  NE2       13.1830   34.1880  -12.6820 N.am  233  GLN233     -0.0878
    175  N          9.5420   38.1150  -12.8170 N.3   236  ASP236     -0.1225
    176  CA        10.6270   38.1710  -11.8790 C.3   236  ASP236      0.1805
    177  C         11.8880   38.8050  -12.4410 C.2   236  ASP236      0.2597
    178  O         12.5600   39.6160  -11.7810 O.2   236  ASP236     -0.2718
    179  CB        11.0190   36.7760  -11.3620 C.3   236  ASP236      0.1424
    180  CG        12.1210   36.8460  -10.3100 C.2   236  ASP236      0.3668
    181  OD1       11.8060   37.3840   -9.1860 O.co2 236  ASP236     -0.2456
    182  OD2       13.2470   36.3440  -10.6160 O.co2 236  ASP236     -0.2456
    183  N         12.2280   38.4220  -13.6380 N.am  237  ASP237     -0.1974
    184  CA        13.3760   39.0150  -14.3450 C.3   237  ASP237      0.1709
    185  C         13.2050   40.5420  -14.6320 C.2   237  ASP237      0.2293
    186  O         14.1530   41.3500  -14.4580 O.2   237  ASP237     -0.2864
    187  CB        13.6000   38.3110  -15.6730 C.3   237  ASP237      0.1436
    188  CG        14.1110   36.8590  -15.5300 C.2   237  ASP237      0.3671
    189  OD1       14.3370   36.3570  -14.4400 O.co2 237  ASP237     -0.2456
    190  OD2       14.1820   36.1690  -16.5680 O.co2 237  ASP237     -0.2456
    191  N         13.5920   42.3310  -11.4150 N.3   240  ASP240     -0.1239
    192  CA        14.9680   42.3640  -10.9280 C.3   240  ASP240      0.1674
    193  C         15.5980   43.7490  -11.1240 C.2   240  ASP240      0.2266
    194  O         16.2980   44.2610  -10.2400 O.2   240  ASP240     -0.2867
    195  CB        15.8510   41.3420  -11.6330 C.3   240  ASP240      0.1410
    196  CG        17.0950   40.9910  -10.8490 C.2   240  ASP240      0.3668
    197  OD1       16.9800   40.3000   -9.7870 O.co2 240  ASP240     -0.2456
    198  OD2       18.1880   41.3590  -11.3090 O.co2 240  ASP240     -0.2456
    199  N         13.6830   42.8130   -2.4680 N.3   250  LYS250     -0.1245
    200  CA        15.0380   42.3440   -2.8200 C.3   250  LYS250      0.1561
    201  C         15.7170   43.1940   -3.8600 C.2   250  LYS250      0.2260
    202  O         15.0520   43.7190   -4.7700 O.2   250  LYS250     -0.2867
    203  CB        15.0100   40.8880   -3.3610 C.3   250  LYS250      0.0271
    204  CG        14.1670   40.7060   -4.6100 C.3   250  LYS250      0.0035
    205  CD        13.7910   39.2460   -4.8790 C.3   250  LYS250      0.0206
    206  CE        12.9240   39.1670   -6.1590 C.3   250  LYS250      0.1093
    207  NZ        12.3880   37.8330   -6.5450 N.3   250  LYS250     -0.1314
    208  N         20.8260   40.3070  -11.5410 N.3   254  ASP254     -0.1239
    209  CA        20.9580   39.5140  -12.7850 C.3   254  ASP254      0.1674
    210  C         22.0800   39.9910  -13.7370 C.2   254  ASP254      0.2266
    211  O         22.7960   39.2150  -14.3250 O.2   254  ASP254     -0.2867
    212  CB        19.6280   39.3790  -13.5430 C.3   254  ASP254      0.1410
    213  CG        18.5930   38.4890  -12.8180 C.2   254  ASP254      0.3668
    214  OD1       18.9490   37.6760  -11.8570 O.co2 254  ASP254     -0.2456
    215  OD2       17.4020   38.5910  -13.2730 O.co2 254  ASP254     -0.2456
    216  N         23.3600   36.7850  -16.0010 N.3   259  LYS259     -0.1245
    217  CA        22.2450   35.8450  -16.0900 C.3   259  LYS259      0.1561
    218  C         21.5650   35.8890  -17.4130 C.2   259  LYS259      0.2260
    219  O         21.4780   36.9390  -18.0400 O.2   259  LYS259     -0.2867
    220  CB        21.2210   36.0570  -14.9600 C.3   259  LYS259      0.0271
    221  CG        21.7880   35.6910  -13.5810 C.3   259  LYS259      0.0035
    222  CD        21.9650   34.2160  -13.4580 C.3   259  LYS259      0.0206
    223  CE        22.7550   33.7100  -12.2860 C.3   259  LYS259      0.1093
    224  NZ        22.1250   34.0650  -11.0500 N.3   259  LYS259     -0.1314
@<TRIPOS>BOND
     1   219   218    2
     2   218   217    1
     3   190   188   ar
     4   217   216    1
     5   217   220    1
     6   187   188    1
     7   187   184    1
     8   188   189   ar
     9   133   132    2
    10   130   131    1
    11   131   132    1
    12   131   134    1
    13   220   221    1
    14   168   169    2
    15   168   167    1
    16   185   186    2
    17   185   184    1
    18   170   171    1
    19   170   167    1
    20   184   183    1
    21   211   210    2
    22   171   172    1
    23   166   167    1
    24   134   135    1
    25   210   209    1
    26   183   177   am
    27   138   139    1
    28   221   222    1
    29   212   213    1
    30   212   209    1
    31   222   223    1
    32   137   135   ar
    33   215   213   ar
    34   135   136   ar
    35   145   146    1
    36   145   144    1
    37   143   144    1
    38   143   142    1
    39   213   214   ar
    40   175   176    1
    41   172   174   am
    42   172   173    2
    43   209   208    1
    44   142   139    1
    45   177   176    1
    46   177   178    2
    47   139   140    1
    48   223   224    1
    49   147   140   am
    50   147   148    1
    51   124   123    2
    52   123   122    1
    53   121   122    1
    54   176   179    1
    55   151   148    1
    56   151   153    1
    57   151   152    1
    58   149   148    1
    59   149   150    2
    60   195   192    1
    61   195   196    1
    62   140   141    2
    63   122   125    1
    64   191   192    1
    65   179   180    1
    66   198   196   ar
    67   193   192    1
    68   193   194    2
    69   115   114    2
    70   196   197   ar
    71   114   113    1
    72   182   180   ar
    73   108   107    2
    74   180   181   ar
    75   105   106    1
    76   125   126    1
    77   107   106    1
    78   107   112   am
    79   106   109    1
    80   128   127    2
    81   154   155    1
    82   112   113    1
    83   113   116    1
    84   126   127    1
    85   127   129   am
    86   110   109    1
    87   109   111    1
    88    86    85   ar
    89   116   117    1
    90   155   156    1
    91   155   158    1
    92   160   162   ar
    93   160   159   ar
    94    87    85   ar
    95    79    78    1
    96    85    84    1
    97   156   157    2
    98   162   164   ar
    99   158   159    1
   100    62    61   ar
   101   159   161   ar
   102    75    74    2
   103    84    81    1
   104   117   118    1
   105    83    82    2
   106    81    82    1
   107    81    80    1
   108   207   206    1
   109   164   165    1
   110   164   163   ar
   111    78    77    1
   112   119   118   ar
   113   206   205    1
   114    11     9    1
   115    74    80   am
   116    74    73    1
   117    61    63   ar
   118    61    60    1
   119    76    77    1
   120    76    73    1
   121   118   120   ar
   122   161   163   ar
   123     8     9    2
   124     8     7    1
   125    73    72    1
   126     9    10    1
   127   205   204    1
   128    41    42   ar
   129    41    39   ar
   130    60    57    1
   131    42    40   ar
   132    93    92    1
   133   202   201    2
   134     6     7    1
   135     6     5    1
   136    59    58    2
   137   204   203    1
   138    39    37   ar
   139    40    38   ar
   140    57    58    1
   141    57    56    1
   142    58    64   am
   143   201   200    1
   144    37    38   ar
   145    37    36    1
   146    19    18    2
   147   104   102    1
   148     5     2    1
   149    88    89    1
   150     2     1    1
   151     2     3    1
   152    36    33    1
   153    92    89    1
   154   203   200    1
   155   103   102    1
   156    89    90    1
   157    56    53   am
   158    20    18   am
   159   102   101    2
   160    18    17    1
   161   200   199    1
   162    64    65    1
   163    54    53    2
   164    70    69   ar
   165     4     3    2
   166    35    34    2
   167    67    66    2
   168    65    66    1
   169    65    68    1
   170    53    52    1
   171    33    34    1
   172    33    32    1
   173    34    43   am
   174    90    91    1
   175    44    43    1
   176    44    47    1
   177    44    45    1
   178   101   100    1
   179    55    52    1
   180    17    16    1
   181    69    68    1
   182    69    71   ar
   183    30    31   ar
   184    30    28   ar
   185    16    13    1
   186    13    12    1
   187    13    14    1
   188    31    29   ar
   189    46    45    2
   190    47    48    1
   191    52    51    1
   192    32    23   am
   193    15    14    2
   194   100    99    1
   195    28    26   ar
   196    29    27   ar
   197    23    24    2
   198    23    22    1
   199    48    50    1
   200    48    49    1
   201    26    27   ar
   202    26    25    1
   203    95    98    1
   204    95    94    1
   205    95    96    1
   206    99    98    1
   207    25    22    1
   208    22    21    1
   209    96    97    2
