@<TRIPOS>MOLECULE
tmp/4pw2A00.pdb
 187 181 0 0 0
SMALL
GASTEIGER

@<TRIPOS>ATOM
      1  N         23.6560   42.9610  143.8550 N.3    78  TYR78      -0.1241
      2  CA        24.3120   41.6950  143.6020 C.3    78  TYR78       0.1605
      3  C         24.6270   41.5640  142.1130 C.2    78  TYR78       0.2264
      4  O         23.7160   41.5480  141.2850 O.2    78  TYR78      -0.2867
      5  CB        23.3790   40.5630  144.0550 C.3    78  TYR78       0.0534
      6  CG        23.9030   39.1440  143.9640 C.ar   78  TYR78      -0.0201
      7  CD1       25.2720   38.8660  143.9430 C.ar   78  TYR78      -0.0009
      8  CD2       23.0180   38.0720  143.9580 C.ar   78  TYR78      -0.0009
      9  CE1       25.7330   37.5600  143.8830 C.ar   78  TYR78       0.0417
     10  CE2       23.4680   36.7640  143.9020 C.ar   78  TYR78       0.0417
     11  CZ        24.8240   36.5160  143.8650 C.ar   78  TYR78       0.1957
     12  OH        25.2580   35.2180  143.8090 O.3    78  TYR78      -0.2866
     13  N         31.2260   37.2660  138.6370 N.3    83  ARG83      -0.1245
     14  CA        31.9820   36.2950  139.4390 C.3    83  ARG83       0.1563
     15  C         32.7210   35.2880  138.5700 C.2    83  ARG83       0.2260
     16  O         32.2660   34.9760  137.4670 O.2    83  ARG83      -0.2867
     17  CB        31.0500   35.5740  140.3960 C.3    83  ARG83       0.0307
     18  CG        30.2530   36.5280  141.2580 C.3    83  ARG83       0.0489
     19  CD        29.2280   35.7750  142.0810 C.3    83  ARG83       0.2205
     20  NE        29.8480   35.2030  143.2710 N.pl3  83  ARG83      -0.0865
     21  CZ        29.2470   34.3660  144.1110 C.cat  83  ARG83       0.5346
     22  NH1       27.9910   33.9800  143.9020 N.pl3  83  ARG83       0.1354
     23  NH2       29.9090   33.9100  145.1660 N.pl3  83  ARG83       0.1354
     24  N         33.1670   32.1210  138.8070 N.3    85  ARG85      -0.1245
     25  CA        32.5070   30.8210  138.6820 C.3    85  ARG85       0.1563
     26  C         31.5590   30.7560  137.4730 C.2    85  ARG85       0.2260
     27  O         31.1140   29.6760  137.0880 O.2    85  ARG85      -0.2867
     28  CB        31.7140   30.5090  139.9530 C.3    85  ARG85       0.0307
     29  CG        30.5710   31.4840  140.2170 C.3    85  ARG85       0.0489
     30  CD        29.8350   31.1440  141.5010 C.3    85  ARG85       0.2205
     31  NE        30.7300   31.2140  142.6520 N.pl3  85  ARG85      -0.0865
     32  CZ        30.4070   30.8630  143.8950 C.cat  85  ARG85       0.5346
     33  NH1       29.1930   30.3980  144.1790 N.pl3  85  ARG85       0.1354
     34  NH2       31.3120   30.9800  144.8610 N.pl3  85  ARG85       0.1354
     35  N         31.9850   26.0880  138.5900 N.3   100  GLN100     -0.1231
     36  CA        32.2850   25.9940  140.0240 C.3   100  GLN100      0.1698
     37  C         32.7230   24.6200  140.5710 C.2   100  GLN100      0.2592
     38  O         33.6450   24.5460  141.3800 O.2   100  GLN100     -0.2718
     39  CB        31.0920   26.5410  140.8040 C.3   100  GLN100      0.0381
     40  CG        31.1370   26.3260  142.2980 C.3   100  GLN100      0.0905
     41  CD        29.9670   26.9920  142.9840 C.2   100  GLN100      0.2608
     42  OE1       30.1420   27.7280  143.9540 O.2   100  GLN100     -0.2717
     43  NE2       28.7630   26.7560  142.4690 N.am  100  GLN100     -0.0878
     44  N         32.0750   23.5400  140.1530 N.am  101  TRP101     -0.1976
     45  CA        32.5240   22.2200  140.5920 C.3   101  TRP101      0.1640
     46  C         32.9800   21.3040  139.4630 C.2   101  TRP101      0.2290
     47  O         33.3230   20.1480  139.6970 O.2   101  TRP101     -0.2864
     48  CB        31.4610   21.5400  141.4490 C.3   101  TRP101      0.0576
     49  CG        31.0340   22.3770  142.5840 C.ar  101  TRP101      0.0006
     50  CD1       31.8380   23.0340  143.4680 C.ar  101  TRP101      0.0946
     51  CD2       29.6960   22.6560  142.9720 C.ar  101  TRP101      0.0152
     52  NE1       31.0760   23.7090  144.3890 N.ar  101  TRP101     -0.2442
     53  CE2       29.7550   23.4950  144.1050 C.ar  101  TRP101      0.0810
     54  CE3       28.4480   22.2750  142.4770 C.ar  101  TRP101      0.0012
     55  CZ2       28.6160   23.9610  144.7470 C.ar  101  TRP101      0.0191
     56  CZ3       27.3210   22.7350  143.1150 C.ar  101  TRP101      0.0001
     57  CH2       27.4100   23.5700  144.2390 C.ar  101  TRP101      0.0015
     58  N         23.6460   25.7740  135.6650 N.3   108  TYR108     -0.1241
     59  CA        23.3140   25.6140  137.0780 C.3   108  TYR108      0.1605
     60  C         22.1340   26.5320  137.4260 C.2   108  TYR108      0.2264
     61  O         22.2390   27.7580  137.3280 O.2   108  TYR108     -0.2867
     62  CB        24.5670   25.9300  137.9240 C.3   108  TYR108      0.0534
     63  CG        24.4960   25.5150  139.3800 C.ar  108  TYR108     -0.0201
     64  CD1       24.3970   24.1710  139.7420 C.ar  108  TYR108     -0.0009
     65  CD2       24.5480   26.4670  140.4000 C.ar  108  TYR108     -0.0009
     66  CE1       24.3300   23.7910  141.0770 C.ar  108  TYR108      0.0417
     67  CE2       24.4870   26.0940  141.7390 C.ar  108  TYR108      0.0417
     68  CZ        24.3720   24.7540  142.0730 C.ar  108  TYR108      0.1957
     69  OH        24.3060   24.3640  143.3970 O.3   108  TYR108     -0.2866
     70  N         20.6860   27.5980  140.1140 N.3   110  ILE110     -0.1231
     71  CA        20.8760   28.6490  141.1220 C.3   110  ILE110      0.1692
     72  C         21.4630   29.9340  140.5220 C.2   110  ILE110      0.2591
     73  O         20.9410   31.0230  140.7560 O.2   110  ILE110     -0.2718
     74  CB        21.7280   28.1620  142.3240 C.3   110  ILE110      0.0266
     75  CG1       20.8800   27.2690  143.2330 C.3   110  ILE110      0.0019
     76  CG2       22.2630   29.3440  143.1090 C.3   110  ILE110      0.0020
     77  CD1       21.6250   26.6270  144.3950 C.3   110  ILE110      0.0001
     78  N         22.5450   29.7910  139.7570 N.am  111  GLN111     -0.1979
     79  CA        23.1820   30.9130  139.0650 C.3   111  GLN111      0.1601
     80  C         22.2110   31.5960  138.1070 C.2   111  GLN111      0.2287
     81  O         22.1020   32.8250  138.0930 O.2   111  GLN111     -0.2864
     82  CB        24.3850   30.4320  138.2580 C.3   111  GLN111      0.0394
     83  CG        25.6500   30.1980  139.0510 C.3   111  GLN111      0.0908
     84  CD        26.8500   29.8960  138.1640 C.2   111  GLN111      0.2608
     85  OE1       26.7590   29.8990  136.9270 O.2   111  GLN111     -0.2717
     86  NE2       27.9870   29.6330  138.7940 N.am  111  GLN111     -0.0878
     87  N         19.5490   33.4130  140.0000 N.3   114  GLN114     -0.1245
     88  CA        20.0640   34.6080  140.6620 C.3   114  GLN114      0.1566
     89  C         20.3810   35.6970  139.6540 C.2   114  GLN114      0.2260
     90  O         20.2130   36.8750  139.9410 O.2   114  GLN114     -0.2867
     91  CB        21.2960   34.2840  141.5070 C.3   114  GLN114      0.0367
     92  CG        20.9570   33.4280  142.7230 C.3   114  GLN114      0.0905
     93  CD        22.1250   33.2150  143.6650 C.2   114  GLN114      0.2608
     94  OE1       23.2900   33.3900  143.2940 O.2   114  GLN114     -0.2717
     95  NE2       21.8130   32.8270  144.9040 N.am  114  GLN114     -0.0878
     96  N         21.0870   15.1830  141.4460 N.3   334  TRP334     -0.1241
     97  CA        20.5500   15.6190  142.7410 C.3   334  TRP334      0.1605
     98  C         19.8410   16.9590  142.6440 C.2   334  TRP334      0.2264
     99  O         20.1650   17.7660  141.7750 O.2   334  TRP334     -0.2867
    100  CB        21.6440   15.6620  143.8190 C.3   334  TRP334      0.0550
    101  CG        22.8210   16.5500  143.5230 C.ar  334  TRP334      0.0003
    102  CD1       23.8950   16.2540  142.7360 C.ar  334  TRP334      0.0946
    103  CD2       23.0560   17.8620  144.0440 C.ar  334  TRP334      0.0152
    104  NE1       24.7820   17.3040  142.7240 N.ar  334  TRP334     -0.2442
    105  CE2       24.2930   18.3040  143.5220 C.ar  334  TRP334      0.0810
    106  CE3       22.3450   18.7060  144.9080 C.ar  334  TRP334      0.0012
    107  CZ2       24.8290   19.5560  143.8270 C.ar  334  TRP334      0.0191
    108  CZ3       22.8830   19.9570  145.2120 C.ar  334  TRP334      0.0001
    109  CH2       24.1110   20.3660  144.6710 C.ar  334  TRP334      0.0015
    110  N         18.3660   20.6250  144.6500 N.3   336  SER336     -0.1217
    111  CA        18.6990   21.5340  145.7310 C.3   336  SER336      0.1889
    112  C         17.4810   22.3600  146.1110 C.2   336  SER336      0.2288
    113  O         16.8150   22.9150  145.2350 O.2   336  SER336     -0.2866
    114  CB        19.8620   22.4300  145.3050 C.3   336  SER336      0.2089
    115  OG        19.8990   23.6260  146.0640 O.3   336  SER336     -0.2183
    116  N         17.5250   25.1190  147.4780 N.3   338  MET338     -0.1245
    117  CA        17.8500   26.4860  147.1240 C.3   338  MET338      0.1570
    118  C         17.5510   26.7410  145.6510 C.2   338  MET338      0.2261
    119  O         17.0060   27.7860  145.3110 O.2   338  MET338     -0.2867
    120  CB        19.3170   26.7920  147.3960 C.3   338  MET338      0.0387
    121  CG        19.6580   28.2530  147.1600 C.3   338  MET338      0.0595
    122  SD        21.2750   28.6510  147.8390 S.3   338  MET338     -0.1393
    123  CE        21.5830   30.2300  147.0600 C.3   338  MET338      0.0692
    124  N         19.7710   22.4310  151.0040 N.3   392  GLU392     -0.1231
    125  CA        20.5190   23.0010  149.8940 C.3   392  GLU392      0.1699
    126  C         21.3350   21.8750  149.2750 C.2   392  GLU392      0.2592
    127  O         21.4500   21.7680  148.0520 O.2   392  GLU392     -0.2718
    128  CB        21.4280   24.1310  150.3850 C.3   392  GLU392      0.0402
    129  CG        22.3260   24.7340  149.3130 C.3   392  GLU392      0.1161
    130  CD        23.0700   25.9600  149.7920 C.2   392  GLU392      0.3649
    131  OE1       22.7020   26.5060  150.8470 O.co2 392  GLU392     -0.2457
    132  OE2       24.0270   26.3820  149.1170 O.co2 392  GLU392     -0.2457
    133  N         21.8900   21.0290  150.1390 N.am  393  TYR393     -0.1976
    134  CA        22.6040   19.8380  149.7120 C.3   393  TYR393      0.1639
    135  C         21.9890   18.6320  150.4000 C.2   393  TYR393      0.2290
    136  O         22.1660   18.4540  151.6130 O.2   393  TYR393     -0.2864
    137  CB        24.0900   19.9290  150.0590 C.3   393  TYR393      0.0560
    138  CG        24.8050   21.1380  149.5040 C.ar  393  TYR393     -0.0198
    139  CD1       25.2400   21.1690  148.1740 C.ar  393  TYR393     -0.0009
    140  CD2       25.0720   22.2460  150.3130 C.ar  393  TYR393     -0.0009
    141  CE1       25.9060   22.2770  147.6670 C.ar  393  TYR393      0.0417
    142  CE2       25.7380   23.3580  149.8130 C.ar  393  TYR393      0.0417
    143  CZ        26.1540   23.3680  148.4910 C.ar  393  TYR393      0.1957
    144  OH        26.8180   24.4650  147.9930 O.3   393  TYR393     -0.2866
    145  N         21.5360   29.0980  154.8790 N.3   403  ASN403     -0.1240
    146  CA        21.1550   30.1390  153.9280 C.3   403  ASN403      0.1653
    147  C         20.2830   29.5610  152.8110 C.2   403  ASN403      0.2266
    148  O         19.2770   30.1600  152.4280 O.2   403  ASN403     -0.2867
    149  CB        22.3660   30.9300  153.4060 C.3   403  ASN403      0.1155
    150  CG        23.0910   30.2220  152.2860 C.2   403  ASN403      0.2627
    151  OD1       22.7920   30.4490  151.1140 O.2   403  ASN403     -0.2716
    152  ND2       24.0320   29.3430  152.6350 N.am  403  ASN403     -0.0877
    153  N         27.5990   28.0040  159.3660 N.3   453  TYR453     -0.1241
    154  CA        27.0580   27.8220  158.0130 C.3   453  TYR453      0.1605
    155  C         26.0710   26.6570  157.8950 C.2   453  TYR453      0.2264
    156  O         25.0890   26.7410  157.1470 O.2   453  TYR453     -0.2867
    157  CB        28.2150   27.6430  157.0370 C.3   453  TYR453      0.0534
    158  CG        27.8240   27.4660  155.5820 C.ar  453  TYR453     -0.0201
    159  CD1       27.4600   28.5620  154.7930 C.ar  453  TYR453     -0.0009
    160  CD2       27.8510   26.2050  154.9900 C.ar  453  TYR453     -0.0009
    161  CE1       27.1260   28.3990  153.4500 C.ar  453  TYR453      0.0417
    162  CE2       27.5230   26.0300  153.6540 C.ar  453  TYR453      0.0417
    163  CZ        27.1600   27.1220  152.8910 C.ar  453  TYR453      0.1957
    164  OH        26.8370   26.9200  151.5680 O.3   453  TYR453     -0.2866
    165  N         31.6680   32.5850  156.9220 N.3   468  ARG468     -0.1245
    166  CA        32.4530   33.7860  156.6460 C.3   468  ARG468      0.1563
    167  C         31.5380   35.0070  156.6920 C.2   468  ARG468      0.2260
    168  O         30.3130   34.8710  156.6140 O.2   468  ARG468     -0.2867
    169  CB        33.2350   33.6800  155.3230 C.3   468  ARG468      0.0307
    170  CG        32.4110   33.3360  154.0970 C.3   468  ARG468      0.0489
    171  CD        33.2780   33.3010  152.8440 C.3   468  ARG468      0.2205
    172  NE        32.4600   33.4510  151.6460 N.pl3 468  ARG468     -0.0865
    173  CZ        32.2450   32.4910  150.7500 C.cat 468  ARG468      0.5346
    174  NH1       32.8010   31.2920  150.8960 N.pl3 468  ARG468      0.1354
    175  NH2       31.4680   32.7330  149.7030 N.pl3 468  ARG468      0.1354
    176  N         28.5270   35.4540  154.3100 N.3   471  TYR471     -0.1241
    177  CA        27.3920   34.5770  154.6270 C.3   471  TYR471      0.1605
    178  C         26.6690   35.0270  155.8990 C.2   471  TYR471      0.2264
    179  O         25.4490   34.8840  156.0140 O.2   471  TYR471     -0.2867
    180  CB        27.8000   33.1060  154.7490 C.3   471  TYR471      0.0534
    181  CG        27.9870   32.3780  153.4350 C.ar  471  TYR471     -0.0201
    182  CD1       26.9010   32.0870  152.5950 C.ar  471  TYR471     -0.0009
    183  CD2       29.2470   31.9520  153.0430 C.ar  471  TYR471     -0.0009
    184  CE1       27.0860   31.4060  151.3940 C.ar  471  TYR471      0.0417
    185  CE2       29.4380   31.2740  151.8510 C.ar  471  TYR471      0.0417
    186  CZ        28.3650   31.0070  151.0280 C.ar  471  TYR471      0.1957
    187  OH        28.6020   30.3320  149.8470 O.3   471  TYR471     -0.2866
@<TRIPOS>BOND
     1    58    59    1
     2    85    84    2
     3    59    60    1
     4    59    62    1
     5    27    26    2
     6    61    60    2
     7    16    15    2
     8    26    25    1
     9    62    63    1
    10    81    80    2
    11    80    79    1
    12    84    86   am
    13    84    83    1
    14    82    83    1
    15    82    79    1
    16    15    14    1
    17    35    36    1
    18    13    14    1
    19    25    24    1
    20    25    28    1
    21    79    78    1
    22    63    64   ar
    23    63    65   ar
    24    14    17    1
    25    46    47    2
    26    46    45    1
    27    89    90    2
    28    89    88    1
    29    64    66   ar
    30    78    72   am
    31    28    29    1
    32    87    88    1
    33    36    37    1
    34    36    39    1
    35    70    71    1
    36    44    37   am
    37    44    45    1
    38    29    30    1
    39    17    18    1
    40    65    67   ar
    41    72    73    2
    42    72    71    1
    43    37    38    2
    44    45    48    1
    45    88    91    1
    46    39    40    1
    47    66    68   ar
    48    71    74    1
    49    18    19    1
    50     4     3    2
    51    96    97    1
    52    48    49    1
    53    30    31    1
    54    91    92    1
    55    67    68   ar
    56    99    98    2
    57    68    69    1
    58    19    20    1
    59     3     2    1
    60    40    41    1
    61    74    76    1
    62    74    75    1
    63    43    41   am
    64    54    51   ar
    65    54    56   ar
    66    49    51   ar
    67    49    50   ar
    68    98    97    1
    69    31    32    2
    70    92    93    1
    71   104   102   ar
    72   104   105   ar
    73   102   101   ar
    74    97   100    1
    75    51    53   ar
    76    41    42    2
    77    56    57   ar
    78    75    77    1
    79    20    21    2
    80    94    93    2
    81    50    52   ar
    82   105   107   ar
    83   105   103   ar
    84   101   100    1
    85   101   103   ar
    86     2     1    1
    87     2     5    1
    88    93    95   am
    89    12    11    1
    90   107   109   ar
    91    11     9   ar
    92    11    10   ar
    93     9     7   ar
    94    32    33    1
    95    32    34    1
    96    22    21    1
    97    10     8   ar
    98     7     6   ar
    99     8     6   ar
   100     6     5    1
   101   103   106   ar
   102    53    52   ar
   103    53    55   ar
   104    21    23    1
   105    57    55   ar
   106   110   111    1
   107   109   108   ar
   108   106   108   ar
   109   113   112    2
   110   114   111    1
   111   114   115    1
   112   119   118    2
   113   118   117    1
   114   111   112    1
   115   123   122    1
   116   117   120    1
   117   117   116    1
   118   121   120    1
   119   121   122    1
   120   141   139   ar
   121   141   143   ar
   122   144   143    1
   123   127   126    2
   124   139   138   ar
   125   143   142   ar
   126   132   130   ar
   127   126   125    1
   128   126   133   am
   129   129   130    1
   130   129   128    1
   131   138   137    1
   132   138   140   ar
   133   175   173    1
   134   134   137    1
   135   134   133    1
   136   134   135    1
   137   130   131   ar
   138   142   140   ar
   139   187   186    1
   140   125   128    1
   141   125   124    1
   142   135   136    2
   143   173   174    1
   144   173   172    2
   145   186   184   ar
   146   186   185   ar
   147   151   150    2
   148   184   182   ar
   149   164   163    1
   150   172   171    1
   151   185   183   ar
   152   150   152   am
   153   150   149    1
   154   148   147    2
   155   182   181   ar
   156   147   146    1
   157   171   170    1
   158   163   161   ar
   159   163   162   ar
   160   183   181   ar
   161   149   146    1
   162   181   180    1
   163   161   159   ar
   164   162   160   ar
   165   146   145    1
   166   170   169    1
   167   176   177    1
   168   177   180    1
   169   177   178    1
   170   159   158   ar
   171   160   158   ar
   172   169   166    1
   173   158   157    1
   174   178   179    2
   175   168   167    2
   176   166   167    1
   177   166   165    1
   178   157   154    1
   179   156   155    2
   180   155   154    1
   181   154   153    1
