@<TRIPOS>MOLECULE
tmp/4pw3A00.pdb
 169 162 0 0 0
SMALL
GASTEIGER

@<TRIPOS>ATOM
      1  N         -0.8640    9.3860   45.9320 N.3    42  TYR42      -0.1227
      2  CA        -2.0840    8.7980   45.3810 C.3    42  TYR42       0.1736
      3  C         -1.9440    8.4260   43.9150 C.2    42  TYR42       0.2595
      4  O         -1.0460    8.9000   43.2320 O.2    42  TYR42      -0.2718
      5  CB        -3.2690    9.7530   45.5400 C.3    42  TYR42       0.0548
      6  CG        -3.4160   10.7900   44.4430 C.ar   42  TYR42      -0.0200
      7  CD1       -2.5330   11.8630   44.3420 C.ar   42  TYR42      -0.0009
      8  CD2       -4.4510   10.7080   43.5210 C.ar   42  TYR42      -0.0009
      9  CE1       -2.6740   12.8220   43.3410 C.ar   42  TYR42       0.0417
     10  CE2       -4.6010   11.6590   42.5200 C.ar   42  TYR42       0.0417
     11  CZ        -3.7060   12.7120   42.4320 C.ar   42  TYR42       0.1957
     12  OH        -3.8490   13.6570   41.4430 O.3    42  TYR42      -0.2866
     13  N         -2.8590    7.5810   43.4460 N.am   43  ILE43      -0.1966
     14  CA        -2.8690    7.1350   42.0600 C.3    43  ILE43       0.1727
     15  C         -4.2600    7.2660   41.4890 C.2    43  ILE43       0.2616
     16  O         -5.2330    6.8690   42.1180 O.2    43  ILE43      -0.2715
     17  CB        -2.4510    5.6520   41.9180 C.3    43  ILE43       0.0290
     18  CG1       -1.0100    5.4410   42.3720 C.3    43  ILE43       0.0022
     19  CG2       -2.5870    5.1930   40.4670 C.3    43  ILE43       0.0023
     20  CD1        0.0110    5.9470   41.3890 C.3    43  ILE43       0.0001
     21  N         -4.3460    7.8330   40.2930 N.am   44  ARG44      -0.1963
     22  CA        -5.5970    7.8690   39.5440 C.3    44  ARG44       0.1729
     23  C         -5.3020    7.7110   38.0640 C.2    44  ARG44       0.2616
     24  O         -4.8180    8.6400   37.4220 O.2    44  ARG44      -0.2715
     25  CB        -6.3680    9.1690   39.7950 C.3    44  ARG44       0.0348
     26  CG        -7.8640    9.1120   39.3920 C.3    44  ARG44       0.0492
     27  CD        -8.0700    9.4010   37.9160 C.3    44  ARG44       0.2205
     28  NE        -9.4750    9.4480   37.5320 N.pl3  44  ARG44      -0.0865
     29  CZ       -10.2140    8.3940   37.1720 C.cat  44  ARG44       0.5346
     30  NH1       -9.7040    7.1660   37.1330 N.pl3  44  ARG44       0.1354
     31  NH2      -11.4870    8.5670   36.8500 N.pl3  44  ARG44       0.1354
     32  N         -5.5990    6.5280   37.5350 N.am   45  ASN45      -0.1958
     33  CA        -5.5060    6.2720   36.0980 C.3    45  ASN45       0.1819
     34  C         -6.8950    6.1110   35.4800 C.2    45  ASN45       0.2621
     35  O         -7.7980    5.5550   36.1070 O.2    45  ASN45      -0.2715
     36  CB        -4.6590    5.0230   35.8420 C.3    45  ASN45       0.1195
     37  CG        -3.1790    5.2710   36.0490 C.2    45  ASN45       0.2630
     38  OD1       -2.6320    6.2620   35.5660 O.2    45  ASN45      -0.2716
     39  ND2       -2.5200    4.3660   36.7640 N.am   45  ASN45      -0.0877
     40  N         -7.0680    6.6230   34.2640 N.am   46  ASN46      -0.1958
     41  CA        -8.3070    6.4180   33.5030 C.3    46  ASN46       0.1819
     42  C         -8.2700    5.1280   32.6820 C.2    46  ASN46       0.2621
     43  O         -9.3100    4.5370   32.4020 O.2    46  ASN46      -0.2715
     44  CB        -8.5840    7.6000   32.5720 C.3    46  ASN46       0.1195
     45  CG        -8.8050    8.8980   33.3240 C.2    46  ASN46       0.2630
     46  OD1       -7.8550    9.5790   33.6920 O.2    46  ASN46      -0.2716
     47  ND2      -10.0650    9.2510   33.5420 N.am   46  ASN46      -0.0877
     48  N         -7.0700    4.7140   32.2850 N.am   47  VAL47      -0.1977
     49  CA        -6.8700    3.4770   31.5240 C.3    47  VAL47       0.1596
     50  C         -5.6900    2.7150   32.1050 C.2    47  VAL47       0.2287
     51  O         -4.9630    3.2350   32.9560 O.2    47  VAL47      -0.2864
     52  CB        -6.5980    3.7520   30.0260 C.3    47  VAL47       0.0276
     53  CG1       -7.7940    4.4430   29.3720 C.3    47  VAL47       0.0022
     54  CG2       -5.3440    4.5850   29.8550 C.3    47  VAL47       0.0022
     55  N         -0.3680   18.2170   43.0700 N.3    91  LEU91      -0.1245
     56  CA        -0.9940   17.2550   42.1760 C.3    91  LEU91       0.1561
     57  C         -2.2440   16.7370   42.8750 C.2    91  LEU91       0.2260
     58  O         -2.1500   16.0320   43.8760 O.2    91  LEU91      -0.2867
     59  CB        -0.0350   16.1030   41.8790 C.3    91  LEU91       0.0270
     60  CG        -0.5200   15.0700   40.8530 C.3    91  LEU91       0.0019
     61  CD1       -0.6450   15.6910   39.4710 C.3    91  LEU91       0.0001
     62  CD2        0.4040   13.8540   40.8210 C.3    91  LEU91       0.0001
     63  N         -6.4840   15.3230   42.1920 N.3    93  CYS93      -0.1235
     64  CA        -7.5500   14.9140   41.2890 C.3    93  CYS93       0.1677
     65  C         -8.7260   15.8550   41.4190 C.2    93  CYS93       0.2270
     66  O         -9.0310   16.3260   42.5170 O.2    93  CYS93      -0.2867
     67  CB        -8.0100   13.4820   41.5790 C.3    93  CYS93       0.0956
     68  SG        -9.1250   12.8360   40.3030 S.3    93  CYS93      -0.0801
     69  N         -1.3890   11.2690   26.1490 N.3   152  GLY152     -0.1225
     70  CA        -0.8690   10.1440   26.9260 C.3   152  GLY152      0.1811
     71  C         -0.3400    9.0300   26.0330 C.2   152  GLY152      0.2280
     72  O         -0.9040    8.7530   24.9660 O.2   152  GLY152     -0.2866
     73  N         -0.2460    5.7540   26.3200 N.3   154  GLU154     -0.1245
     74  CA        -0.8070    4.4030   26.4310 C.3   154  GLU154      0.1567
     75  C         -1.1580    3.8360   25.0600 C.2   154  GLU154      0.2260
     76  O         -1.6630    4.5540   24.1910 O.2   154  GLU154     -0.2867
     77  CB        -2.0700    4.3830   27.2940 C.3   154  GLU154      0.0388
     78  CG        -1.8720    4.8270   28.7290 C.3   154  GLU154      0.1160
     79  CD        -2.2700    6.2790   28.9680 C.2   154  GLU154      0.3649
     80  OE1       -2.0320    7.1370   28.0890 O.co2 154  GLU154     -0.2457
     81  OE2       -2.8180    6.5640   30.0510 O.co2 154  GLU154     -0.2457
     82  N         -6.1650    9.3590   26.5300 N.3   167  VAL167     -0.1245
     83  CA        -5.9850   10.3800   27.5560 C.3   167  VAL167      0.1561
     84  C         -5.2430   11.5600   26.9340 C.2   167  VAL167      0.2260
     85  O         -4.0140   11.6400   26.9710 O.2   167  VAL167     -0.2867
     86  CB        -5.2460    9.8500   28.7930 C.3   167  VAL167      0.0252
     87  CG1       -5.1990   10.9210   29.8630 C.3   167  VAL167      0.0019
     88  CG2       -5.9360    8.6010   29.3290 C.3   167  VAL167      0.0019
     89  N          3.6570    7.1560   38.1770 N.3   194  HIS194     -0.1241
     90  CA         3.3680    8.5970   38.1540 C.3   194  HIS194      0.1621
     91  C          3.7300    9.2920   36.8490 C.2   194  HIS194      0.2264
     92  O          3.8110   10.5200   36.8050 O.2   194  HIS194     -0.2867
     93  CB         4.0580    9.2690   39.3310 C.3   194  HIS194      0.0745
     94  CG         3.5640    8.7770   40.6480 C.ar  194  HIS194      0.0817
     95  ND1        2.2510    8.9090   41.0400 N.ar  194  HIS194     -0.2268
     96  CD2        4.1940    8.1310   41.6550 C.ar  194  HIS194      0.1154
     97  CE1        2.0960    8.3750   42.2370 C.ar  194  HIS194      0.1986
     98  NE2        3.2610    7.8970   42.6330 N.ar  194  HIS194     -0.2212
     99  N          6.5030   13.3550   31.7960 N.3   199  ARG199     -0.1245
    100  CA         5.1680   13.8340   32.1500 C.3   199  ARG199      0.1563
    101  C          4.9820   15.3380   31.8880 C.2   199  ARG199      0.2260
    102  O          5.8440   16.1560   32.2120 O.2   199  ARG199     -0.2867
    103  CB         4.8730   13.5360   33.6230 C.3   199  ARG199      0.0307
    104  CG         3.4340   13.8540   34.0130 C.3   199  ARG199      0.0489
    105  CD         3.0590   13.2660   35.3390 C.3   199  ARG199      0.2205
    106  NE         1.6220   13.3510   35.5690 N.pl3 199  ARG199     -0.0865
    107  CZ         0.9850   12.8110   36.6050 C.cat 199  ARG199      0.5346
    108  NH1        1.6490   12.1340   37.5330 N.pl3 199  ARG199      0.1354
    109  NH2       -0.3250   12.9520   36.7130 N.pl3 199  ARG199      0.1354
    110  N         -5.4130   17.3750   38.3290 N.3   207  GLY207     -0.1210
    111  CA        -4.6750   16.1620   37.9840 C.3   207  GLY207      0.1956
    112  C         -4.8310   15.7000   36.5530 C.2   207  GLY207      0.2611
    113  O         -3.8390   15.4680   35.8690 O.2   207  GLY207     -0.2717
    114  N         -6.0760   15.5970   36.0910 N.am  208  VAL208     -0.1979
    115  CA        -6.3750   15.0890   34.7400 C.3   208  VAL208      0.1595
    116  C         -5.5140   15.7170   33.6450 C.2   208  VAL208      0.2287
    117  O         -5.1290   15.0320   32.6870 O.2   208  VAL208     -0.2864
    118  CB        -7.8740   15.2660   34.3730 C.3   208  VAL208      0.0276
    119  CG1       -8.2740   16.7570   34.3620 C.3   208  VAL208      0.0022
    120  CG2       -8.1760   14.6140   33.0360 C.3   208  VAL208      0.0022
    121  N         -2.4580   16.8360   33.8960 N.3   210  ASN210     -0.1225
    122  CA        -1.0430   16.4830   33.9990 C.3   210  ASN210      0.1785
    123  C         -0.7820   15.1070   33.3710 C.2   210  ASN210      0.2597
    124  O         -0.8120   14.0850   34.0400 O.2   210  ASN210     -0.2718
    125  CB        -0.5850   16.5470   35.4520 C.3   210  ASN210      0.1169
    126  CG        -0.7390   17.9470   36.0460 C.2   210  ASN210      0.2627
    127  OD1        0.1810   18.7590   35.9890 O.2   210  ASN210     -0.2716
    128  ND2       -1.9050   18.2310   36.5980 N.am  210  ASN210     -0.0877
    129  N         -0.5130   15.1120   32.0710 N.am  211  ILE211     -0.1966
    130  CA        -0.5090   13.8980   31.2410 C.3   211  ILE211      0.1727
    131  C          0.7080   13.0080   31.4480 C.2   211  ILE211      0.2616
    132  O          1.8240   13.3920   31.1200 O.2   211  ILE211     -0.2715
    133  CB        -0.5760   14.2520   29.7330 C.3   211  ILE211      0.0290
    134  CG1       -1.8910   14.9450   29.4080 C.3   211  ILE211      0.0022
    135  CG2       -0.4290   13.0050   28.8830 C.3   211  ILE211      0.0023
    136  CD1       -3.1140   14.0700   29.6300 C.3   211  ILE211      0.0001
    137  N          0.4630   11.8100   31.9750 N.am  212  LYS212     -0.1963
    138  CA         1.4980   10.7900   32.1660 C.3   212  LYS212      0.1728
    139  C          2.0430   10.3000   30.8360 C.2   212  LYS212      0.2616
    140  O          1.3330   10.3300   29.8360 O.2   212  LYS212     -0.2715
    141  CB         0.9250    9.5850   32.9230 C.3   212  LYS212      0.0311
    142  CG         0.4630    9.8880   34.3390 C.3   212  LYS212      0.0038
    143  CD        -0.0310    8.6300   35.0310 C.3   212  LYS212      0.0206
    144  CE        -0.6040    8.9430   36.3960 C.3   212  LYS212      0.1093
    145  NZ        -0.8610    7.7080   37.2110 N.3   212  LYS212     -0.1314
    146  N          3.2950    9.8270   30.8420 N.am  213  TYR213     -0.1974
    147  CA         3.9530    9.2750   29.6370 C.3   213  TYR213      0.1639
    148  C          3.5870   10.0470   28.3670 C.2   213  TYR213      0.2290
    149  O          3.1230    9.4770   27.3840 O.2   213  TYR213     -0.2864
    150  CB         3.6790    7.7610   29.4730 C.3   213  TYR213      0.0560
    151  CG         2.7400    7.1570   30.4910 C.ar  213  TYR213     -0.0198
    152  CD1        1.3730    7.0890   30.2610 C.ar  213  TYR213     -0.0009
    153  CD2        3.2250    6.6360   31.6750 C.ar  213  TYR213     -0.0009
    154  CE1        0.5150    6.5220   31.2040 C.ar  213  TYR213      0.0417
    155  CE2        2.3720    6.0650   32.6200 C.ar  213  TYR213      0.0417
    156  CZ         1.0280    6.0170   32.3830 C.ar  213  TYR213      0.1957
    157  OH         0.1980    5.4530   33.3390 O.3   213  TYR213     -0.2866
    158  N        -14.9820   15.3930   32.4300 N.3   233  TYR233     -0.1241
    159  CA       -14.2810   16.4230   33.2020 C.3   233  TYR233      0.1605
    160  C        -14.8180   17.8320   32.9210 C.2   233  TYR233      0.2264
    161  O        -14.0620   18.7960   32.7540 O.2   233  TYR233     -0.2867
    162  CB       -12.7720   16.3210   32.9840 C.3   233  TYR233      0.0534
    163  CG       -12.2120   15.0280   33.5180 C.ar  233  TYR233     -0.0201
    164  CD1      -11.8970   14.8920   34.8620 C.ar  233  TYR233     -0.0009
    165  CD2      -12.0130   13.9290   32.6870 C.ar  233  TYR233     -0.0009
    166  CE1      -11.3960   13.6980   35.3690 C.ar  233  TYR233      0.0417
    167  CE2      -11.5060   12.7280   33.1860 C.ar  233  TYR233      0.0417
    168  CZ       -11.2000   12.6230   34.5280 C.ar  233  TYR233      0.1957
    169  OH       -10.7060   11.4390   35.0310 O.3   233  TYR233     -0.2866
@<TRIPOS>BOND
     1    76    75    2
     2    72    71    2
     3    75    74    1
     4    71    70    1
     5    69    70    1
     6    73    74    1
     7    74    77    1
     8    82    83    1
     9    84    85    2
    10    84    83    1
    11    77    78    1
    12   149   148    2
    13    83    86    1
    14    80    79   ar
    15   148   147    1
    16    78    79    1
    17    86    88    1
    18    86    87    1
    19   135   133    1
    20    79    81   ar
    21    53    52    1
    22   134   136    1
    23   134   133    1
    24   150   147    1
    25   150   151    1
    26   147   146    1
    27   133   130    1
    28   140   139    2
    29    54    52    1
    30    52    49    1
    31   152   151   ar
    32   152   154   ar
    33   151   153   ar
    34   139   146   am
    35   139   138    1
    36   132   131    2
    37   154   156   ar
    38   130   131    1
    39   130   129    1
    40   131   137   am
    41    49    50    1
    42    49    48    1
    43   153   155   ar
    44    99   100    1
    45   101   100    1
    46   101   102    2
    47   137   138    1
    48   129   123   am
    49    50    51    2
    50   100   103    1
    51   138   141    1
    52    48    42   am
    53   156   155   ar
    54   156   157    1
    55    43    42    2
    56   158   159    1
    57    44    45    1
    58    44    41    1
    59    42    41    1
    60   117   116    2
    61   165   167   ar
    62   165   163   ar
    63   161   160    2
    64   160   159    1
    65   141   142    1
    66   162   159    1
    67   162   163    1
    68   120   118    1
    69   167   168   ar
    70    45    47   am
    71    45    46    2
    72   123   122    1
    73   123   124    2
    74    41    40    1
    75   163   164   ar
    76   103   104    1
    77   116   115    1
    78   121   122    1
    79   122   125    1
    80   104   105    1
    81    40    34   am
    82   142   143    1
    83   119   118    1
    84   118   115    1
    85   168   169    1
    86   168   166   ar
    87   115   114    1
    88   164   166   ar
    89   143   144    1
    90   105   106    1
    91   125   126    1
    92    34    33    1
    93    34    35    2
    94    38    37    2
    95   106   107    2
    96    36    37    1
    97    36    33    1
    98   113   112    2
    99   127   126    2
   100   126   128   am
   101    37    39   am
   102   114   112   am
   103    33    32    1
   104   144   145    1
   105   112   111    1
   106   107   109    1
   107   107   108    1
   108    92    91    2
   109    91    90    1
   110    31    29    1
   111    30    29    1
   112    29    28    2
   113    24    23    2
   114    28    27    1
   115    32    23   am
   116    27    26    1
   117   111   110    1
   118    23    22    1
   119    90    89    1
   120    90    93    1
   121    93    94    1
   122    26    25    1
   123    61    60    1
   124    22    25    1
   125    22    21    1
   126    21    15   am
   127    68    67    1
   128    19    17    1
   129    94    95   ar
   130    94    96   ar
   131    62    60    1
   132    60    59    1
   133    95    97   ar
   134    64    65    1
   135    64    67    1
   136    64    63    1
   137    20    18    1
   138    65    66    2
   139    12    11    1
   140    15    14    1
   141    15    16    2
   142    96    98   ar
   143    59    56    1
   144    17    14    1
   145    17    18    1
   146    14    13    1
   147    56    57    1
   148    56    55    1
   149    97    98   ar
   150    11    10   ar
   151    11     9   ar
   152    10     8   ar
   153    57    58    2
   154     4     3    2
   155     9     7   ar
   156    13     3   am
   157     8     6   ar
   158     3     2    1
   159     7     6   ar
   160     6     5    1
   161     2     5    1
   162     2     1    1
