@<TRIPOS>MOLECULE
tmp/4pw4A00.pdb
 150 144 0 0 0
SMALL
GASTEIGER

@<TRIPOS>ATOM
      1  N         20.9550   41.7000  -28.2200 N.3   112  GLN112     -0.1245
      2  CA        20.0550   42.1320  -27.2520 C.3   112  GLN112      0.1566
      3  C         20.8130   43.1520  -26.3910 C.2   112  GLN112      0.2260
      4  O         21.7900   42.8370  -25.7000 O.2   112  GLN112     -0.2867
      5  CB        19.5430   41.0120  -26.3690 C.3   112  GLN112      0.0367
      6  CG        18.7260   41.3740  -25.1740 C.3   112  GLN112      0.0905
      7  CD        17.5000   42.2170  -25.6050 C.2   112  GLN112      0.2608
      8  OE1       17.0180   42.0660  -26.7270 O.2   112  GLN112     -0.2717
      9  NE2       17.0840   43.1680  -24.7890 N.am  112  GLN112     -0.0878
     10  N         18.8890   45.7890  -24.3880 N.3   114  GLU114     -0.1231
     11  CA        18.1910   46.3280  -23.2090 C.3   114  GLU114      0.1684
     12  C         18.4350   45.4450  -21.9910 C.2   114  GLU114      0.2434
     13  O         18.2670   44.2580  -22.1020 O.2   114  GLU114     -0.2733
     14  CB        16.6640   46.4620  -23.4250 C.3   114  GLU114      0.0402
     15  CG        16.0630   47.2900  -22.2970 C.3   114  GLU114      0.1161
     16  CD        14.5640   47.4540  -22.3710 C.2   114  GLU114      0.3649
     17  OE1       13.9600   47.0870  -23.4090 O.co2 114  GLU114     -0.2457
     18  OE2       13.9530   47.9230  -21.3570 O.co2 114  GLU114     -0.2457
     19  N         18.8230   46.0210  -20.8100 N.am  115  PRO115     -0.2729
     20  CA        19.0880   47.4040  -20.5540 C.3   115  PRO115      0.1401
     21  C         20.5180   47.8580  -20.8750 C.2   115  PRO115      0.2269
     22  O         20.6930   48.9760  -21.3580 O.2   115  PRO115     -0.2865
     23  CB        18.7570   47.5580  -19.0660 C.3   115  PRO115      0.0296
     24  CG        19.0880   46.2170  -18.5370 C.3   115  PRO115      0.0237
     25  CD        18.5890   45.2670  -19.5510 C.3   115  PRO115      0.0939
     26  N         16.6830   33.3530  -26.5890 N.3   247  PHE247     -0.1227
     27  CA        16.3250   34.7090  -26.2230 C.3   247  PHE247      0.1736
     28  C         15.8450   34.6940  -24.8010 C.2   247  PHE247      0.2595
     29  O         15.0880   33.8410  -24.4390 O.2   247  PHE247     -0.2718
     30  CB        15.2410   35.2280  -27.1300 C.3   247  PHE247      0.0547
     31  CG        15.1360   36.7360  -27.1530 C.ar  247  PHE247     -0.0202
     32  CD1       16.0780   37.4580  -27.7740 C.ar  247  PHE247     -0.0042
     33  CD2       14.0010   37.3860  -26.6860 C.ar  247  PHE247     -0.0042
     34  CE1       16.0140   38.8320  -27.8720 C.ar  247  PHE247     -0.0003
     35  CE2       13.8880   38.7690  -26.7490 C.ar  247  PHE247     -0.0003
     36  CZ        14.9010   39.4990  -27.3750 C.ar  247  PHE247     -0.0000
     37  N         16.3760   35.6060  -23.9920 N.am  248  ASN248     -0.1974
     38  CA        16.0570   35.6360  -22.5780 C.3   248  ASN248      0.1688
     39  C         14.6330   36.0040  -22.2090 C.2   248  ASN248      0.2292
     40  O         14.1640   35.5580  -21.1740 O.2   248  ASN248     -0.2864
     41  CB        17.0090   36.5840  -21.8610 C.3   248  ASN248      0.1181
     42  CG        18.3950   36.0010  -21.7780 C.2   248  ASN248      0.2629
     43  OD1       18.5290   34.8050  -21.7420 O.2   248  ASN248     -0.2716
     44  ND2       19.4080   36.8320  -21.7120 N.am  248  ASN248     -0.0877
     45  N         10.6510   37.8600  -23.9590 N.3   249  GLY249     -0.1210
     46  CA         9.7110   37.6290  -25.0070 C.3   249  GLY249      0.1956
     47  C          9.9840   38.2670  -26.3280 C.2   249  GLY249      0.2611
     48  O          9.9330   37.6330  -27.3610 O.2   249  GLY249     -0.2717
     49  N         10.3420   39.5460  -26.2890 N.am  250  ALA250     -0.1979
     50  CA        10.5520   40.3030  -27.4850 C.3   250  ALA250      0.1597
     51  C         11.2140   41.6250  -27.1060 C.2   250  ALA250      0.2287
     52  O         11.4050   41.9420  -25.9040 O.2   250  ALA250     -0.2864
     53  CB         9.2610   40.4530  -28.2470 C.3   250  ALA250      0.0319
     54  N         11.7550   45.7970  -28.5730 N.3   251  GLU251     -0.1245
     55  CA        11.2460   46.8590  -29.4250 C.3   251  GLU251      0.1567
     56  C         12.2740   47.6990  -30.1630 C.2   251  GLU251      0.2260
     57  O         12.0280   48.8520  -30.4300 O.2   251  GLU251     -0.2867
     58  CB        10.4020   47.8180  -28.5720 C.3   251  GLU251      0.0388
     59  CG        11.1820   48.6400  -27.5310 C.3   251  GLU251      0.1160
     60  CD        11.2260   48.0660  -26.1540 C.2   251  GLU251      0.3649
     61  OE1       11.0980   46.7880  -26.0130 O.co2 251  GLU251     -0.2457
     62  OE2       11.3150   48.9160  -25.2120 O.co2 251  GLU251     -0.2457
     63  N          2.3290   44.8320  -28.4050 N.3   284  HIS284     -0.1226
     64  CA         3.2160   45.3370  -27.3630 C.3   284  HIS284      0.1752
     65  C          4.4460   45.9540  -27.9560 C.2   284  HIS284      0.2595
     66  O          4.6970   47.1330  -27.7230 O.2   284  HIS284     -0.2718
     67  CB         3.5550   44.3070  -26.3070 C.3   284  HIS284      0.0759
     68  CG         4.4000   44.8480  -25.1890 C.ar  284  HIS284      0.0818
     69  ND1        3.8630   45.1690  -23.9740 N.ar  284  HIS284     -0.2268
     70  CD2        5.7260   45.1020  -25.0870 C.ar  284  HIS284      0.1154
     71  CE1        4.8160   45.6050  -23.1670 C.ar  284  HIS284      0.1986
     72  NE2        5.9560   45.5160  -23.8080 N.ar  284  HIS284     -0.2212
     73  N          5.2170   45.2320  -28.7680 N.am  285  GLU285     -0.1979
     74  CA         6.4760   45.7740  -29.2580 C.3   285  GLU285      0.1602
     75  C          6.2790   46.9630  -30.2400 C.2   285  GLU285      0.2287
     76  O          7.0210   47.9490  -30.2530 O.2   285  GLU285     -0.2864
     77  CB         7.2400   44.7000  -30.0180 C.3   285  GLU285      0.0415
     78  CG         7.7910   43.5740  -29.1710 C.3   285  GLU285      0.1163
     79  CD         8.1440   43.8660  -27.7280 C.2   285  GLU285      0.3649
     80  OE1        8.9880   44.7140  -27.3340 O.co2 285  GLU285     -0.2457
     81  OE2        7.6330   43.0820  -26.9580 O.co2 285  GLU285     -0.2457
     82  N          5.4980   50.1470  -28.4150 N.3   288  HIS288     -0.1241
     83  CA         6.6920   50.8040  -27.9290 C.3   288  HIS288      0.1621
     84  C          7.2560   51.8010  -28.8440 C.2   288  HIS288      0.2264
     85  O          8.0420   52.6910  -28.4160 O.2   288  HIS288     -0.2867
     86  CB         7.7890   49.7800  -27.6030 C.3   288  HIS288      0.0745
     87  CG         7.7420   49.2070  -26.2350 C.ar  288  HIS288      0.0817
     88  ND1        7.7130   49.9750  -25.0970 N.ar  288  HIS288     -0.2268
     89  CD2        7.9000   47.9080  -25.8150 C.ar  288  HIS288      0.1154
     90  CE1        7.7880   49.1920  -24.0390 C.ar  288  HIS288      0.1986
     91  NE2        7.8880   47.9350  -24.4520 N.ar  288  HIS288     -0.2212
     92  N          7.6870   53.2860  -19.6450 N.3   306  LYS306     -0.1231
     93  CA         7.4290   52.5900  -20.9150 C.3   306  LYS306      0.1693
     94  C          6.7270   51.2580  -20.7620 C.2   306  LYS306      0.2591
     95  O          5.8050   50.9700  -21.5480 O.2   306  LYS306     -0.2718
     96  CB         8.6540   52.4840  -21.8190 C.3   306  LYS306      0.0285
     97  CG         9.7990   51.5980  -21.3200 C.3   306  LYS306      0.0035
     98  CD        10.8160   51.5410  -22.3740 C.3   306  LYS306      0.0206
     99  CE        12.0310   50.6180  -22.1300 C.3   306  LYS306      0.1093
    100  NZ        11.7630   49.1430  -22.2780 N.3   306  LYS306     -0.1314
    101  N          7.0320   50.4730  -19.7220 N.am  307  GLU307     -0.1979
    102  CA         6.4840   49.1190  -19.6850 C.3   307  GLU307      0.1602
    103  C          5.0660   49.0800  -19.1590 C.2   307  GLU307      0.2287
    104  O          4.1900   48.4090  -19.7470 O.2   307  GLU307     -0.2864
    105  CB         7.3870   48.1550  -18.9510 C.3   307  GLU307      0.0415
    106  CG         8.7540   48.0140  -19.6070 C.3   307  GLU307      0.1163
    107  CD         8.7150   47.4750  -21.0610 C.2   307  GLU307      0.3649
    108  OE1        7.6280   46.9760  -21.4730 O.co2 307  GLU307     -0.2457
    109  OE2        9.7910   47.5230  -21.7550 O.co2 307  GLU307     -0.2457
    110  N         18.6490   44.1470  -14.5020 N.3   359  ASN359     -0.1240
    111  CA        17.9550   42.9900  -15.0650 C.3   359  ASN359      0.1653
    112  C         17.0150   42.2950  -14.0660 C.2   359  ASN359      0.2266
    113  O         16.1420   41.5190  -14.4750 O.2   359  ASN359     -0.2867
    114  CB        18.9340   41.8910  -15.5550 C.3   359  ASN359      0.1155
    115  CG        19.8420   42.3220  -16.7050 C.2   359  ASN359      0.2627
    116  OD1       19.4370   42.9240  -17.6090 O.2   359  ASN359     -0.2716
    117  ND2       21.0590   41.8750  -16.6680 N.am  359  ASN359     -0.0877
    118  N         12.8860   43.6700  -14.2970 N.3   362  TYR362     -0.1241
    119  CA        11.8780   43.3760  -15.3410 C.3   362  TYR362      0.1605
    120  C         10.7760   42.5320  -14.8080 C.2   362  TYR362      0.2264
    121  O         10.6360   41.3710  -15.1990 O.2   362  TYR362     -0.2867
    122  CB        12.5130   42.8330  -16.6110 C.3   362  TYR362      0.0534
    123  CG        13.2400   43.9760  -17.3560 C.ar  362  TYR362     -0.0201
    124  CD1       14.4040   44.5400  -16.8220 C.ar  362  TYR362     -0.0009
    125  CD2       12.6960   44.5810  -18.4750 C.ar  362  TYR362     -0.0009
    126  CE1       15.0220   45.5960  -17.4140 C.ar  362  TYR362      0.0417
    127  CE2       13.3510   45.6830  -19.1230 C.ar  362  TYR362      0.0417
    128  CZ        14.5600   46.1060  -18.6040 C.ar  362  TYR362      0.1957
    129  OH        15.2160   47.2290  -19.0940 O.3   362  TYR362     -0.2866
    130  N          5.6670   45.8110  -14.6930 N.3   366  TYR366     -0.1241
    131  CA         4.8570   45.5820  -15.8830 C.3   366  TYR366      0.1605
    132  C          3.3790   45.5720  -15.5850 C.2   366  TYR366      0.2264
    133  O          2.6350   46.4080  -16.0670 O.2   366  TYR366     -0.2867
    134  CB         5.2200   44.2830  -16.5770 C.3   366  TYR366      0.0534
    135  CG         6.4090   44.3460  -17.4590 C.ar  366  TYR366     -0.0201
    136  CD1        7.6800   44.5660  -16.9390 C.ar  366  TYR366     -0.0009
    137  CD2        6.2950   44.1570  -18.8270 C.ar  366  TYR366     -0.0009
    138  CE1        8.7940   44.6420  -17.7650 C.ar  366  TYR366      0.0417
    139  CE2        7.3810   44.2390  -19.6530 C.ar  366  TYR366      0.0417
    140  CZ         8.6500   44.4680  -19.1320 C.ar  366  TYR366      0.1957
    141  OH         9.7450   44.4820  -19.9840 O.3   366  TYR366     -0.2866
    142  N         20.7130   35.7970  -15.9420 N.3   798  GLN798     -0.1245
    143  CA        19.3000   36.3360  -15.9940 C.3   798  GLN798      0.1566
    144  C         18.2930   35.2300  -15.7750 C.2   798  GLN798      0.2260
    145  O         17.3630   35.3190  -14.9740 O.2   798  GLN798     -0.2867
    146  CB        18.9930   36.9840  -17.3060 C.3   798  GLN798      0.0367
    147  CG        19.5910   38.3330  -17.4390 C.3   798  GLN798      0.0905
    148  CD        19.1990   38.9610  -18.7680 C.2   798  GLN798      0.2608
    149  OE1       20.0570   39.2280  -19.5830 O.2   798  GLN798     -0.2717
    150  NE2       17.9160   39.0960  -19.0200 N.am  798  GLN798     -0.0878
@<TRIPOS>BOND
     1    57    56    2
     2    76    75    2
     3    75    74    1
     4    56    55    1
     5    77    74    1
     6    77    78    1
     7    55    54    1
     8    55    58    1
     9    74    73    1
    10    78    79    1
    11    84    85    2
    12    84    83    1
    13    73    65   am
    14    58    59    1
    15    82    83    1
    16    63    64    1
    17    53    50    1
    18     1     2    1
    19    65    66    2
    20    65    64    1
    21    83    86    1
    22    34    32   ar
    23    34    36   ar
    24    32    31   ar
    25    79    80   ar
    26    79    81   ar
    27    86    87    1
    28    59    60    1
    29    50    51    1
    30    50    49    1
    31    36    35   ar
    32    64    67    1
    33    48    47    2
    34     2     3    1
    35     2     5    1
    36    31    30    1
    37    31    33   ar
    38    30    27    1
    39    51    52    2
    40    35    33   ar
    41     8     7    2
    42    26    27    1
    43     3     4    2
    44     5     6    1
    45    47    49   am
    46    47    46    1
    47    67    68    1
    48    87    89   ar
    49    87    88   ar
    50    27    28    1
    51    60    61   ar
    52    60    62   ar
    53    89    91   ar
    54     7     6    1
    55     7     9   am
    56    68    70   ar
    57    68    69   ar
    58    88    90   ar
    59    70    72   ar
    60    46    45    1
    61    28    29    2
    62    28    37   am
    63    91    90   ar
    64    10    11    1
    65    37    38    1
    66    69    71   ar
    67    72    71   ar
    68    14    11    1
    69    14    15    1
    70    17    16   ar
    71    11    12    1
    72    38    39    1
    73    38    41    1
    74    98    99    1
    75    98    97    1
    76    16    15    1
    77    16    18   ar
    78   100    99    1
    79    39    40    2
    80    13    12    2
    81    12    19   am
    82    41    42    1
    83    96    97    1
    84    96    93    1
    85    42    43    2
    86    42    44   am
    87   109   107   ar
    88    95    94    2
    89   108   107   ar
    90    22    21    2
    91   107   106    1
    92    93    94    1
    93    93    92    1
    94    21    20    1
    95    19    20    1
    96    19    25    1
    97    94   101   am
    98    20    23    1
    99   141   140    1
   100   104   103    2
   101   101   102    1
   102   102   103    1
   103   102   105    1
   104   139   140   ar
   105   139   137   ar
   106   106   105    1
   107   149   148    2
   108    25    24    1
   109   140   138   ar
   110   127   128   ar
   111   127   125   ar
   112   129   128    1
   113    23    24    1
   114   150   148   am
   115   137   135   ar
   116   148   147    1
   117   128   126   ar
   118   125   123   ar
   119   138   136   ar
   120   116   115    2
   121   135   136   ar
   122   135   134    1
   123   147   146    1
   124   126   124   ar
   125   123   124   ar
   126   123   122    1
   127   146   143    1
   128   115   117   am
   129   115   114    1
   130   122   119    1
   131   134   131    1
   132   133   132    2
   133   143   142    1
   134   143   144    1
   135   131   132    1
   136   131   130    1
   137   144   145    2
   138   114   111    1
   139   119   120    1
   140   119   118    1
   141   121   120    2
   142   111   110    1
   143   111   112    1
   144   113   112    2
