@<TRIPOS>MOLECULE
tmp/4pw9A01.pdb
 105 99 0 0 0
SMALL
GASTEIGER

@<TRIPOS>ATOM
      1  N          8.8950   18.9020    3.4110 N.3    19  LYS19      -0.1245
      2  CA         9.6750   18.5870    4.6170 C.3    19  LYS19       0.1561
      3  C          8.7870   18.5130    5.8550 C.2    19  LYS19       0.2260
      4  O          9.2680   18.3530    6.9840 O.2    19  LYS19      -0.2867
      5  CB        10.7230   19.6970    4.8760 C.3    19  LYS19       0.0271
      6  CG        11.8250   19.8220    3.8530 C.3    19  LYS19       0.0035
      7  CD        12.8920   18.7640    4.0450 C.3    19  LYS19       0.0206
      8  CE        14.0540   18.9480    3.0550 C.3    19  LYS19       0.1093
      9  NZ        13.6020   19.0280    1.6460 N.3    19  LYS19      -0.1314
     10  N          8.6450   15.7720   10.0640 N.3    42  ARG42      -0.1231
     11  CA         9.3930   17.0230   10.1870 C.3    42  ARG42       0.1694
     12  C         10.8980   16.7410   10.0340 C.2    42  ARG42       0.2592
     13  O         11.5220   16.0560   10.8520 O.2    42  ARG42      -0.2718
     14  CB         9.0680   17.6830   11.5180 C.3    42  ARG42       0.0321
     15  CG         9.5260   19.1270   11.6330 C.3    42  ARG42       0.0489
     16  CD        10.9300   19.2210   12.2260 C.3    42  ARG42       0.2205
     17  NE        11.3900   20.5850   12.3610 N.pl3  42  ARG42      -0.0865
     18  CZ        11.6390   21.4160   11.3470 C.cat  42  ARG42       0.5346
     19  NH1       11.4870   21.0460   10.0810 N.pl3  42  ARG42       0.1354
     20  NH2       12.0400   22.6420   11.6090 N.pl3  42  ARG42       0.1354
     21  N         11.4460   17.2790    8.9570 N.am   43  ASN43      -0.1960
     22  CA        12.8420   17.1520    8.5730 C.3    43  ASN43       0.1819
     23  C         13.5000   18.5170    8.4080 C.2    43  ASN43       0.2621
     24  O         13.0240   19.3370    7.6010 O.2    43  ASN43      -0.2715
     25  CB        12.8990   16.4670    7.2250 C.3    43  ASN43       0.1195
     26  CG        12.4370   15.0610    7.2910 C.2    43  ASN43       0.2630
     27  OD1       12.3860   14.4690    8.3720 O.2    43  ASN43      -0.2716
     28  ND2       12.0920   14.4960    6.1390 N.am   43  ASN43      -0.0877
     29  N         14.5980   18.7490    9.1330 N.am   44  ASN44      -0.1958
     30  CA        15.3240   20.0220    9.0560 C.3    44  ASN44       0.1819
     31  C         16.1140   20.1920    7.7410 C.2    44  ASN44       0.2621
     32  O         16.1870   21.2860    7.1960 O.2    44  ASN44      -0.2715
     33  CB        16.2560   20.1980   10.2620 C.3    44  ASN44       0.1195
     34  CG        15.5090   20.2360   11.5940 C.2    44  ASN44       0.2630
     35  OD1       15.1700   19.2010   12.1450 O.2    44  ASN44      -0.2716
     36  ND2       15.2700   21.4210   12.1170 N.am   44  ASN44      -0.0877
     37  N         16.6930   19.1160    7.2280 N.am   45  VAL45      -0.1977
     38  CA        17.5420   19.1840    6.0290 C.3    45  VAL45       0.1596
     39  C         17.0680   18.1540    5.0380 C.2    45  VAL45       0.2287
     40  O         15.9850   17.6160    5.2070 O.2    45  VAL45      -0.2864
     41  CB        19.0290   18.9060    6.3620 C.3    45  VAL45       0.0276
     42  CG1       19.4460   19.6890    7.6000 C.3    45  VAL45       0.0022
     43  CG2       19.2740   17.4210    6.5570 C.3    45  VAL45       0.0022
     44  N          1.3050   32.6470   16.3870 N.3   100  LYS100     -0.1245
     45  CA         1.1250   33.6280   15.3070 C.3   100  LYS100      0.1561
     46  C         -0.2090   34.3640   15.4760 C.2   100  LYS100      0.2260
     47  O         -0.2990   35.5670   15.2880 O.2   100  LYS100     -0.2867
     48  CB         1.2090   32.9830   13.9120 C.3   100  LYS100      0.0271
     49  CG         2.5450   32.3120   13.5830 C.3   100  LYS100      0.0035
     50  CD         2.7580   32.2000   12.0770 C.3   100  LYS100      0.0206
     51  CE         4.0320   31.4210   11.7540 C.3   100  LYS100      0.1093
     52  NZ         4.4350   31.4320   10.2890 N.3   100  LYS100     -0.1314
     53  N          8.3730   33.5080   11.7440 N.3   110  SER110     -0.1202
     54  CA         8.4500   32.4410   10.7430 C.3   110  SER110      0.2020
     55  C          8.4110   31.0200   11.3180 C.2   110  SER110      0.2619
     56  O          8.5870   30.7830   12.5330 O.2   110  SER110     -0.2717
     57  CB         9.6570   32.6310    9.8070 C.3   110  SER110      0.2103
     58  OG        10.6910   33.4040   10.3900 O.3   110  SER110     -0.2182
     59  N          8.1530   30.0840   10.4160 N.am  111  GLY111     -0.1942
     60  CA         8.0520   28.6770   10.7520 C.3   111  GLY111      0.2014
     61  C          6.7550   28.0590   10.2870 C.2   111  GLY111      0.2639
     62  O          5.7720   28.7610   10.0110 O.2   111  GLY111     -0.2714
     63  N          6.7450   26.7380   10.2060 N.am  112  THR112     -0.1950
     64  CA         5.5310   26.0330    9.8730 C.3   112  THR112      0.1897
     65  C          4.4150   26.3690   10.8710 C.2   112  THR112      0.2313
     66  O          4.5880   26.2580   12.0850 O.2   112  THR112     -0.2863
     67  CB         5.7760   24.5320    9.7850 C.3   112  THR112      0.1794
     68  OG1        6.9200   24.3030    8.9420 O.3   112  THR112     -0.2208
     69  CG2        4.5600   23.8120    9.1760 C.3   112  THR112      0.0378
     70  N         28.8710   23.8130    1.6510 N.3   158  LEU158     -0.1245
     71  CA        28.3660   24.5820    2.7980 C.3   158  LEU158      0.1561
     72  C         28.9920   24.0530    4.0800 C.2   158  LEU158      0.2260
     73  O         29.4240   22.9040    4.1330 O.2   158  LEU158     -0.2867
     74  CB        26.8340   24.5120    2.8680 C.3   158  LEU158      0.0270
     75  CG        26.0250   25.5850    2.1720 C.3   158  LEU158      0.0019
     76  CD1       24.5650   25.2380    2.5140 C.3   158  LEU158      0.0001
     77  CD2       26.3870   26.9390    2.7590 C.3   158  LEU158      0.0001
     78  N         26.4960   24.1840   10.0740 N.3   162  LEU162     -0.1231
     79  CA        25.3350   24.9810    9.7740 C.3   162  LEU162      0.1693
     80  C         24.0850   24.1360    9.4990 C.2   162  LEU162      0.2591
     81  O         22.9650   24.6170    9.6520 O.2   162  LEU162     -0.2718
     82  CB        25.6500   25.8370    8.5430 C.3   162  LEU162      0.0284
     83  CG        24.6300   26.8810    8.1130 C.3   162  LEU162      0.0019
     84  CD1       24.3620   27.8870    9.2470 C.3   162  LEU162      0.0001
     85  CD2       25.1520   27.5510    6.8380 C.3   162  LEU162      0.0001
     86  N         24.2810   22.8920    9.0740 N.am  163  LEU163     -0.1980
     87  CA        23.1890   22.0210    8.6300 C.3   163  LEU163      0.1596
     88  C         23.1100   20.6530    9.3240 C.2   163  LEU163      0.2287
     89  O         22.0810   19.9840    9.2300 O.2   163  LEU163     -0.2864
     90  CB        23.3230   21.7560    7.1410 C.3   163  LEU163      0.0297
     91  CG        23.2470   22.9520    6.1940 C.3   163  LEU163      0.0022
     92  CD1       23.7240   22.4990    4.8200 C.3   163  LEU163      0.0001
     93  CD2       21.8250   23.5570    6.1390 C.3   163  LEU163      0.0001
     94  N         16.4210   26.1570   17.9380 N.3   231  TYR231     -0.1241
     95  CA        15.7370   25.3890   18.9620 C.3   231  TYR231      0.1605
     96  C         16.0260   25.9160   20.3550 C.2   231  TYR231      0.2264
     97  O         16.2010   25.1480   21.3070 O.2   231  TYR231     -0.2867
     98  CB        16.0690   23.9030   18.8040 C.3   231  TYR231      0.0534
     99  CG        15.4270   23.3810   17.5750 C.ar  231  TYR231     -0.0201
    100  CD1       14.0970   22.9590   17.5900 C.ar  231  TYR231     -0.0009
    101  CD2       16.1080   23.3910   16.3510 C.ar  231  TYR231     -0.0009
    102  CE1       13.4750   22.5450   16.4340 C.ar  231  TYR231      0.0417
    103  CE2       15.4840   22.9450   15.1740 C.ar  231  TYR231      0.0417
    104  CZ        14.1630   22.5380   15.2270 C.ar  231  TYR231      0.1957
    105  OH        13.5480   22.0840   14.0850 O.3   231  TYR231     -0.2866
@<TRIPOS>BOND
     1     9     8    1
     2    70    71    1
     3    75    76    1
     4    75    77    1
     5    75    74    1
     6    71    74    1
     7    71    72    1
     8     8     7    1
     9     1     2    1
    10     6     7    1
    11     6     5    1
    12    72    73    2
    13     2     5    1
    14     2     3    1
    15    92    91    1
    16    39    40    2
    17    39    38    1
    18     3     4    2
    19    38    41    1
    20    38    37    1
    21    93    91    1
    22    28    26   am
    23    91    90    1
    24    41    43    1
    25    41    42    1
    26    85    83    1
    27    90    87    1
    28    32    31    2
    29    25    26    1
    30    25    22    1
    31    37    31   am
    32    26    27    2
    33    24    23    2
    34    31    30    1
    35    83    82    1
    36    83    84    1
    37    23    22    1
    38    23    29   am
    39    82    79    1
    40    22    21    1
    41    87    86    1
    42    87    88    1
    43    68    67    1
    44    21    12   am
    45    30    29    1
    46    30    33    1
    47    86    80   am
    48    69    67    1
    49    89    88    2
    50    80    81    2
    51    80    79    1
    52    79    78    1
    53    67    64    1
    54    57    58    1
    55    57    54    1
    56    64    63    1
    57    64    65    1
    58    62    61    2
    59    12    11    1
    60    12    13    2
    61    10    11    1
    62    19    18    1
    63    11    14    1
    64    63    61   am
    65    33    34    1
    66    61    60    1
    67    52    51    1
    68    59    60    1
    69    59    55   am
    70    54    55    1
    71    54    53    1
    72    65    66    2
    73    55    56    2
    74    18    20    1
    75    18    17    2
    76    14    15    1
    77    34    36   am
    78    34    35    2
    79    15    16    1
    80    51    50    1
    81    50    49    1
    82    16    17    1
    83    49    48    1
    84    48    45    1
    85   105   104    1
    86   103   104   ar
    87   103   101   ar
    88   104   102   ar
    89    47    46    2
    90    45    46    1
    91    45    44    1
    92   101    99   ar
    93   102   100   ar
    94    99   100   ar
    95    99    98    1
    96    94    95    1
    97    98    95    1
    98    95    96    1
    99    96    97    2
