@<TRIPOS>MOLECULE
tmp/4pwaD01.pdb
 190 183 0 0 0
SMALL
GASTEIGER

@<TRIPOS>ATOM
      1  N         23.5320   52.3210   28.4970 N.3    11  ILE11      -0.1231
      2  CA        24.6400   51.7440   29.2330 C.3    11  ILE11       0.1692
      3  C         24.1450   50.5730   30.0400 C.2    11  ILE11       0.2592
      4  O         24.7650   49.5100   30.0270 O.2    11  ILE11      -0.2718
      5  CB        25.3100   52.7750   30.1460 C.3    11  ILE11       0.0266
      6  CG1       26.0490   53.8040   29.2770 C.3    11  ILE11       0.0019
      7  CG2       26.2720   52.0820   31.1020 C.3    11  ILE11       0.0020
      8  CD1       26.2150   55.1240   29.9350 C.3    11  ILE11       0.0001
      9  N         23.0070   50.7590   30.7020 N.am   12  PHE12      -0.1976
     10  CA        22.4220   49.7100   31.5300 C.3    12  PHE12       0.1639
     11  C         22.0810   48.4620   30.7180 C.2    12  PHE12       0.2290
     12  O         22.3180   47.3470   31.1690 O.2    12  PHE12      -0.2864
     13  CB        21.1710   50.2160   32.2420 C.3    12  PHE12       0.0560
     14  CG        20.7430   49.3440   33.3930 C.ar   12  PHE12      -0.0200
     15  CD1       19.8760   48.2880   33.1990 C.ar   12  PHE12      -0.0042
     16  CD2       21.2020   49.5930   34.6790 C.ar   12  PHE12      -0.0042
     17  CE1       19.4880   47.4820   34.2650 C.ar   12  PHE12      -0.0003
     18  CE2       20.8130   48.7970   35.7420 C.ar   12  PHE12      -0.0003
     19  CZ        19.9560   47.7370   35.5330 C.ar   12  PHE12      -0.0000
     20  N         27.6260   48.7670   29.0460 N.3    16  SER16      -0.1217
     21  CA        28.4090   48.3100   30.2010 C.3    16  SER16       0.1889
     22  C         28.9250   46.8960   29.9860 C.2    16  SER16       0.2288
     23  O         28.3450   46.1260   29.2280 O.2    16  SER16      -0.2866
     24  CB        27.5990   48.3760   31.4970 C.3    16  SER16       0.2089
     25  OG        26.3260   47.7980   31.3200 O.3    16  SER16      -0.2183
     26  N         30.4590   43.7460   32.4230 N.3    18  PRO18      -0.2102
     27  CA        29.2500   43.1140   31.8700 C.3    18  PRO18       0.1504
     28  C         28.0630   44.0600   31.9580 C.2    18  PRO18       0.2576
     29  O         28.1170   45.0440   32.7010 O.2    18  PRO18      -0.2718
     30  CB        29.0330   41.8970   32.7790 C.3    18  PRO18       0.0282
     31  CG        30.3480   41.6970   33.4880 C.3    18  PRO18       0.0208
     32  CD        30.9040   43.0650   33.6500 C.3    18  PRO18       0.0893
     33  N         27.0070   43.7840   31.2020 N.am   19  GLN19      -0.1966
     34  CA        25.8230   44.6490   31.2320 C.3    19  GLN19       0.1733
     35  C         25.1900   44.6000   32.6050 C.2    19  GLN19       0.2616
     36  O         25.0900   43.5310   33.1880 O.2    19  GLN19      -0.2715
     37  CB        24.8090   44.2110   30.1760 C.3    19  GLN19       0.0408
     38  CG        25.3390   44.3830   28.7690 C.3    19  GLN19       0.0908
     39  CD        24.9750   43.2440   27.8300 C.2    19  GLN19       0.2608
     40  OE1       24.4360   42.2150   28.2500 O.2    19  GLN19      -0.2717
     41  NE2       25.2730   43.4270   26.5410 N.am   19  GLN19      -0.0878
     42  N         24.7750   45.7500   33.1260 N.am   20  CYS20      -0.1968
     43  CA        24.1380   45.8290   34.4380 C.3    20  CYS20       0.1712
     44  C         22.9610   44.8700   34.4680 C.2    20  CYS20       0.2296
     45  O         22.7470   44.1650   35.4530 O.2    20  CYS20      -0.2864
     46  CB        23.6270   47.2400   34.7340 C.3    20  CYS20       0.0983
     47  SG        24.7300   48.6190   34.2870 S.3    20  CYS20      -0.0798
     48  N         23.1810   41.1490   35.7040 N.3    23  CYS23      -0.1221
     49  CA        23.2950   40.9050   37.1480 C.3    23  CYS23       0.1808
     50  C         22.1600   41.4940   37.9950 C.2    23  CYS23       0.2601
     51  O         21.9730   41.0640   39.1180 O.2    23  CYS23      -0.2717
     52  CB        24.6180   41.4440   37.6870 C.3    23  CYS23       0.0970
     53  SG        26.1360   40.6000   37.1200 S.3    23  CYS23      -0.0800
     54  N         21.4350   42.4850   37.4790 N.am   24  HIS24      -0.1975
     55  CA        20.4380   43.2260   38.2620 C.3    24  HIS24       0.1656
     56  C         19.0400   43.2060   37.6730 C.2    24  HIS24       0.2291
     57  O         18.8620   43.1130   36.4620 O.2    24  HIS24      -0.2864
     58  CB        20.8490   44.6770   38.4170 C.3    24  HIS24       0.0771
     59  CG        22.0010   44.8930   39.3410 C.ar   24  HIS24       0.0820
     60  ND1       21.8770   44.8230   40.7090 N.ar   24  HIS24      -0.2267
     61  CD2       23.2940   45.2080   39.0930 C.ar   24  HIS24       0.1154
     62  CE1       23.0440   45.0850   41.2650 C.ar   24  HIS24       0.1986
     63  NE2       23.9200   45.3220   40.3090 N.ar   24  HIS24      -0.2212
     64  N         21.9700   38.1620   40.1570 N.3    35  VAL35      -0.1231
     65  CA        23.2790   38.1060   40.8120 C.3    35  VAL35       0.1692
     66  C         23.4060   39.1350   41.9370 C.2    35  VAL35       0.2593
     67  O         23.8670   38.8100   43.0230 O.2    35  VAL35      -0.2718
     68  CB        24.4230   38.3560   39.8110 C.3    35  VAL35       0.0266
     69  CG1       25.7570   38.4520   40.5460 C.3    35  VAL35       0.0020
     70  CG2       24.4540   37.2540   38.7760 C.3    35  VAL35       0.0020
     71  N         23.0100   40.3720   41.6500 N.am   36  GLY36      -0.1943
     72  CA        23.0580   41.4540   42.6240 C.3    36  GLY36       0.1998
     73  C         21.6730   41.8590   43.0990 C.2    36  GLY36       0.2480
     74  O         20.6760   41.2680   42.6930 O.2    36  GLY36      -0.2729
     75  N         21.6020   42.8830   43.9610 N.am   37  PRO37      -0.2726
     76  CA        20.3230   43.2980   44.5180 C.3    37  PRO37       0.1402
     77  C         19.3380   43.8010   43.4730 C.2    37  PRO37       0.2269
     78  O         19.7410   44.3930   42.4580 O.2    37  PRO37      -0.2865
     79  CB        20.7010   44.4310   45.4750 C.3    37  PRO37       0.0296
     80  CG        22.0820   44.8330   45.0880 C.3    37  PRO37       0.0237
     81  CD        22.7260   43.5950   44.5830 C.3    37  PRO37       0.0939
     82  N         17.2700   46.3470   41.9620 N.3    39  LEU39      -0.1245
     83  CA        17.3410   47.8060   41.9940 C.3    39  LEU39       0.1561
     84  C         15.9710   48.4800   42.1690 C.2    39  LEU39       0.2260
     85  O         15.9040   49.5880   42.6820 O.2    39  LEU39      -0.2867
     86  CB        18.0660   48.3410   40.7520 C.3    39  LEU39       0.0270
     87  CG        19.5100   47.8280   40.5970 C.3    39  LEU39       0.0019
     88  CD1       20.1860   48.4440   39.3860 C.3    39  LEU39       0.0001
     89  CD2       20.3440   48.0730   41.8510 C.3    39  LEU39       0.0001
     90  N         16.0500   48.3810   46.0650 N.3    42  LEU42      -0.1245
     91  CA        17.0690   49.2460   46.6520 C.3    42  LEU42       0.1561
     92  C         16.7320   50.7350   46.4420 C.2    42  LEU42       0.2260
     93  O         16.7830   51.5330   47.3740 O.2    42  LEU42      -0.2867
     94  CB        18.4240   48.9090   46.0240 C.3    42  LEU42       0.0270
     95  CG        19.7170   49.1880   46.7850 C.3    42  LEU42       0.0019
     96  CD1       19.6970   48.5400   48.1700 C.3    42  LEU42       0.0001
     97  CD2       20.9210   48.7000   45.9540 C.3    42  LEU42       0.0001
     98  N         18.3530   53.2150   44.8910 N.3    44  PRO44      -0.2116
     99  CA        19.4750   54.0340   45.3110 C.3    44  PRO44       0.1372
    100  C         19.4430   55.4140   44.6680 C.2    44  PRO44       0.2244
    101  O         18.8480   55.5760   43.6050 O.2    44  PRO44      -0.2868
    102  CB        20.6780   53.2480   44.7850 C.3    44  PRO44       0.0268
    103  CG        20.1690   52.5960   43.5540 C.3    44  PRO44       0.0207
    104  CD        18.7360   52.2550   43.8390 C.3    44  PRO44       0.0892
    105  N         25.0420   56.9670   45.0430 N.3    48  ARG48      -0.1231
    106  CA        25.2850   55.5930   45.4580 C.3    48  ARG48       0.1694
    107  C         25.6010   54.7120   44.2400 C.2    48  ARG48       0.2591
    108  O         26.5580   53.9270   44.2610 O.2    48  ARG48      -0.2718
    109  CB        24.0910   55.0410   46.2570 C.3    48  ARG48       0.0321
    110  CG        24.3720   53.7280   46.9570 C.3    48  ARG48       0.0489
    111  CD        23.1460   53.1890   47.7190 C.3    48  ARG48       0.2205
    112  NE        23.3840   51.8410   48.2380 N.pl3  48  ARG48      -0.0865
    113  CZ        22.5580   51.1690   49.0390 C.cat  48  ARG48       0.5346
    114  NH1       21.4080   51.6950   49.4420 N.pl3  48  ARG48       0.1354
    115  NH2       22.8950   49.9560   49.4490 N.pl3  48  ARG48       0.1354
    116  N         24.8250   54.8610   43.1730 N.am   49  VAL49      -0.1980
    117  CA        25.1200   54.1310   41.9500 C.3    49  VAL49       0.1595
    118  C         26.4930   54.5250   41.3990 C.2    49  VAL49       0.2287
    119  O         27.2840   53.6730   41.0390 O.2    49  VAL49      -0.2864
    120  CB        24.0650   54.3570   40.8610 C.3    49  VAL49       0.0276
    121  CG1       24.4050   53.5230   39.6590 C.3    49  VAL49       0.0022
    122  CG2       22.6650   54.0240   41.3780 C.3    49  VAL49       0.0022
    123  N         29.2500   52.8230   43.3490 N.3    52  ALA52      -0.1231
    124  CA        29.2780   51.3770   43.1090 C.3    52  ALA52       0.1694
    125  C         29.9310   51.0520   41.7640 C.2    52  ALA52       0.2591
    126  O         30.8650   50.2690   41.7000 O.2    52  ALA52      -0.2718
    127  CB        27.8550   50.7860   43.1720 C.3    52  ALA52       0.0304
    128  N         29.4440   51.6770   40.7020 N.am   53  VAL53      -0.1980
    129  CA        29.9780   51.4530   39.3670 C.3    53  VAL53       0.1595
    130  C         31.4620   51.8660   39.2290 C.2    53  VAL53       0.2287
    131  O         32.2290   51.1770   38.5650 O.2    53  VAL53      -0.2864
    132  CB        29.1170   52.1680   38.3070 C.3    53  VAL53       0.0276
    133  CG1       29.7550   52.0390   36.9260 C.3    53  VAL53       0.0022
    134  CG2       27.6640   51.5930   38.3120 C.3    53  VAL53       0.0022
    135  N         32.0730   46.9500   44.4300 N.3    57  ILE57      -0.1231
    136  CA        31.5930   46.7360   45.7990 C.3    57  ILE57       0.1692
    137  C         31.3260   45.2420   45.9520 C.2    57  ILE57       0.2593
    138  O         30.5760   44.6520   45.1700 O.2    57  ILE57      -0.2718
    139  CB        30.3000   47.5940   46.1010 C.3    57  ILE57       0.0266
    140  CG1       29.7230   47.2930   47.4860 C.3    57  ILE57       0.0019
    141  CG2       29.2530   47.3660   45.0660 C.3    57  ILE57       0.0020
    142  CD1       28.6750   48.3050   47.9320 C.3    57  ILE57       0.0001
    143  N         31.9450   44.6240   46.9530 N.am   58  GLY58      -0.1943
    144  CA        31.8150   43.1920   47.1160 C.3    58  GLY58       0.1998
    145  C         32.1980   42.4980   45.8160 C.2    58  GLY58       0.2481
    146  O         33.1650   42.8910   45.1500 O.2    58  GLY58      -0.2729
    147  N         31.4230   41.4800   45.4280 N.am   59  PRO59      -0.2715
    148  CA        31.7350   40.7440   44.2190 C.3    59  PRO59       0.1536
    149  C         31.4540   41.5130   42.9320 C.2    59  PRO59       0.2598
    150  O         31.9480   41.0970   41.8920 O.2    59  PRO59      -0.2715
    151  CB        30.8470   39.5140   44.3120 C.3    59  PRO59       0.0310
    152  CG        29.7240   39.9030   45.1610 C.3    59  PRO59       0.0237
    153  CD        30.1350   41.0730   46.0040 C.3    59  PRO59       0.0939
    154  N         30.6850   42.6050   42.9950 N.am   60  MET60      -0.1964
    155  CA        30.4970   43.4980   41.8300 C.3    60  MET60       0.1721
    156  C         31.8350   44.1120   41.4280 C.2    60  MET60       0.2458
    157  O         32.5010   44.7540   42.2320 O.2    60  MET60      -0.2730
    158  CB        29.4940   44.6270   42.1200 C.3    60  MET60       0.0427
    159  CG        29.2150   45.5160   40.9120 C.3    60  MET60       0.0599
    160  SD        27.8930   46.7350   41.1000 S.3    60  MET60      -0.1393
    161  CE        28.4300   48.0160   39.9480 C.3    60  MET60       0.0692
    162  N         32.2380   43.9160   40.1780 N.am   61  PRO61      -0.2727
    163  CA        33.5410   44.4160   39.7810 C.3    61  PRO61       0.1402
    164  C         33.5180   45.9180   39.4950 C.2    61  PRO61       0.2269
    165  O         32.4860   46.4720   39.1720 O.2    61  PRO61      -0.2865
    166  CB        33.8330   43.6200   38.5080 C.3    61  PRO61       0.0296
    167  CG        32.4720   43.3890   37.9170 C.3    61  PRO61       0.0237
    168  CD        31.4900   43.3380   39.0490 C.3    61  PRO61       0.0939
    169  N         33.7370   52.4050   30.8970 N.3    66  LEU66      -0.1245
    170  CA        32.9280   53.6250   30.9280 C.3    66  LEU66       0.1561
    171  C         33.7410   54.8760   31.2920 C.2    66  LEU66       0.2260
    172  O         34.6420   54.8210   32.1270 O.2    66  LEU66      -0.2867
    173  CB        31.7630   53.4580   31.9090 C.3    66  LEU66       0.0270
    174  CG        30.4460   52.8450   31.4030 C.3    66  LEU66       0.0019
    175  CD1       30.5970   52.0610   30.1040 C.3    66  LEU66       0.0001
    176  CD2       29.8210   51.9860   32.4750 C.3    66  LEU66       0.0001
    177  N         24.3490   56.5880   33.7310 N.3    74  VAL74      -0.1245
    178  CA        23.6750   55.3800   34.2250 C.3    74  VAL74       0.1561
    179  C         23.2260   55.5590   35.6820 C.2    74  VAL74       0.2260
    180  O         22.1930   55.0290   36.0750 O.2    74  VAL74      -0.2867
    181  CB        24.5500   54.0950   34.0600 C.3    74  VAL74       0.0252
    182  CG1       25.7750   54.1070   35.0040 C.3    74  VAL74       0.0019
    183  CG2       23.7050   52.8260   34.2930 C.3    74  VAL74       0.0019
    184  N         19.3500   54.9910   36.6670 N.3    78  VAL78      -0.1245
    185  CA        18.8990   54.0520   37.6870 C.3    78  VAL78       0.1561
    186  C         18.1230   54.7380   38.8100 C.2    78  VAL78       0.2260
    187  O         17.0150   54.3070   39.1520 O.2    78  VAL78      -0.2867
    188  CB        20.0760   53.2670   38.2970 C.3    78  VAL78       0.0252
    189  CG1       19.6080   52.4530   39.5030 C.3    78  VAL78       0.0019
    190  CG2       20.7590   52.3880   37.2240 C.3    78  VAL78       0.0019
@<TRIPOS>BOND
     1    41    39   am
     2    39    40    2
     3    39    38    1
     4     1     2    1
     5    38    37    1
     6    20    21    1
     7    23    22    2
     8     2     3    1
     9     2     5    1
    10     6     8    1
    11     6     5    1
    12    22    21    1
    13     4     3    2
    14     3     9   am
    15   175   174    1
    16     5     7    1
    17    37    34    1
    18    21    24    1
    19     9    10    1
    20    11    12    2
    21    11    10    1
    22   169   170    1
    23   170   171    1
    24   170   173    1
    25    33    34    1
    26    33    28   am
    27    34    35    1
    28   171   172    2
    29    25    24    1
    30   174   173    1
    31   174   176    1
    32    10    13    1
    33    27    28    1
    34    27    26    1
    35    27    30    1
    36    28    29    2
    37    13    14    1
    38    26    32    1
    39    35    42   am
    40    35    36    2
    41    30    31    1
    42    42    43    1
    43    15    14   ar
    44    15    17   ar
    45    14    16   ar
    46    31    32    1
    47   177   178    1
    48   181   178    1
    49   181   183    1
    50   181   182    1
    51   178   179    1
    52    17    19   ar
    53    47    46    1
    54    43    44    1
    55    43    46    1
    56    44    45    2
    57    16    18   ar
    58    19    18   ar
    59   179   180    2
    60    48    49    1
    61    57    56    2
    62   184   185    1
    63   133   132    1
    64    53    52    1
    65    49    52    1
    66    49    50    1
    67   190   188    1
    68    54    50   am
    69    54    55    1
    70    56    55    1
    71   185   188    1
    72   185   186    1
    73   167   166    1
    74   167   168    1
    75    50    51    2
    76    55    58    1
    77   188   189    1
    78   132   134    1
    79   132   129    1
    80    58    59    1
    81   166   163    1
    82   131   130    2
    83    70    68    1
    84   186   187    2
    85   168   162    1
    86    61    59   ar
    87    61    63   ar
    88   165   164    2
    89   130   129    1
    90    59    60   ar
    91   129   128    1
    92    88    87    1
    93   164   163    1
    94   121   120    1
    95   163   162    1
    96    68    69    1
    97    68    65    1
    98   161   160    1
    99    64    65    1
   100   162   156   am
   101    63    62   ar
   102    87    86    1
   103    87    89    1
   104   128   125   am
   105    60    62   ar
   106    86    83    1
   107    65    66    1
   108   120   122    1
   109   120   117    1
   110   159   160    1
   111   159   158    1
   112   119   118    2
   113   118   117    1
   114   156   155    1
   115   156   157    2
   116    71    66   am
   117    71    72    1
   118   126   125    2
   119   125   124    1
   120   155   158    1
   121   155   154    1
   122   150   149    2
   123    66    67    2
   124   117   116    1
   125    82    83    1
   126    83    84    1
   127    84    85    2
   128    78    77    2
   129    72    73    1
   130    74    73    2
   131   149   154   am
   132   149   148    1
   133    73    75   am
   134   124   127    1
   135   124   123    1
   136   116   107   am
   137    77    76    1
   138   103   104    1
   139   103   102    1
   140   101   100    2
   141   104    98    1
   142    75    76    1
   143    75    81    1
   144   148   151    1
   145   148   147    1
   146   107   108    2
   147   107   106    1
   148   151   152    1
   149   135   136    1
   150    76    79    1
   151    81    80    1
   152   100    99    1
   153   102    99    1
   154    98    99    1
   155   105   106    1
   156   141   139    1
   157    80    79    1
   158   146   145    2
   159   152   153    1
   160   138   137    2
   161   147   145   am
   162   147   153    1
   163   106   109    1
   164   136   137    1
   165   136   139    1
   166   145   144    1
   167   137   143   am
   168    97    95    1
   169    94    91    1
   170    94    95    1
   171    90    91    1
   172   139   140    1
   173   109   110    1
   174    92    91    1
   175    92    93    2
   176    95    96    1
   177   143   144    1
   178   110   111    1
   179   140   142    1
   180   111   112    1
   181   112   113    2
   182   113   114    1
   183   113   115    1
