@<TRIPOS>MOLECULE
tmp/4pwfB00.pdb
 86 76 0 0 0
SMALL
GASTEIGER

@<TRIPOS>ATOM
      1  N        -19.3320   11.2040  -32.8320 N.3     4  MET4       -0.1245
      2  CA       -20.5560   10.4400  -32.9800 C.3     4  MET4        0.1570
      3  C        -21.0280   10.0070  -31.5910 C.2     4  MET4        0.2261
      4  O        -20.2040    9.7680  -30.6980 O.2     4  MET4       -0.2867
      5  CB       -20.2960    9.2160  -33.8690 C.3     4  MET4        0.0387
      6  CG       -21.5570    8.5080  -34.3510 C.3     4  MET4        0.0595
      7  SD       -22.0060    7.0490  -33.3800 S.3     4  MET4       -0.1393
      8  CE       -20.8060    5.8640  -33.9980 C.3     4  MET4        0.0692
      9  N        -23.6670    7.2640  -29.4500 N.3     6  LYS6       -0.1245
     10  CA       -24.4940    6.0710  -29.5150 C.3     6  LYS6        0.1561
     11  C        -25.1610    5.8750  -28.1630 C.2     6  LYS6        0.2260
     12  O        -24.4850    5.9430  -27.1350 O.2     6  LYS6       -0.2867
     13  CB       -23.6150    4.8650  -29.8510 C.3     6  LYS6        0.0271
     14  CG       -24.3580    3.5640  -30.0690 C.3     6  LYS6        0.0035
     15  CD       -23.4970    2.6270  -30.9250 C.3     6  LYS6        0.0206
     16  CE       -24.1460    1.2660  -31.1170 C.3     6  LYS6        0.1093
     17  NZ       -25.6240    1.3270  -31.2940 N.3     6  LYS6       -0.1314
     18  N        -27.8610    3.4300  -25.8100 N.3     8  LEU8       -0.1245
     19  CA       -28.5380    2.1450  -25.6690 C.3     8  LEU8        0.1561
     20  C        -29.4570    2.1710  -24.4560 C.2     8  LEU8        0.2260
     21  O        -29.1790    2.8650  -23.4790 O.2     8  LEU8       -0.2867
     22  CB       -27.5170    1.0040  -25.4950 C.3     8  LEU8        0.0270
     23  CG       -26.5220    0.8300  -26.6440 C.3     8  LEU8        0.0019
     24  CD1      -25.5830   -0.3280  -26.3380 C.3     8  LEU8        0.0001
     25  CD2      -27.2810    0.5980  -27.9370 C.3     8  LEU8        0.0001
     26  N        -28.0750    6.0460  -32.8940 N.3    45  GLU45      -0.1245
     27  CA       -26.8570    6.8060  -33.1680 C.3    45  GLU45       0.1567
     28  C        -27.1520    8.2220  -33.6320 C.2    45  GLU45       0.2260
     29  O        -28.1740    8.4780  -34.2640 O.2    45  GLU45      -0.2867
     30  CB       -25.9870    6.0910  -34.2140 C.3    45  GLU45       0.0388
     31  CG       -25.4630    4.7260  -33.7660 C.3    45  GLU45       0.1160
     32  CD       -24.6630    4.0190  -34.8510 C.2    45  GLU45       0.3649
     33  OE1      -24.4690    4.6080  -35.9340 O.co2  45  GLU45      -0.2457
     34  OE2      -24.2300    2.8720  -34.6220 O.co2  45  GLU45      -0.2457
     35  N        -16.1380    8.4240  -30.4320 N.3    97  THR97      -0.1218
     36  CA       -17.4650    7.8490  -30.2870 C.3    97  THR97       0.1862
     37  C        -17.7920    7.8460  -28.8020 C.2    97  THR97       0.2287
     38  O        -17.0610    7.2680  -27.9900 O.2    97  THR97      -0.2866
     39  CB       -17.5680    6.4270  -30.8480 C.3    97  THR97       0.1770
     40  OG1      -17.4370    6.4720  -32.2740 O.3    97  THR97      -0.2211
     41  CG2      -18.9220    5.8310  -30.5090 C.3    97  THR97       0.0375
     42  N        -20.3980    6.5750  -26.0930 N.3    99  ALA99      -0.1231
     43  CA       -21.5090    5.6420  -25.9510 C.3    99  ALA99       0.1694
     44  C        -22.1270    5.8400  -24.5840 C.2    99  ALA99       0.2592
     45  O        -21.4250    6.0820  -23.6110 O.2    99  ALA99      -0.2718
     46  CB       -21.0600    4.2050  -26.1380 C.3    99  ALA99       0.0304
     47  N        -23.4450    5.7470  -24.5130 N.am  100  ALA100     -0.1966
     48  CA       -24.1180    5.8750  -23.2370 C.3   100  ALA100      0.1728
     49  C        -25.1170    4.7470  -23.1200 C.2   100  ALA100      0.2616
     50  O        -25.8640    4.4720  -24.0600 O.2   100  ALA100     -0.2715
     51  CB       -24.8080    7.2160  -23.1320 C.3   100  ALA100      0.0334
     52  N        -25.1250    4.1040  -21.9570 N.am  101  LEU101     -0.1977
     53  CA       -26.0220    2.9920  -21.6890 C.3   101  LEU101      0.1596
     54  C        -26.9390    3.4670  -20.5820 C.2   101  LEU101      0.2287
     55  O        -26.4690    3.8390  -19.5030 O.2   101  LEU101     -0.2864
     56  CB       -25.2200    1.7850  -21.2090 C.3   101  LEU101      0.0297
     57  CG       -26.0660    0.5820  -20.7830 C.3   101  LEU101      0.0022
     58  CD1      -26.9050    0.0680  -21.9330 C.3   101  LEU101      0.0001
     59  CD2      -25.1640   -0.5100  -20.2090 C.3   101  LEU101      0.0001
     60  N        -24.1380    4.7250  -17.7810 N.3   108  SER108     -0.1217
     61  CA       -22.7150    4.5540  -18.0140 C.3   108  SER108      0.1889
     62  C        -22.3690    5.2880  -19.2970 C.2   108  SER108      0.2288
     63  O        -23.1820    5.3150  -20.2240 O.2   108  SER108     -0.2866
     64  CB       -22.3690    3.0710  -18.1810 C.3   108  SER108      0.2089
     65  OG       -22.8080    2.3000  -17.0730 O.3   108  SER108     -0.2183
     66  N        -18.9240    5.8460  -22.0770 N.3   110  THR110     -0.1218
     67  CA       -17.5820    5.4280  -22.4140 C.3   110  THR110      0.1862
     68  C        -17.2020    6.1350  -23.6860 C.2   110  THR110      0.2287
     69  O        -18.0630    6.4440  -24.5060 O.2   110  THR110     -0.2866
     70  CB       -17.5430    3.9240  -22.6560 C.3   110  THR110      0.1770
     71  OG1      -18.1360    3.2710  -21.5280 O.3   110  THR110     -0.2211
     72  CG2      -16.1020    3.4400  -22.8260 C.3   110  THR110      0.0375
     73  N        -14.8240    5.9450  -27.0980 N.3   112  VAL112     -0.1245
     74  CA       -13.9270    5.1740  -27.9440 C.3   112  VAL112      0.1561
     75  C        -13.2220    6.1690  -28.8400 C.2   112  VAL112      0.2260
     76  O        -13.8680    6.8650  -29.6320 O.2   112  VAL112     -0.2867
     77  CB       -14.6910    4.1780  -28.8050 C.3   112  VAL112      0.0252
     78  CG1      -13.7120    3.3060  -29.5690 C.3   112  VAL112      0.0019
     79  CG2      -15.5940    3.3200  -27.9390 C.3   112  VAL112      0.0019
     80  N        -10.3510    6.7280  -31.6380 N.3   114  THR114     -0.1218
     81  CA        -9.6000    5.9630  -32.6340 C.3   114  THR114      0.1862
     82  C         -9.0710    6.8400  -33.7580 C.2   114  THR114      0.2287
     83  O         -9.1580    8.0580  -33.6820 O.2   114  THR114     -0.2866
     84  CB       -10.4620    4.8630  -33.2670 C.3   114  THR114      0.1770
     85  OG1      -11.5990    5.4600  -33.8980 O.3   114  THR114     -0.2211
     86  CG2      -10.9330    3.8580  -32.2110 C.3   114  THR114      0.0375
@<TRIPOS>BOND
     1    33    32   ar
     2    32    34   ar
     3    32    31    1
     4     6     5    1
     5     6     7    1
     6    29    28    2
     7    30    31    1
     8    30    27    1
     9     8     7    1
    10    85    84    1
    11     5     2    1
    12    82    83    2
    13    82    81    1
    14    28    27    1
    15    84    81    1
    16    84    86    1
    17    27    26    1
    18     2     1    1
    19     2     3    1
    20    81    80    1
    21    40    39    1
    22     3     4    2
    23    17    16    1
    24    16    15    1
    25    15    14    1
    26    39    41    1
    27    39    36    1
    28    35    36    1
    29    36    37    1
    30    14    13    1
    31    13    10    1
    32    76    75    2
    33    78    77    1
    34    10     9    1
    35    10    11    1
    36    75    74    1
    37    77    74    1
    38    77    79    1
    39    37    38    2
    40    11    12    2
    41    74    73    1
    42    25    23    1
    43    23    24    1
    44    23    22    1
    45    46    43    1
    46    42    43    1
    47    43    44    1
    48    18    19    1
    49    19    22    1
    50    19    20    1
    51    44    47   am
    52    44    45    2
    53    47    48    1
    54    69    68    2
    55    20    21    2
    56    50    49    2
    57    68    67    1
    58    48    51    1
    59    48    49    1
    60    49    52   am
    61    72    70    1
    62    70    67    1
    63    70    71    1
    64    67    66    1
    65    52    53    1
    66    58    57    1
    67    53    56    1
    68    53    54    1
    69    56    57    1
    70    57    59    1
    71    54    55    2
    72    63    62    2
    73    62    61    1
    74    64    61    1
    75    64    65    1
    76    61    60    1
