@<TRIPOS>MOLECULE
tmp/4pwgA00.pdb
 77 70 0 0 0
SMALL
GASTEIGER

@<TRIPOS>ATOM
      1  N        -25.1280   10.8170    0.6760 N.3     4  MET4       -0.1245
      2  CA       -23.8070   10.2200    0.7810 C.3     4  MET4        0.1570
      3  C        -23.3460    9.8630   -0.6300 C.2     4  MET4        0.2261
      4  O        -24.1540    9.4760   -1.4680 O.2     4  MET4       -0.2867
      5  CB       -23.8460    8.9720    1.6750 C.3     4  MET4        0.0387
      6  CG       -22.4680    8.4170    2.0070 C.3     4  MET4        0.0595
      7  SD       -21.9200    7.1260    0.8640 S.3     4  MET4       -0.1393
      8  CE       -22.9280    5.7540    1.4410 C.3     4  MET4        0.0692
      9  N        -20.3770    7.6200   -2.8270 N.3     6  LYS6       -0.1245
     10  CA       -19.4030    6.5430   -2.7260 C.3     6  LYS6        0.1561
     11  C        -18.7300    6.3960   -4.0740 C.2     6  LYS6        0.2260
     12  O        -19.4130    6.3030   -5.0850 O.2     6  LYS6       -0.2867
     13  CB       -20.1100    5.2450   -2.3540 C.3     6  LYS6        0.0271
     14  CG       -19.1750    4.0760   -2.1250 C.3     6  LYS6        0.0035
     15  CD       -19.9050    2.9430   -1.3940 C.3     6  LYS6        0.0206
     16  CE       -19.0370    1.7090   -1.2990 C.3     6  LYS6        0.1093
     17  NZ       -17.6880    2.0440   -0.7960 N.3     6  LYS6       -0.1314
     18  N        -15.7550    4.3750   -6.4150 N.3     8  LEU8       -0.1245
     19  CA       -14.8960    3.2050   -6.5760 C.3     8  LEU8        0.1561
     20  C        -13.9850    3.3180   -7.8050 C.2     8  LEU8        0.2260
     21  O        -14.3440    3.9290   -8.8070 O.2     8  LEU8       -0.2867
     22  CB       -15.7480    1.9310   -6.6860 C.3     8  LEU8        0.0270
     23  CG       -16.6750    1.6950   -5.4770 C.3     8  LEU8        0.0019
     24  CD1      -17.6080    0.5450   -5.7210 C.3     8  LEU8        0.0001
     25  CD2      -15.8520    1.4470   -4.2040 C.3     8  LEU8        0.0001
     26  N        -28.1020    7.7450   -1.8070 N.3    97  THR97      -0.1218
     27  CA       -26.7350    7.3010   -1.9470 C.3    97  THR97       0.1862
     28  C        -26.3790    7.3310   -3.4210 C.2    97  THR97       0.2287
     29  O        -27.0150    6.6520   -4.2210 O.2    97  THR97      -0.2866
     30  CB       -26.5670    5.8710   -1.4400 C.3    97  THR97       0.1770
     31  OG1      -26.9330    5.8100   -0.0580 O.3    97  THR97      -0.2211
     32  CG2      -25.1050    5.4360   -1.5990 C.3    97  THR97       0.0375
     33  N        -23.5640    6.3980   -6.0590 N.3    99  ALA99      -0.1231
     34  CA       -22.3720    5.5900   -6.2340 C.3    99  ALA99       0.1694
     35  C        -21.7940    5.8850   -7.6150 C.2    99  ALA99       0.2592
     36  O        -22.5460    6.0420   -8.5740 O.2    99  ALA99      -0.2718
     37  CB       -22.7120    4.1090   -6.1000 C.3    99  ALA99       0.0304
     38  N        -20.4690    5.9800   -7.6990 N.am  100  ALA100     -0.1966
     39  CA       -19.7850    6.2140   -8.9610 C.3   100  ALA100      0.1728
     40  C        -18.6300    5.2260   -9.1270 C.2   100  ALA100      0.2616
     41  O        -17.7950    5.0870   -8.2340 O.2   100  ALA100     -0.2715
     42  CB       -19.2730    7.6460   -9.0140 C.3   100  ALA100      0.0334
     43  N        -18.5900    4.5350  -10.2660 N.am  101  LEU101     -0.1977
     44  CA       -17.5200    3.5920  -10.5790 C.3   101  LEU101      0.1596
     45  C        -16.6680    4.1690  -11.7070 C.2   101  LEU101      0.2287
     46  O        -17.1840    4.4480  -12.7950 O.2   101  LEU101     -0.2864
     47  CB       -18.1250    2.2560  -11.0310 C.3   101  LEU101      0.0297
     48  CG       -17.1250    1.1830  -11.4460 C.3   101  LEU101      0.0022
     49  CD1      -16.2810    0.7840  -10.2390 C.3   101  LEU101      0.0001
     50  CD2      -17.8460   -0.0220  -12.0430 C.3   101  LEU101      0.0001
     51  N        -19.6700    4.9600  -14.4780 N.3   108  SER108     -0.1202
     52  CA       -21.0750    4.6910  -14.3460 C.3   108  SER108      0.2020
     53  C        -21.5050    5.2970  -13.0330 C.2   108  SER108      0.2619
     54  O        -20.6920    5.5060  -12.1340 O.2   108  SER108     -0.2717
     55  CB       -21.3520    3.1850  -14.4080 C.3   108  SER108      0.2103
     56  OG       -20.8490    2.5130  -13.2720 O.3   108  SER108     -0.2182
     57  N        -22.7780    5.6170  -12.9300 N.am  109  THR109     -0.1938
     58  CA       -23.2720    6.1690  -11.6890 C.3   109  THR109      0.2028
     59  C        -24.6700    5.6430  -11.4660 C.2   109  THR109      0.2642
     60  O        -25.4600    5.5210  -12.4040 O.2   109  THR109     -0.2714
     61  CB       -23.2620    7.7080  -11.7140 C.3   109  THR109      0.1808
     62  OG1      -23.7390    8.2040  -10.4630 O.3   109  THR109     -0.2208
     63  CG2      -24.1320    8.2460  -12.8480 C.3   109  THR109      0.0379
     64  N        -24.9690    5.3210  -10.2160 N.am  110  THR110     -0.1950
     65  CA       -26.2640    4.7900   -9.8350 C.3   110  THR110      0.1897
     66  C        -26.7260    5.4770   -8.5640 C.2   110  THR110      0.2313
     67  O        -25.9010    5.9550   -7.7910 O.2   110  THR110     -0.2863
     68  CB       -26.1510    3.2980   -9.5290 C.3   110  THR110      0.1794
     69  OG1      -25.1820    2.7110  -10.3980 O.3   110  THR110     -0.2208
     70  CG2      -27.4790    2.6260   -9.7240 C.3   110  THR110      0.0378
     71  N        -29.1690    5.0210   -5.0230 N.3   112  VAL112     -0.1245
     72  CA       -30.0230    4.2250   -4.1490 C.3   112  VAL112      0.1561
     73  C        -30.8160    5.2340   -3.3390 C.2   112  VAL112      0.2260
     74  O        -30.2450    6.0770   -2.6430 O.2   112  VAL112     -0.2867
     75  CB       -29.2070    3.3040   -3.2110 C.3   112  VAL112      0.0252
     76  CG1      -30.1230    2.5030   -2.2670 C.3   112  VAL112      0.0019
     77  CG2      -28.3390    2.3640   -4.0290 C.3   112  VAL112      0.0019
@<TRIPOS>BOND
     1    51    52    1
     2    55    52    1
     3    55    56    1
     4    52    53    1
     5    53    57   am
     6    53    54    2
     7    57    58    1
     8    63    61    1
     9    46    45    2
    10    60    59    2
    11    50    48    1
    12    61    58    1
    13    61    62    1
    14    45    44    1
    15    58    59    1
    16    59    64   am
    17    48    47    1
    18    48    49    1
    19    47    44    1
    20    44    43    1
    21    69    68    1
    22    43    40   am
    23    64    65    1
    24    65    68    1
    25    65    66    1
    26    70    68    1
    27    40    39    1
    28    40    41    2
    29    42    39    1
    30    39    38    1
    31    21    20    2
    32    36    35    2
    33    66    67    2
    34    20    19    1
    35    38    35   am
    36    35    34    1
    37    22    19    1
    38    22    23    1
    39    19    18    1
    40    34    37    1
    41    34    33    1
    42    24    23    1
    43    23    25    1
    44    12    11    2
    45    71    72    1
    46    29    28    2
    47    72    73    1
    48    72    75    1
    49    11    10    1
    50    77    75    1
    51    28    27    1
    52    73    74    2
    53    75    76    1
    54     9    10    1
    55    10    13    1
    56    13    14    1
    57    14    15    1
    58    27    26    1
    59    27    30    1
    60    32    30    1
    61     4     3    2
    62    30    31    1
    63    15    16    1
    64    16    17    1
    65     3     2    1
    66     1     2    1
    67     2     5    1
    68     7     8    1
    69     7     6    1
    70     5     6    1
