@<TRIPOS>MOLECULE
tmp/4pwhB00.pdb
 86 78 0 0 0
SMALL
GASTEIGER

@<TRIPOS>ATOM
      1  N        -19.4290   11.1530  -32.6670 N.3     4  MET4       -0.1245
      2  CA       -20.6870   10.4190  -32.7950 C.3     4  MET4        0.1570
      3  C        -21.1630   10.0270  -31.3960 C.2     4  MET4        0.2261
      4  O        -20.3430    9.7250  -30.5240 O.2     4  MET4       -0.2867
      5  CB       -20.5000    9.1580  -33.6520 C.3     4  MET4        0.0387
      6  CG       -21.8200    8.4780  -34.0480 C.3     4  MET4        0.0595
      7  SD       -22.3230    7.1320  -32.9300 S.3     4  MET4       -0.1393
      8  CE       -21.2800    5.8030  -33.5570 C.3     4  MET4        0.0692
      9  N        -23.8330    7.3820  -29.2840 N.3     6  LYS6       -0.1245
     10  CA       -24.7120    6.2270  -29.3660 C.3     6  LYS6        0.1561
     11  C        -25.3460    5.9840  -28.0000 C.2     6  LYS6        0.2260
     12  O        -24.6550    6.0160  -26.9830 O.2     6  LYS6       -0.2867
     13  CB       -23.9260    4.9970  -29.8060 C.3     6  LYS6        0.0271
     14  CG       -24.7680    3.7450  -29.8380 C.3     6  LYS6        0.0035
     15  CD       -24.0340    2.6020  -30.5110 C.3     6  LYS6        0.0206
     16  CE       -24.9960    1.4510  -30.7450 C.3     6  LYS6        0.1093
     17  NZ       -26.0490    1.7690  -31.7520 N.3     6  LYS6       -0.1314
     18  N        -28.0470    3.5640  -25.6470 N.3     8  LEU8       -0.1245
     19  CA       -28.7070    2.2650  -25.5370 C.3     8  LEU8        0.1561
     20  C        -29.6070    2.2250  -24.3070 C.2     8  LEU8        0.2260
     21  O        -29.3420    2.9030  -23.3100 O.2     8  LEU8       -0.2867
     22  CB       -27.6720    1.1370  -25.4350 C.3     8  LEU8        0.0270
     23  CG       -26.6940    1.0180  -26.6010 C.3     8  LEU8        0.0019
     24  CD1      -25.6910   -0.0930  -26.3350 C.3     8  LEU8        0.0001
     25  CD2      -27.4630    0.7620  -27.8820 C.3     8  LEU8        0.0001
     26  N        -28.2390    6.2340  -32.7190 N.3    45  GLU45      -0.1245
     27  CA       -27.0070    6.9580  -33.0070 C.3    45  GLU45       0.1567
     28  C        -27.2960    8.3730  -33.4610 C.2    45  GLU45       0.2260
     29  O        -28.3150    8.6340  -34.0850 O.2    45  GLU45      -0.2867
     30  CB       -26.1810    6.2230  -34.0650 C.3    45  GLU45       0.0388
     31  CG       -25.6370    4.8920  -33.5750 C.3    45  GLU45       0.1160
     32  CD       -24.8620    4.1420  -34.6390 C.2    45  GLU45       0.3649
     33  OE1      -24.7610    4.6430  -35.7790 O.co2  45  GLU45      -0.2457
     34  OE2      -24.3490    3.0480  -34.3300 O.co2  45  GLU45      -0.2457
     35  N        -16.2920    8.4540  -30.2720 N.3    95  THR95      -0.1218
     36  CA       -17.6120    7.8560  -30.1610 C.3    95  THR95       0.1862
     37  C        -17.9610    7.8290  -28.6800 C.2    95  THR95       0.2287
     38  O        -17.2390    7.2370  -27.8740 O.2    95  THR95      -0.2866
     39  CB       -17.6610    6.4340  -30.7280 C.3    95  THR95       0.1770
     40  OG1      -17.3610    6.4800  -32.1290 O.3    95  THR95      -0.2211
     41  CG2      -19.0500    5.8370  -30.5410 C.3    95  THR95       0.0375
     42  N        -20.5510    6.5480  -25.9700 N.3    97  ALA97      -0.1231
     43  CA       -21.6550    5.6170  -25.7950 C.3    97  ALA97       0.1694
     44  C        -22.2680    5.8150  -24.4150 C.2    97  ALA97       0.2592
     45  O        -21.5560    5.9850  -23.4340 O.2    97  ALA97      -0.2718
     46  CB       -21.2020    4.1690  -25.9790 C.3    97  ALA97       0.0304
     47  N        -23.5900    5.7980  -24.3490 N.am   98  ALA98      -0.1966
     48  CA       -24.2630    5.9530  -23.0740 C.3    98  ALA98       0.1728
     49  C        -25.2690    4.8330  -22.9330 C.2    98  ALA98       0.2616
     50  O        -26.0390    4.5610  -23.8530 O.2    98  ALA98      -0.2715
     51  CB       -24.9390    7.3120  -22.9830 C.3    98  ALA98       0.0334
     52  N        -25.2490    4.1710  -21.7820 N.am   99  LEU99      -0.1977
     53  CA       -26.1380    3.0570  -21.5340 C.3    99  LEU99       0.1596
     54  C        -27.0700    3.5130  -20.4300 C.2    99  LEU99       0.2287
     55  O        -26.6170    3.8460  -19.3280 O.2    99  LEU99      -0.2864
     56  CB       -25.3310    1.8460  -21.0650 C.3    99  LEU99       0.0297
     57  CG       -26.1390    0.6090  -20.6560 C.3    99  LEU99       0.0022
     58  CD1      -26.9580    0.0880  -21.8300 C.3    99  LEU99       0.0001
     59  CD2      -25.1970   -0.4620  -20.1430 C.3    99  LEU99       0.0001
     60  N        -24.2510    4.7430  -17.5980 N.3   106  SER106     -0.1202
     61  CA       -22.8290    4.5350  -17.8120 C.3   106  SER106      0.2020
     62  C        -22.4580    5.2430  -19.1020 C.2   106  SER106      0.2619
     63  O        -23.2480    5.2800  -20.0450 O.2   106  SER106     -0.2717
     64  CB       -22.5110    3.0430  -17.9500 C.3   106  SER106      0.2103
     65  OG       -22.8450    2.3270  -16.7760 O.3   106  SER106     -0.2182
     66  N        -21.2660    5.8040  -19.1600 N.am  107  THR107     -0.1938
     67  CA       -20.8450    6.3840  -20.4140 C.3   107  THR107      0.2028
     68  C        -19.4110    5.9990  -20.6560 C.2   107  THR107      0.2642
     69  O        -18.6250    5.8760  -19.7270 O.2   107  THR107     -0.2714
     70  CB       -21.0470    7.9000  -20.4840 C.3   107  THR107      0.1808
     71  OG1      -20.6490    8.3480  -21.7830 O.3   107  THR107     -0.2208
     72  CG2      -20.1980    8.6270  -19.4250 C.3   107  THR107      0.0379
     73  N        -19.0890    5.7430  -21.9100 N.am  108  THR108     -0.1950
     74  CA       -17.7520    5.3510  -22.2880 C.3   108  THR108      0.1897
     75  C        -17.3710    6.1250  -23.5400 C.2   108  THR108      0.2313
     76  O        -18.2420    6.5140  -24.3110 O.2   108  THR108     -0.2863
     77  CB       -17.7260    3.8520  -22.5790 C.3   108  THR108      0.1794
     78  OG1      -18.3860    3.1680  -21.5080 O.3   108  THR108     -0.2208
     79  CG2      -16.3020    3.3430  -22.7130 C.3   108  THR108      0.0378
     80  N        -14.9460    5.8530  -26.9540 N.3   110  VAL110     -0.1245
     81  CA       -14.0740    5.0580  -27.7940 C.3   110  VAL110      0.1561
     82  C        -13.3940    6.0600  -28.7060 C.2   110  VAL110      0.2260
     83  O        -14.0530    6.7480  -29.4880 O.2   110  VAL110     -0.2867
     84  CB       -14.8560    4.0230  -28.6150 C.3   110  VAL110      0.0252
     85  CG1      -13.9010    3.1810  -29.4690 C.3   110  VAL110      0.0019
     86  CG2      -15.6710    3.1140  -27.6950 C.3   110  VAL110      0.0019
@<TRIPOS>BOND
     1    33    32   ar
     2    32    34   ar
     3    32    31    1
     4    29    28    2
     5    30    31    1
     6    30    27    1
     7     6     5    1
     8     6     7    1
     9     5     2    1
    10     8     7    1
    11    28    27    1
    12    27    26    1
    13     2     1    1
    14     2     3    1
    15    40    39    1
    16    17    16    1
    17     3     4    2
    18    16    15    1
    19    39    41    1
    20    39    36    1
    21    15    14    1
    22    35    36    1
    23    36    37    1
    24    14    13    1
    25    13    10    1
    26    83    82    2
    27    85    84    1
    28    10     9    1
    29    10    11    1
    30    82    81    1
    31    37    38    2
    32    84    81    1
    33    84    86    1
    34    11    12    2
    35    25    23    1
    36    81    80    1
    37    23    24    1
    38    23    22    1
    39    46    43    1
    40    42    43    1
    41    43    44    1
    42    18    19    1
    43    19    22    1
    44    19    20    1
    45    44    47   am
    46    44    45    2
    47    47    48    1
    48    76    75    2
    49    20    21    2
    50    50    49    2
    51    75    74    1
    52    48    51    1
    53    48    49    1
    54    49    52   am
    55    79    77    1
    56    77    74    1
    57    77    78    1
    58    74    73    1
    59    73    68   am
    60    58    57    1
    61    71    70    1
    62    52    53    1
    63    53    56    1
    64    53    54    1
    65    56    57    1
    66    68    67    1
    67    68    69    2
    68    57    59    1
    69    70    67    1
    70    70    72    1
    71    54    55    2
    72    67    66    1
    73    63    62    2
    74    66    62   am
    75    62    61    1
    76    64    61    1
    77    64    65    1
    78    61    60    1
