@<TRIPOS>MOLECULE
tmp/4pwiA00.pdb
 72 66 0 0 0
SMALL
GASTEIGER

@<TRIPOS>ATOM
      1  N        -25.1340   10.9450    0.5780 N.3     4  MET4       -0.1245
      2  CA       -23.8110   10.3560    0.7110 C.3     4  MET4        0.1570
      3  C        -23.3400   10.0190   -0.6860 C.2     4  MET4        0.2261
      4  O        -24.1550    9.6490   -1.5430 O.2     4  MET4       -0.2867
      5  CB       -23.8690    9.1020    1.5820 C.3     4  MET4        0.0387
      6  CG       -22.4930    8.4990    1.9220 C.3     4  MET4        0.0595
      7  SD       -21.8720    7.3040    0.7180 S.3     4  MET4       -0.1393
      8  CE       -22.6490    5.8170    1.3370 C.3     4  MET4        0.0692
      9  N        -20.3480    7.7340   -2.7980 N.3     6  LYS6       -0.1245
     10  CA       -19.2900    6.7260   -2.7520 C.3     6  LYS6        0.1561
     11  C        -18.6530    6.5560   -4.1240 C.2     6  LYS6        0.2260
     12  O        -19.3520    6.4870   -5.1320 O.2     6  LYS6       -0.2867
     13  CB       -19.8510    5.3900   -2.2910 C.3     6  LYS6        0.0271
     14  CG       -18.7730    4.3260   -2.1510 C.3     6  LYS6        0.0035
     15  CD       -19.2450    3.2020   -1.2630 C.3     6  LYS6        0.0206
     16  CE       -18.1230    2.2130   -0.9900 C.3     6  LYS6        0.1093
     17  NZ       -18.5930    1.2720    0.0600 N.3     6  LYS6       -0.1314
     18  N        -15.7000    4.4220   -6.4360 N.3     8  LEU8       -0.1245
     19  CA       -14.9120    3.1990   -6.5470 C.3     8  LEU8        0.1561
     20  C        -14.0150    3.2520   -7.7730 C.2     8  LEU8        0.2260
     21  O        -14.3500    3.8560   -8.7910 O.2     8  LEU8       -0.2867
     22  CB       -15.8240    1.9620   -6.6240 C.3     8  LEU8        0.0270
     23  CG       -16.7020    1.6590   -5.4030 C.3     8  LEU8        0.0019
     24  CD1      -17.5250    0.4190   -5.6600 C.3     8  LEU8        0.0001
     25  CD2      -15.8210    1.4570   -4.1870 C.3     8  LEU8        0.0001
     26  N        -16.0010    6.8910    0.6490 N.3    45  GLU45      -0.1245
     27  CA       -17.2760    7.5190    0.9770 C.3    45  GLU45       0.1567
     28  C        -17.1010    8.9460    1.4640 C.2    45  GLU45       0.2260
     29  O        -16.1100    9.2820    2.1110 O.2    45  GLU45      -0.2867
     30  CB       -18.0360    6.6910    2.0170 C.3    45  GLU45       0.0388
     31  CG       -18.3640    5.2870    1.5000 C.3    45  GLU45       0.1160
     32  CD       -19.0770    4.4220    2.5060 C.2    45  GLU45       0.3649
     33  OE1      -19.3370    4.9070    3.6220 O.co2  45  GLU45      -0.2457
     34  OE2      -19.3840    3.2490    2.1810 O.co2  45  GLU45      -0.2457
     35  N        -23.5040    6.5200   -6.1160 N.3    99  ALA99      -0.1231
     36  CA       -22.2750    5.7500   -6.2850 C.3    99  ALA99       0.1694
     37  C        -21.7240    6.0110   -7.6750 C.2    99  ALA99       0.2592
     38  O        -22.5000    6.1110   -8.6280 O.2    99  ALA99      -0.2718
     39  CB       -22.5420    4.2630   -6.0910 C.3    99  ALA99       0.0304
     40  N        -20.4010    6.1170   -7.7980 N.am  100  ALA100     -0.1966
     41  CA       -19.7410    6.2490   -9.0920 C.3   100  ALA100      0.1728
     42  C        -18.6140    5.2250   -9.1730 C.2   100  ALA100      0.2616
     43  O        -17.8660    5.0390   -8.2110 O.2   100  ALA100     -0.2715
     44  CB       -19.2080    7.6600   -9.2840 C.3   100  ALA100      0.0334
     45  N        -18.5160    4.5410  -10.3070 N.am  101  LEU101     -0.1977
     46  CA       -17.4840    3.5340  -10.5420 C.3   101  LEU101      0.1596
     47  C        -16.6380    4.0600  -11.6860 C.2   101  LEU101      0.2287
     48  O        -17.1570    4.3260  -12.7740 O.2   101  LEU101     -0.2864
     49  CB       -18.1390    2.2160  -10.9340 C.3   101  LEU101      0.0297
     50  CG       -17.1120    1.1710  -11.3730 C.3   101  LEU101      0.0022
     51  CD1      -16.2450    0.7470  -10.1890 C.3   101  LEU101      0.0001
     52  CD2      -17.8440    0.0320  -11.9950 C.3   101  LEU101      0.0001
     53  N        -19.5520    4.8450  -14.4700 N.3   108  SER108     -0.1202
     54  CA       -20.9300    4.4620  -14.2750 C.3   108  SER108      0.2020
     55  C        -21.3710    5.1440  -12.9940 C.2   108  SER108      0.2619
     56  O        -20.5720    5.3250  -12.0610 O.2   108  SER108     -0.2717
     57  CB       -21.0180    2.9480  -14.0990 C.3   108  SER108      0.2103
     58  OG       -22.3170    2.5290  -13.7190 O.3   108  SER108     -0.2182
     59  N        -22.6300    5.5350  -12.9350 N.am  109  THR109     -0.1938
     60  CA       -23.1510    6.0950  -11.7070 C.3   109  THR109      0.2028
     61  C        -24.5410    5.5730  -11.4680 C.2   109  THR109      0.2642
     62  O        -25.3080    5.3700  -12.4010 O.2   109  THR109     -0.2714
     63  CB       -23.1520    7.6340  -11.7250 C.3   109  THR109      0.1808
     64  OG1      -23.5020    8.1180  -10.4260 O.3   109  THR109     -0.2208
     65  CG2      -24.1360    8.2090  -12.7650 C.3   109  THR109      0.0379
     66  N        -24.8580    5.3200  -10.2050 N.am  110  THR110     -0.1950
     67  CA       -26.1770    4.8330   -9.8200 C.3   110  THR110      0.1897
     68  C        -26.6480    5.5750   -8.5810 C.2   110  THR110      0.2313
     69  O        -25.8550    6.2240   -7.8940 O.2   110  THR110     -0.2863
     70  CB       -26.1650    3.3100   -9.5550 C.3   110  THR110      0.1794
     71  OG1      -25.9930    3.0390   -8.1590 O.3   110  THR110     -0.2208
     72  CG2      -25.0370    2.6980  -10.2930 C.3   110  THR110      0.0378
@<TRIPOS>BOND
     1    53    54    1
     2    54    57    1
     3    54    55    1
     4    57    58    1
     5    55    59   am
     6    55    56    2
     7    59    60    1
     8    48    47    2
     9    65    63    1
    10    62    61    2
    11    52    50    1
    12    63    60    1
    13    63    64    1
    14    60    61    1
    15    47    46    1
    16    61    66   am
    17    50    49    1
    18    50    51    1
    19    49    46    1
    20    46    45    1
    21    45    42   am
    22    72    70    1
    23    66    67    1
    24    67    70    1
    25    67    68    1
    26    70    71    1
    27    44    41    1
    28    42    41    1
    29    42    43    2
    30    41    40    1
    31    21    20    2
    32    38    37    2
    33    68    69    2
    34    40    37   am
    35    20    19    1
    36    37    36    1
    37    22    19    1
    38    22    23    1
    39    19    18    1
    40    36    35    1
    41    36    39    1
    42    24    23    1
    43    23    25    1
    44    12    11    2
    45    11    10    1
    46     9    10    1
    47    10    13    1
    48    13    14    1
    49    14    15    1
    50     4     3    2
    51    15    16    1
    52    16    17    1
    53     3     2    1
    54     1     2    1
    55    26    27    1
    56     2     5    1
    57     7     8    1
    58     7     6    1
    59    27    28    1
    60    27    30    1
    61    28    29    2
    62    31    30    1
    63    31    32    1
    64     5     6    1
    65    34    32   ar
    66    32    33   ar
