@<TRIPOS>MOLECULE
tmp/4pwjB00.pdb
 86 78 0 0 0
SMALL
GASTEIGER

@<TRIPOS>ATOM
      1  N        -19.6170   11.2230  -32.7070 N.3     4  MET4       -0.1245
      2  CA       -20.8500   10.4520  -32.8360 C.3     4  MET4        0.1570
      3  C        -21.3150   10.0870  -31.4320 C.2     4  MET4        0.2261
      4  O        -20.4780    9.8260  -30.5550 O.2     4  MET4       -0.2867
      5  CB       -20.6130    9.1600  -33.6500 C.3     4  MET4        0.0387
      6  CG       -21.9060    8.4480  -34.0540 C.3     4  MET4        0.0595
      7  SD       -22.4870    7.1590  -32.9100 S.3     4  MET4       -0.1393
      8  CE       -21.4640    5.7780  -33.4340 C.3     4  MET4        0.0692
      9  N        -23.9540    7.4630  -29.3010 N.3     6  LYS6       -0.1245
     10  CA       -24.8220    6.2860  -29.3960 C.3     6  LYS6        0.1561
     11  C        -25.4660    6.0200  -28.0570 C.2     6  LYS6        0.2260
     12  O        -24.7660    5.9960  -27.0470 O.2     6  LYS6       -0.2867
     13  CB       -24.0230    5.0590  -29.8400 C.3     6  LYS6        0.0271
     14  CG       -24.8790    3.8140  -29.9750 C.3     6  LYS6        0.0035
     15  CD       -24.2880    2.8030  -30.9480 C.3     6  LYS6        0.0206
     16  CE       -25.1650    1.5560  -31.0050 C.3     6  LYS6        0.1093
     17  NZ       -26.1940    1.6240  -32.0810 N.3     6  LYS6       -0.1314
     18  N        -28.1940    3.6260  -25.7230 N.3     8  LEU8       -0.1245
     19  CA       -28.8930    2.3490  -25.5930 C.3     8  LEU8        0.1561
     20  C        -29.7670    2.3270  -24.3450 C.2     8  LEU8        0.2260
     21  O        -29.4980    3.0350  -23.3830 O.2     8  LEU8       -0.2867
     22  CB       -27.9110    1.1700  -25.5260 C.3     8  LEU8        0.0270
     23  CG       -26.9810    1.0220  -26.7300 C.3     8  LEU8        0.0019
     24  CD1      -26.0440   -0.1280  -26.4670 C.3     8  LEU8        0.0001
     25  CD2      -27.8200    0.7390  -27.9740 C.3     8  LEU8        0.0001
     26  N        -28.3400    6.3460  -32.7680 N.3    45  GLU45      -0.1245
     27  CA       -27.1200    7.0800  -33.0680 C.3    45  GLU45       0.1567
     28  C        -27.3900    8.4910  -33.5130 C.2    45  GLU45       0.2260
     29  O        -28.4330    8.7900  -34.1210 O.2    45  GLU45      -0.2867
     30  CB       -26.2820    6.3510  -34.1350 C.3    45  GLU45       0.0388
     31  CG       -25.7400    5.0240  -33.6510 C.3    45  GLU45       0.1160
     32  CD       -25.1460    4.1790  -34.7640 C.2    45  GLU45       0.3649
     33  OE1      -24.7870    4.7350  -35.8250 O.co2  45  GLU45      -0.2457
     34  OE2      -25.0500    2.9510  -34.5830 O.co2  45  GLU45      -0.2457
     35  N        -16.4390    8.3620  -30.3460 N.3    97  THR97      -0.1218
     36  CA       -17.7820    7.8410  -30.1850 C.3    97  THR97       0.1862
     37  C        -18.0820    7.8890  -28.6990 C.2    97  THR97       0.2287
     38  O        -17.3500    7.2890  -27.8940 O.2    97  THR97      -0.2866
     39  CB       -17.9430    6.4060  -30.6930 C.3    97  THR97       0.1770
     40  OG1      -17.7830    6.3960  -32.1200 O.3    97  THR97      -0.2211
     41  CG2      -19.3340    5.8760  -30.3470 C.3    97  THR97       0.0375
     42  N        -20.6910    6.6620  -26.0310 N.3    99  ALA99      -0.1231
     43  CA       -21.8250    5.7640  -25.8360 C.3    99  ALA99       0.1694
     44  C        -22.4220    5.9700  -24.4550 C.2    99  ALA99       0.2592
     45  O        -21.6980    6.2150  -23.4940 O.2    99  ALA99      -0.2718
     46  CB       -21.4290    4.3160  -26.0440 C.3    99  ALA99       0.0304
     47  N        -23.7370    5.8880  -24.3720 N.am  100  ALA100     -0.1966
     48  CA       -24.4250    6.0150  -23.1070 C.3   100  ALA100      0.1728
     49  C        -25.4430    4.8780  -23.0210 C.2   100  ALA100      0.2616
     50  O        -26.2040    4.6240  -23.9750 O.2   100  ALA100     -0.2715
     51  CB       -25.0820    7.3840  -22.9710 C.3   100  ALA100      0.0334
     52  N        -25.4490    4.2040  -21.8710 N.am  101  LEU101     -0.1977
     53  CA       -26.3420    3.1060  -21.5870 C.3   101  LEU101      0.1596
     54  C        -27.2620    3.5700  -20.4610 C.2   101  LEU101      0.2287
     55  O        -26.7910    3.9310  -19.3600 O.2   101  LEU101     -0.2864
     56  CB       -25.5500    1.8570  -21.1780 C.3   101  LEU101      0.0297
     57  CG       -26.4040    0.6490  -20.7810 C.3   101  LEU101      0.0022
     58  CD1      -27.1720    0.1000  -21.9670 C.3   101  LEU101      0.0001
     59  CD2      -25.5620   -0.4590  -20.1610 C.3   101  LEU101      0.0001
     60  N        -24.4570    4.8210  -17.6550 N.3   108  SER108     -0.1202
     61  CA       -23.0360    4.5970  -17.8410 C.3   108  SER108      0.2020
     62  C        -22.6340    5.2730  -19.1390 C.2   108  SER108      0.2619
     63  O        -23.4180    5.3160  -20.0930 O.2   108  SER108     -0.2717
     64  CB       -22.7320    3.1050  -17.9470 C.3   108  SER108      0.2103
     65  OG       -23.1850    2.3930  -16.8090 O.3   108  SER108     -0.2182
     66  N        -21.4220    5.7930  -19.1870 N.am  109  THR109     -0.1938
     67  CA       -20.9710    6.3820  -20.4220 C.3   109  THR109      0.2028
     68  C        -19.5280    6.0000  -20.6590 C.2   109  THR109      0.2642
     69  O        -18.7440    5.9290  -19.7210 O.2   109  THR109     -0.2714
     70  CB       -21.1820    7.8910  -20.4750 C.3   109  THR109      0.1808
     71  OG1      -20.8850    8.3500  -21.8010 O.3   109  THR109     -0.2208
     72  CG2      -20.3170    8.6870  -19.4300 C.3   109  THR109      0.0379
     73  N        -19.2060    5.7280  -21.9160 N.am  110  THR110     -0.1950
     74  CA       -17.8780    5.3280  -22.3180 C.3   110  THR110      0.1897
     75  C        -17.4850    6.1110  -23.5750 C.2   110  THR110      0.2313
     76  O        -18.3580    6.5460  -24.3240 O.2   110  THR110     -0.2863
     77  CB       -17.8770    3.8140  -22.5900 C.3   110  THR110      0.1794
     78  OG1      -18.5400    3.1600  -21.5020 O.3   110  THR110     -0.2208
     79  CG2      -16.4480    3.2640  -22.7500 C.3   110  THR110      0.0378
     80  N        -15.0300    5.8300  -27.0360 N.3   112  VAL112     -0.1245
     81  CA       -14.1730    5.0310  -27.8900 C.3   112  VAL112      0.1561
     82  C        -13.5010    6.0620  -28.8010 C.2   112  VAL112      0.2260
     83  O        -14.1780    6.7870  -29.5450 O.2   112  VAL112     -0.2867
     84  CB       -14.9970    4.0040  -28.6960 C.3   112  VAL112      0.0252
     85  CG1      -14.0960    3.1470  -29.5800 C.3   112  VAL112      0.0019
     86  CG2      -15.8110    3.1170  -27.7710 C.3   112  VAL112      0.0019
@<TRIPOS>BOND
     1    33    32   ar
     2    32    34   ar
     3    32    31    1
     4    30    31    1
     5    30    27    1
     6    29    28    2
     7     6     5    1
     8     6     7    1
     9     5     2    1
    10    28    27    1
    11     8     7    1
    12    27    26    1
    13     2     1    1
    14     2     3    1
    15    40    39    1
    16    17    16    1
    17     3     4    2
    18    16    15    1
    19    15    14    1
    20    39    41    1
    21    39    36    1
    22    35    36    1
    23    36    37    1
    24    14    13    1
    25    13    10    1
    26    85    84    1
    27    83    82    2
    28    10     9    1
    29    10    11    1
    30    82    81    1
    31    37    38    2
    32    84    81    1
    33    84    86    1
    34    11    12    2
    35    25    23    1
    36    81    80    1
    37    23    24    1
    38    23    22    1
    39    46    43    1
    40    42    43    1
    41    43    44    1
    42    18    19    1
    43    19    22    1
    44    19    20    1
    45    44    47   am
    46    44    45    2
    47    47    48    1
    48    20    21    2
    49    76    75    2
    50    50    49    2
    51    75    74    1
    52    48    49    1
    53    48    51    1
    54    49    52   am
    55    79    77    1
    56    77    74    1
    57    77    78    1
    58    74    73    1
    59    58    57    1
    60    73    68   am
    61    52    53    1
    62    71    70    1
    63    53    56    1
    64    53    54    1
    65    56    57    1
    66    57    59    1
    67    68    67    1
    68    68    69    2
    69    70    67    1
    70    70    72    1
    71    54    55    2
    72    67    66    1
    73    63    62    2
    74    66    62   am
    75    62    61    1
    76    64    61    1
    77    64    65    1
    78    61    60    1
