@<TRIPOS>MOLECULE
tmp/4pwkB00.pdb
 69 63 0 0 0
SMALL
GASTEIGER

@<TRIPOS>ATOM
      1  N        -24.2400    7.4030  -29.3440 N.3     6  LYS6       -0.1245
      2  CA       -25.1240    6.2380  -29.4330 C.3     6  LYS6        0.1561
      3  C        -25.7990    6.0320  -28.0830 C.2     6  LYS6        0.2260
      4  O        -25.1240    6.0530  -27.0450 O.2     6  LYS6       -0.2867
      5  CB       -24.3150    4.9970  -29.8100 C.3     6  LYS6        0.0271
      6  CG       -25.0840    3.7000  -29.9530 C.3     6  LYS6        0.0035
      7  CD       -24.2490    2.7280  -30.7920 C.3     6  LYS6        0.0206
      8  CE       -24.9660    1.4060  -31.0590 C.3     6  LYS6        0.1093
      9  NZ       -26.0800    1.5470  -32.0460 N.3     6  LYS6       -0.1314
     10  N        -28.5850    3.7280  -25.7280 N.3     8  LEU8       -0.1245
     11  CA       -29.2060    2.4230  -25.6090 C.3     8  LEU8        0.1561
     12  C        -30.0770    2.3830  -24.3740 C.2     8  LEU8        0.2260
     13  O        -29.8030    3.0950  -23.3950 O.2     8  LEU8       -0.2867
     14  CB       -28.1460    1.3290  -25.4910 C.3     8  LEU8        0.0270
     15  CG       -27.2190    1.2220  -26.7010 C.3     8  LEU8        0.0019
     16  CD1      -26.1930    0.1420  -26.4590 C.3     8  LEU8        0.0001
     17  CD2      -28.0240    0.9640  -27.9800 C.3     8  LEU8        0.0001
     18  N        -16.6110    8.2130  -30.4090 N.3    97  THR97      -0.1218
     19  CA       -17.9400    7.6720  -30.2460 C.3    97  THR97       0.1862
     20  C        -18.2600    7.7080  -28.7540 C.2    97  THR97       0.2287
     21  O        -17.4850    7.1910  -27.9320 O.2    97  THR97      -0.2866
     22  CB       -18.0370    6.2320  -30.7400 C.3    97  THR97       0.1770
     23  OG1      -17.9250    6.2400  -32.1650 O.3    97  THR97      -0.2211
     24  CG2      -19.3880    5.6450  -30.3700 C.3    97  THR97       0.0375
     25  N        -20.9280    6.4780  -26.0430 N.3    99  ALA99      -0.1231
     26  CA       -22.0670    5.5930  -25.9450 C.3    99  ALA99       0.1694
     27  C        -22.6850    5.7270  -24.5660 C.2    99  ALA99       0.2592
     28  O        -21.9680    5.7440  -23.5630 O.2    99  ALA99      -0.2718
     29  CB       -21.6610    4.1470  -26.1940 C.3    99  ALA99       0.0304
     30  N        -23.9920    5.8790  -24.5210 N.am  100  ALA100     -0.1966
     31  CA       -24.6880    6.0510  -23.2460 C.3   100  ALA100      0.1728
     32  C        -25.7240    4.9340  -23.0840 C.2   100  ALA100      0.2616
     33  O        -26.5220    4.6620  -23.9950 O.2   100  ALA100     -0.2715
     34  CB       -25.3400    7.4320  -23.1560 C.3   100  ALA100      0.0334
     35  N        -25.7210    4.2860  -21.9130 N.am  101  LEU101     -0.1977
     36  CA       -26.6960    3.2500  -21.5910 C.3   101  LEU101      0.1596
     37  C        -27.5960    3.7740  -20.4860 C.2   101  LEU101      0.2287
     38  O        -27.1250    4.2030  -19.4370 O.2   101  LEU101     -0.2864
     39  CB       -25.9810    1.9750  -21.1050 C.3   101  LEU101      0.0297
     40  CG       -26.8800    0.7950  -20.7150 C.3   101  LEU101      0.0022
     41  CD1      -27.6940    0.2680  -21.8890 C.3   101  LEU101      0.0001
     42  CD2      -26.0580   -0.3390  -20.1220 C.3   101  LEU101      0.0001
     43  N        -24.7300    5.1470  -17.7440 N.3   108  SER108     -0.1202
     44  CA       -23.3250    4.8840  -17.9190 C.3   108  SER108      0.2020
     45  C        -22.9050    5.5000  -19.2480 C.2   108  SER108      0.2619
     46  O        -23.6930    5.5440  -20.1840 O.2   108  SER108     -0.2717
     47  CB       -23.0810    3.3820  -17.9290 C.3   108  SER108      0.2103
     48  OG       -23.6990    2.7750  -16.7970 O.3   108  SER108     -0.2182
     49  N        -21.6770    5.9890  -19.3200 N.am  109  THR109     -0.1938
     50  CA       -21.1790    6.4720  -20.5870 C.3   109  THR109      0.2028
     51  C        -19.7570    6.0060  -20.7790 C.2   109  THR109      0.2642
     52  O        -18.9910    5.9050  -19.8340 O.2   109  THR109     -0.2714
     53  CB       -21.3220    7.9840  -20.7660 C.3   109  THR109      0.1808
     54  OG1      -20.7650    8.3300  -22.0320 O.3   109  THR109     -0.2208
     55  CG2      -20.6010    8.8040  -19.6400 C.3   109  THR109      0.0379
     56  N        -19.4290    5.6890  -22.0210 N.am  110  THR110     -0.1950
     57  CA       -18.1580    5.1640  -22.3770 C.3   110  THR110      0.1897
     58  C        -17.7180    5.9200  -23.6410 C.2   110  THR110      0.2313
     59  O        -18.5820    6.2720  -24.4280 O.2   110  THR110     -0.2863
     60  CB       -18.3840    3.6690  -22.6350 C.3   110  THR110      0.1794
     61  OG1      -19.1070    3.1080  -21.5130 O.3   110  THR110     -0.2208
     62  CG2      -17.0850    2.9470  -22.8350 C.3   110  THR110      0.0378
     63  N        -15.2640    5.6190  -27.0640 N.3   112  VAL112     -0.1245
     64  CA       -14.3440    4.9020  -27.9410 C.3   112  VAL112      0.1561
     65  C        -13.6630    5.9650  -28.8090 C.2   112  VAL112      0.2260
     66  O        -14.3260    6.6930  -29.5560 O.2   112  VAL112     -0.2867
     67  CB       -15.0810    3.8450  -28.7980 C.3   112  VAL112      0.0252
     68  CG1      -14.0790    3.0250  -29.6100 C.3   112  VAL112      0.0019
     69  CG2      -15.9710    2.9400  -27.9480 C.3   112  VAL112      0.0019
@<TRIPOS>BOND
     1    23    22    1
     2     9     8    1
     3     8     7    1
     4     7     6    1
     5    22    24    1
     6    22    19    1
     7    18    19    1
     8    19    20    1
     9     6     5    1
    10     5     2    1
    11    68    67    1
    12    66    65    2
    13     2     1    1
    14     2     3    1
    15    65    64    1
    16    67    69    1
    17    67    64    1
    18    20    21    2
    19     3     4    2
    20    17    15    1
    21    64    63    1
    22    15    16    1
    23    15    14    1
    24    29    26    1
    25    25    26    1
    26    26    27    1
    27    10    11    1
    28    11    14    1
    29    11    12    1
    30    27    30   am
    31    27    28    2
    32    30    31    1
    33    59    58    2
    34    12    13    2
    35    33    32    2
    36    58    57    1
    37    31    34    1
    38    31    32    1
    39    32    35   am
    40    62    60    1
    41    60    57    1
    42    60    61    1
    43    57    56    1
    44    54    53    1
    45    56    51   am
    46    35    36    1
    47    41    40    1
    48    36    39    1
    49    36    37    1
    50    39    40    1
    51    51    50    1
    52    51    52    2
    53    53    50    1
    54    53    55    1
    55    40    42    1
    56    50    49    1
    57    37    38    2
    58    46    45    2
    59    49    45   am
    60    45    44    1
    61    47    44    1
    62    47    48    1
    63    44    43    1
