@<TRIPOS>MOLECULE
tmp/4pwlA00.pdb
 144 135 0 0 0
SMALL
GASTEIGER

@<TRIPOS>ATOM
      1  N         23.7020   28.0530   10.4920 N.3    61  ARG61      -0.1231
      2  CA        22.2850   28.2590   10.1940 C.3    61  ARG61       0.1694
      3  C         21.5370   26.9480    9.9690 C.2    61  ARG61       0.2591
      4  O         20.3200   26.8800   10.1470 O.2    61  ARG61      -0.2718
      5  CB        22.1180   29.1720    8.9710 C.3    61  ARG61       0.0321
      6  CG        21.3990   30.4870    9.2850 C.3    61  ARG61       0.0489
      7  CD        21.5890   31.5330    8.1920 C.3    61  ARG61       0.2205
      8  NE        21.7770   32.8770    8.7420 N.pl3  61  ARG61      -0.0865
      9  CZ        22.7310   33.7210    8.3510 C.cat  61  ARG61       0.5346
     10  NH1       23.5910   33.3640    7.4090 N.pl3  61  ARG61       0.1354
     11  NH2       22.8300   34.9220    8.9060 N.pl3  61  ARG61       0.1354
     12  N         22.2700   25.9100    9.5880 N.am   62  ILE62      -0.1980
     13  CA        21.6920   24.5820    9.4440 C.3    62  ILE62       0.1595
     14  C         21.4960   23.9420   10.8170 C.2    62  ILE62       0.2287
     15  O         20.4100   23.4550   11.1420 O.2    62  ILE62      -0.2864
     16  CB        22.5790   23.6810    8.5630 C.3    62  ILE62       0.0276
     17  CG1       22.4000   24.0520    7.0910 C.3    62  ILE62       0.0022
     18  CG2       22.2400   22.2150    8.7730 C.3    62  ILE62       0.0022
     19  CD1       23.0960   23.1190    6.1390 C.3    62  ILE62       0.0001
     20  N         18.5920   25.3060   12.7180 N.3    65  GLY65      -0.1210
     21  CA        17.4110   24.7090   12.1350 C.3    65  GLY65       0.1956
     22  C         17.1950   23.3000   12.6490 C.2    65  GLY65       0.2612
     23  O         16.0800   22.9330   13.0110 O.2    65  GLY65      -0.2717
     24  N         18.2600   22.5070   12.6910 N.am   66  CYS66      -0.1970
     25  CA        18.1490   21.1430   13.1900 C.3    66  CYS66       0.1712
     26  C         17.7890   21.1440   14.6600 C.2    66  CYS66       0.2296
     27  O         17.0360   20.2910   15.1300 O.2    66  CYS66      -0.2864
     28  CB        19.4430   20.3580   12.9840 C.3    66  CYS66       0.0983
     29  SG        19.4060   18.7430   13.8200 S.3    66  CYS66      -0.0798
     30  N         16.1470   23.5270   16.0300 N.3    68  PHE68      -0.1227
     31  CA        14.7850   24.0210   16.1310 C.3    68  PHE68       0.1736
     32  C         13.7540   22.9540   15.7550 C.2    68  PHE68       0.2595
     33  O         12.6790   22.9210   16.3300 O.2    68  PHE68      -0.2718
     34  CB        14.5830   25.2620   15.2730 C.3    68  PHE68       0.0547
     35  CG        13.2920   25.9630   15.5550 C.ar   68  PHE68      -0.0202
     36  CD1       13.1200   26.6710   16.7350 C.ar   68  PHE68      -0.0042
     37  CD2       12.2310   25.8720   14.6710 C.ar   68  PHE68      -0.0042
     38  CE1       11.9210   27.3040   17.0100 C.ar   68  PHE68      -0.0003
     39  CE2       11.0340   26.4990   14.9320 C.ar   68  PHE68      -0.0003
     40  CZ        10.8750   27.2180   16.1070 C.ar   68  PHE68      -0.0000
     41  N         14.0830   22.0860   14.8010 N.am   69  ARG69      -0.1966
     42  CA        13.2530   20.9170   14.4980 C.3    69  ARG69       0.1729
     43  C         13.0280   20.0530   15.7250 C.2    69  ARG69       0.2616
     44  O         11.9630   19.4610   15.9030 O.2    69  ARG69      -0.2715
     45  CB        13.8940   20.0640   13.4080 C.3    69  ARG69       0.0348
     46  CG        13.3250   20.3030   12.0460 C.3    69  ARG69       0.0492
     47  CD        11.9150   19.7860   11.9570 C.3    69  ARG69       0.2205
     48  NE        11.3150   20.1500   10.6790 N.pl3  69  ARG69      -0.0865
     49  CZ        10.7970   19.2820    9.8150 C.cat  69  ARG69       0.5346
     50  NH1       10.7900   17.9750   10.0690 N.pl3  69  ARG69       0.1354
     51  NH2       10.2820   19.7280    8.6910 N.pl3  69  ARG69       0.1354
     52  N         14.0650   19.9780   16.5550 N.am   70  SER70      -0.1950
     53  CA        14.0600   19.1690   17.7620 C.3    70  SER70       0.1924
     54  C         13.1130   19.7580   18.7920 C.2    70  SER70       0.2314
     55  O         12.4530   19.0230   19.5080 O.2    70  SER70      -0.2863
     56  CB        15.4760   19.0670   18.3300 C.3    70  SER70       0.2116
     57  OG        16.4090   18.6980   17.3200 O.3    70  SER70      -0.2180
     58  N         10.2910   21.6130   18.0690 N.3    72  GLU72      -0.1196
     59  CA         9.0030   21.1920   17.5110 C.3    72  GLU72       0.1783
     60  C          8.7320   19.7540   17.9500 C.2    72  GLU72       0.2306
     61  O          7.6500   19.4440   18.4590 O.2    72  GLU72      -0.2863
     62  CB         8.9780   21.2840   15.9620 C.2    72  GLU72       0.0071
     63  CG        10.0240   22.2310   15.3190 C.2    72  GLU72       0.0834
     64  CD         9.8160   22.5290   13.8190 C.2    72  GLU72       0.3877
     65  OE1        8.6590   22.6650   13.3650 O.co2  72  GLU72      -0.2406
     66  OE2       10.8290   22.6100   13.0800 O.co2  72  GLU72      -0.2406
     67  N         13.4530   10.2760   13.5110 N.3   111  LEU111     -0.1245
     68  CA        14.3090   10.8100   12.4850 C.3   111  LEU111      0.1561
     69  C         14.5910    9.7040   11.4680 C.2   111  LEU111      0.2260
     70  O         14.6800    9.9830   10.2810 O.2   111  LEU111     -0.2867
     71  CB        15.5980   11.3730   13.0730 C.3   111  LEU111      0.0270
     72  CG        16.5480   12.1510   12.1430 C.3   111  LEU111      0.0019
     73  CD1       15.9350   13.4680   11.6210 C.3   111  LEU111      0.0001
     74  CD2       17.8670   12.4250   12.8490 C.3   111  LEU111      0.0001
     75  N         12.4180    9.5850    8.3520 N.3   114  LEU114     -0.1245
     76  CA        12.6860   10.5800    7.3220 C.3   114  LEU114      0.1561
     77  C         14.0030   10.3020    6.5970 C.2   114  LEU114      0.2260
     78  O         14.4490   11.1180    5.7920 O.2   114  LEU114     -0.2867
     79  CB        12.7330   11.9870    7.9110 C.3   114  LEU114      0.0270
     80  CG        11.8060   12.3370    9.0730 C.3   114  LEU114      0.0019
     81  CD1       12.0900   13.7470    9.6060 C.3   114  LEU114      0.0001
     82  CD2       10.3830   12.2210    8.6430 C.3   114  LEU114      0.0001
     83  N         18.1050   12.7040    4.3040 N.3   120  VAL120     -0.1231
     84  CA        17.0390   12.9280    5.2560 C.3   120  VAL120      0.1692
     85  C         16.0690   13.9820    4.7350 C.2   120  VAL120      0.2592
     86  O         16.4830   14.9860    4.1560 O.2   120  VAL120     -0.2718
     87  CB        17.6090   13.3700    6.6600 C.3   120  VAL120      0.0266
     88  CG1       18.4030   14.6640    6.5460 C.3   120  VAL120      0.0020
     89  CG2       16.4900   13.5320    7.7210 C.3   120  VAL120      0.0020
     90  N         14.7780   13.7400    4.9530 N.am  121  LEU121     -0.1966
     91  CA        13.7430   14.7380    4.7070 C.3   121  LEU121      0.1728
     92  C         13.9160   15.9650    5.5890 C.2   121  LEU121      0.2616
     93  O         14.3500   15.8620    6.7270 O.2   121  LEU121     -0.2715
     94  CB        12.3590   14.1450    4.9410 C.3   121  LEU121      0.0311
     95  CG        11.8320   13.2320    3.8440 C.3   121  LEU121      0.0022
     96  CD1       10.4150   12.8460    4.1620 C.3   121  LEU121      0.0001
     97  CD2       11.9220   13.9190    2.4960 C.3   121  LEU121      0.0001
     98  N         13.5240   17.1070    5.0380 N.am  122  ILE122     -0.1963
     99  CA        13.7460   18.4450    5.5640 C.3   122  ILE122      0.1727
    100  C         12.4280   19.1620    5.3570 C.2   122  ILE122      0.2617
    101  O         11.6130   18.6900    4.5830 O.2   122  ILE122     -0.2715
    102  CB        14.9470   19.1620    4.8170 C.3   122  ILE122      0.0290
    103  CG1       16.2570   18.4300    5.1140 C.3   122  ILE122      0.0022
    104  CG2       15.0680   20.6630    5.1170 C.3   122  ILE122      0.0023
    105  CD1       16.4880   18.2150    6.5720 C.3   122  ILE122      0.0001
    106  N         12.2020   20.2480    6.0910 N.am  123  SER123     -0.1936
    107  CA        11.0390   21.1170    5.9200 C.3   123  SER123      0.2055
    108  C          9.7660   20.4200    5.4640 C.2   123  SER123      0.2642
    109  O          9.5360   20.3070    4.2600 O.2   123  SER123     -0.2714
    110  CB        11.3770   22.2170    4.9150 C.3   123  SER123      0.2130
    111  OG        12.3040   23.1170    5.4780 O.3   123  SER123     -0.2179
    112  N          8.9330   19.9670    6.4000 N.am  124  GLU124     -0.1976
    113  CA         7.5990   19.4450    6.0840 C.3   124  GLU124      0.1602
    114  C          7.6870   18.2080    5.1550 C.2   124  GLU124      0.2287
    115  O          6.6610   17.7150    4.6760 O.2   124  GLU124     -0.2864
    116  CB         6.6920   20.5220    5.4030 C.3   124  GLU124      0.0415
    117  CG         7.1450   22.0180    5.4520 C.3   124  GLU124      0.1163
    118  CD         6.8280   22.7380    6.7420 C.2   124  GLU124      0.3649
    119  OE1        5.9940   22.2250    7.5190 O.co2 124  GLU124     -0.2457
    120  OE2        7.4400   23.8090    6.9690 O.co2 124  GLU124     -0.2457
    121  N         17.8770   16.7940    2.2950 N.3   129  MET129     -0.1245
    122  CA        19.2920   17.0930    2.3850 C.3   129  MET129      0.1570
    123  C         20.0930   15.7940    2.3830 C.2   129  MET129      0.2261
    124  O         19.8180   14.8790    3.1790 O.2   129  MET129     -0.2867
    125  CB        19.5640   17.9080    3.6430 C.3   129  MET129      0.0387
    126  CG        20.7860   18.7950    3.5900 C.3   129  MET129      0.0595
    127  SD        20.7690   19.9300    4.9920 S.3   129  MET129     -0.1393
    128  CE        19.3270   20.9240    4.6140 C.3   129  MET129      0.0692
    129  N         25.9780   17.0470    4.3630 N.3   134  LEU134     -0.1245
    130  CA        26.0980   17.1010    5.8150 C.3   134  LEU134      0.1561
    131  C         27.4960   16.7270    6.3100 C.2   134  LEU134      0.2260
    132  O         28.0990   17.4550    7.0990 O.2   134  LEU134     -0.2867
    133  CB        25.0680   16.1770    6.4530 C.3   134  LEU134      0.0270
    134  CG        23.6170   16.6240    6.3290 C.3   134  LEU134      0.0019
    135  CD1       22.7210   15.5350    6.8830 C.3   134  LEU134      0.0001
    136  CD2       23.3960   17.9490    7.0480 C.3   134  LEU134      0.0001
    137  N         25.3700   14.4470   11.9350 N.3   145  MET145     -0.1245
    138  CA        24.2450   13.6440   11.4890 C.3   145  MET145      0.1570
    139  C         24.6430   12.2150   11.1900 C.2   145  MET145      0.2261
    140  O         23.8120   11.3150   11.2650 O.2   145  MET145     -0.2867
    141  CB        23.5890   14.2850   10.2760 C.3   145  MET145      0.0387
    142  CG        22.9450   15.6170   10.6050 C.3   145  MET145      0.0595
    143  SD        21.6600   15.4560   11.8580 S.3   145  MET145     -0.1393
    144  CE        20.3860   14.6480   10.8840 C.3   145  MET145      0.0692
@<TRIPOS>BOND
     1   121   122    1
     2   123   122    1
     3   123   124    2
     4   122   125    1
     5    97    95    1
     6   126   125    1
     7   126   127    1
     8    95    96    1
     9    95    94    1
    10    86    85    2
    11   109   108    2
    12    83    84    1
    13   129   130    1
    14   101   100    2
    15   128   127    1
    16   115   114    2
    17    91    94    1
    18    91    90    1
    19    91    92    1
    20    85    90   am
    21    85    84    1
    22   102   103    1
    23   102   104    1
    24   102    99    1
    25   110   111    1
    26   110   107    1
    27    98    99    1
    28    98    92   am
    29   103   105    1
    30   114   113    1
    31    84    87    1
    32   100    99    1
    33   100   106   am
    34   116   117    1
    35   116   113    1
    36   117   118    1
    37   108   107    1
    38   108   112   am
    39    92    93    2
    40    78    77    2
    41   130   131    1
    42   130   133    1
    43   107   106    1
    44   113   112    1
    45    19    17    1
    46   131   132    2
    47   134   133    1
    48   134   135    1
    49   134   136    1
    50    88    87    1
    51    77    76    1
    52    87    89    1
    53   118   120   ar
    54   118   119   ar
    55    17    16    1
    56    76    79    1
    57    76    75    1
    58    10     9    1
    59    79    80    1
    60     7     8    1
    61     7     6    1
    62     9     8    2
    63     9    11    1
    64    16    18    1
    65    16    13    1
    66    82    80    1
    67    51    49    1
    68     5     6    1
    69     5     2    1
    70    80    81    1
    71    13    12    1
    72    13    14    1
    73    12     3   am
    74    49    50    1
    75    49    48    2
    76     3     4    2
    77     3     2    1
    78     2     1    1
    79   141   142    1
    80   141   138    1
    81    70    69    2
    82   142   143    1
    83    48    47    1
    84    14    15    2
    85   144   143    1
    86   139   140    2
    87   139   138    1
    88    69    68    1
    89   138   137    1
    90    73    72    1
    91    47    46    1
    92    46    45    1
    93    21    22    1
    94    21    20    1
    95    72    74    1
    96    72    71    1
    97    68    71    1
    98    68    67    1
    99    22    24   am
   100    22    23    2
   101    24    25    1
   102    28    25    1
   103    28    29    1
   104    66    64   ar
   105    25    26    1
   106    65    64   ar
   107    45    42    1
   108    64    63    1
   109    42    41    1
   110    42    43    1
   111    26    27    2
   112    37    39   ar
   113    37    35   ar
   114    41    32   am
   115    39    40   ar
   116    34    35    1
   117    34    31    1
   118    63    62    2
   119    35    36   ar
   120    43    44    2
   121    43    52   am
   122    32    31    1
   123    32    33    2
   124    62    59    1
   125    30    31    1
   126    40    38   ar
   127    52    53    1
   128    36    38   ar
   129    57    56    1
   130    59    60    1
   131    59    58    1
   132    53    56    1
   133    53    54    1
   134    60    61    2
   135    54    55    2
