@<TRIPOS>MOLECULE
tmp/4pwvA01.pdb
 199 189 0 0 0
SMALL
GASTEIGER

@<TRIPOS>ATOM
      1  N          3.4910   44.9880  184.5900 N.3    71  ASN71      -0.1225
      2  CA         4.5740   45.0480  183.6090 C.3    71  ASN71       0.1785
      3  C          4.6570   43.8150  182.6910 C.2    71  ASN71       0.2597
      4  O          5.4890   43.7630  181.7870 O.2    71  ASN71      -0.2718
      5  CB         5.9190   45.3630  184.2800 C.3    71  ASN71       0.1169
      6  CG         6.5090   44.1810  185.0240 C.2    71  ASN71       0.2627
      7  OD1        5.7970   43.2970  185.4920 O.2    71  ASN71      -0.2716
      8  ND2        7.8280   44.1720  185.1480 N.am   71  ASN71      -0.0877
      9  N          3.7920   42.8320  182.9310 N.am   72  VAL72      -0.1980
     10  CA         3.6630   41.6590  182.0600 C.3    72  VAL72       0.1595
     11  C          2.1960   41.4620  181.7060 C.2    72  VAL72       0.2287
     12  O          1.3220   41.9700  182.4070 O.2    72  VAL72      -0.2864
     13  CB         4.2260   40.3600  182.7070 C.3    72  VAL72       0.0276
     14  CG1        5.7220   40.4800  182.9550 C.3    72  VAL72       0.0022
     15  CG2        3.4890   40.0140  183.9990 C.3    72  VAL72       0.0022
     16  N         -0.0620   39.0490  181.9590 N.3    74  VAL74      -0.1231
     17  CA        -1.0150   38.4080  182.8780 C.3    74  VAL74       0.1692
     18  C         -1.6080   39.3690  183.9180 C.2    74  VAL74       0.2592
     19  O         -2.7320   39.1660  184.3880 O.2    74  VAL74      -0.2718
     20  CB        -0.4350   37.1270  183.5520 C.3    74  VAL74       0.0266
     21  CG1        0.5510   37.4740  184.6650 C.3    74  VAL74       0.0020
     22  CG2       -1.5630   36.2390  184.0760 C.3    74  VAL74       0.0020
     23  N         -0.8570   40.4130  184.2630 N.am   75  THR75      -0.1953
     24  CA        -1.3610   41.4470  185.1590 C.3    75  THR75       0.1897
     25  C         -1.9210   42.6230  184.3690 C.2    75  THR75       0.2313
     26  O         -2.9760   43.1640  184.7190 O.2    75  THR75      -0.2863
     27  CB        -0.2860   41.9530  186.1290 C.3    75  THR75       0.1794
     28  OG1        0.9150   42.2470  185.4050 O.3    75  THR75      -0.2208
     29  CG2       -0.0020   40.9110  187.1940 C.3    75  THR75       0.0378
     30  N         -1.9230   45.1610  189.0620 N.3    81  ASP81      -0.1225
     31  CA        -1.0800   44.2510  189.8310 C.3    81  ASP81       0.1805
     32  C         -1.2010   44.5880  191.3190 C.2    81  ASP81       0.2598
     33  O         -0.9510   45.7270  191.7290 O.2    81  ASP81      -0.2718
     34  CB         0.3780   44.3620  189.3610 C.3    81  ASP81       0.1424
     35  CG         1.2840   43.2950  189.9680 C.2    81  ASP81       0.3668
     36  OD1        1.1830   43.0260  191.1850 O.co2  81  ASP81      -0.2456
     37  OD2        2.1210   42.7320  189.2270 O.co2  81  ASP81      -0.2456
     38  N         -1.5820   43.5880  192.1160 N.am   82  SER82      -0.1938
     39  CA        -1.7530   43.7300  193.5710 C.3    82  SER82       0.2055
     40  C         -0.5540   44.3810  194.2410 C.2    82  SER82       0.2642
     41  O         -0.7070   45.1480  195.1900 O.2    82  SER82      -0.2714
     42  CB        -1.9720   42.3640  194.2160 C.3    82  SER82       0.2130
     43  OG        -2.7550   41.5380  193.3840 O.3    82  SER82      -0.2179
     44  N          0.6370   44.0710  193.7360 N.am   83  ALA83      -0.1977
     45  CA         1.8820   44.4990  194.3530 C.3    83  ALA83       0.1597
     46  C          2.3400   45.8930  193.9120 C.2    83  ALA83       0.2287
     47  O          3.4430   46.3280  194.2580 O.2    83  ALA83      -0.2864
     48  CB         2.9610   43.4700  194.0900 C.3    83  ALA83       0.0319
     49  N          9.4940   45.9970  190.5820 N.3    88  ALA88      -0.1231
     50  CA         9.1340   45.8990  189.1660 C.3    88  ALA88       0.1694
     51  C          7.8550   46.6660  188.7960 C.2    88  ALA88       0.2591
     52  O          7.7410   47.1890  187.6820 O.2    88  ALA88      -0.2718
     53  CB         9.0200   44.4410  188.7530 C.3    88  ALA88       0.0304
     54  N          6.9030   46.7250  189.7270 N.am   89  VAL89      -0.1980
     55  CA         5.6290   47.4110  189.4970 C.3    89  VAL89       0.1595
     56  C          5.4710   48.6530  190.3780 C.2    89  VAL89       0.2287
     57  O          4.3800   48.9590  190.8550 O.2    89  VAL89      -0.2864
     58  CB         4.4040   46.4570  189.6430 C.3    89  VAL89       0.0276
     59  CG1        4.2600   45.5760  188.4110 C.3    89  VAL89       0.0022
     60  CG2        4.4930   45.6120  190.9140 C.3    89  VAL89       0.0022
     61  N          4.7730   31.5350  186.0460 N.3   171  LEU171     -0.1245
     62  CA         4.5810   32.3600  184.8520 C.3   171  LEU171      0.1561
     63  C          4.7750   31.5610  183.5760 C.2   171  LEU171      0.2260
     64  O          4.2880   31.9410  182.5080 O.2   171  LEU171     -0.2867
     65  CB         5.5210   33.5610  184.8720 C.3   171  LEU171      0.0270
     66  CG         5.1350   34.7110  185.8050 C.3   171  LEU171      0.0019
     67  CD1        6.3200   35.6330  185.9950 C.3   171  LEU171      0.0001
     68  CD2        3.9270   35.4800  185.2750 C.3   171  LEU171      0.0001
     69  N         -2.1450   30.8640  189.6230 N.3   184  TRP184     -0.1241
     70  CA        -2.4860   31.7000  190.7740 C.3   184  TRP184      0.1605
     71  C         -2.0070   31.0710  192.0800 C.2   184  TRP184      0.2264
     72  O         -1.3470   31.7290  192.8850 O.2   184  TRP184     -0.2867
     73  CB        -3.9970   31.9660  190.8280 C.3   184  TRP184      0.0550
     74  CG        -4.4000   33.0090  191.8410 C.ar  184  TRP184      0.0003
     75  CD1       -4.5890   34.3430  191.6130 C.ar  184  TRP184      0.0946
     76  CD2       -4.6590   32.8010  193.2360 C.ar  184  TRP184      0.0152
     77  NE1       -4.9490   34.9780  192.7780 N.ar  184  TRP184     -0.2442
     78  CE2       -4.9980   34.0550  193.7890 C.ar  184  TRP184      0.0810
     79  CE3       -4.6370   31.6760  194.0730 C.ar  184  TRP184      0.0012
     80  CZ2       -5.3120   34.2160  195.1430 C.ar  184  TRP184      0.0191
     81  CZ3       -4.9480   31.8370  195.4180 C.ar  184  TRP184      0.0001
     82  CH2       -5.2810   33.0980  195.9380 C.ar  184  TRP184      0.0015
     83  N          1.8870   30.9450  192.3950 N.3   187  ARG187     -0.1231
     84  CA         2.3870   32.2680  192.7460 C.3   187  ARG187      0.1694
     85  C          2.1670   32.5530  194.2230 C.2   187  ARG187      0.2592
     86  O          3.0750   33.0090  194.9160 O.2   187  ARG187     -0.2718
     87  CB         1.7010   33.3470  191.9170 C.3   187  ARG187      0.0321
     88  CG         2.1300   33.4040  190.4750 C.3   187  ARG187      0.0489
     89  CD         1.6600   34.6940  189.8510 C.3   187  ARG187      0.2205
     90  NE         1.0220   34.4590  188.5620 N.pl3 187  ARG187     -0.0865
     91  CZ        -0.2930   34.3990  188.3780 C.cat 187  ARG187      0.5346
     92  NH1       -1.1250   34.5630  189.3970 N.pl3 187  ARG187      0.1354
     93  NH2       -0.7790   34.1810  187.1670 N.pl3 187  ARG187      0.1354
     94  N          0.9590   32.2660  194.6970 N.am  188  ASN188     -0.1974
     95  CA         0.5770   32.5680  196.0690 C.3   188  ASN188      0.1688
     96  C          1.2200   31.6820  197.1290 C.2   188  ASN188      0.2292
     97  O          1.3520   32.0880  198.2850 O.2   188  ASN188     -0.2864
     98  CB        -0.9380   32.5770  196.2040 C.3   188  ASN188      0.1181
     99  CG        -1.5390   33.8980  195.7930 C.2   188  ASN188      0.2629
    100  OD1       -1.9420   34.0800  194.6460 O.2   188  ASN188     -0.2716
    101  ND2       -1.5780   34.8420  196.7250 N.am  188  ASN188     -0.0877
    102  N          4.3970   33.4320  198.1430 N.3   191  LEU191     -0.1245
    103  CA         4.1110   34.4930  199.0990 C.3   191  LEU191      0.1561
    104  C          3.8780   33.9100  200.4880 C.2   191  LEU191      0.2260
    105  O          4.3550   34.4520  201.4880 O.2   191  LEU191     -0.2867
    106  CB         2.8980   35.3060  198.6490 C.3   191  LEU191      0.0270
    107  CG         2.9930   36.0060  197.2920 C.3   191  LEU191      0.0019
    108  CD1        1.6190   36.4570  196.8260 C.3   191  LEU191      0.0001
    109  CD2        3.9740   37.1760  197.3250 C.3   191  LEU191      0.0001
    110  N          7.0430   40.7740  199.1160 N.3   229  LEU229     -0.1245
    111  CA         6.7400   40.9370  197.6990 C.3   229  LEU229      0.1561
    112  C          7.9970   41.0240  196.8380 C.2   229  LEU229      0.2260
    113  O          8.0070   40.5560  195.7010 O.2   229  LEU229     -0.2867
    114  CB         5.8200   42.1400  197.4680 C.3   229  LEU229      0.0270
    115  CG         4.3720   41.9920  197.9550 C.3   229  LEU229      0.0019
    116  CD1        3.6840   43.3400  198.0360 C.3   229  LEU229      0.0001
    117  CD2        3.5720   41.0450  197.0800 C.3   229  LEU229      0.0001
    118  N          9.6560   37.6220  196.4410 N.3   232  TYR232     -0.1227
    119  CA         8.9950   36.9330  195.3430 C.3   232  TYR232      0.1736
    120  C          9.6750   37.2680  194.0210 C.2   232  TYR232      0.2596
    121  O         10.0400   36.3700  193.2660 O.2   232  TYR232     -0.2718
    122  CB         7.5170   37.3210  195.2960 C.3   232  TYR232      0.0548
    123  CG         6.7850   36.8880  194.0470 C.ar  232  TYR232     -0.0200
    124  CD1        6.7920   37.6820  192.9020 C.ar  232  TYR232     -0.0009
    125  CD2        6.0660   35.7000  194.0180 C.ar  232  TYR232     -0.0009
    126  CE1        6.1170   37.2970  191.7570 C.ar  232  TYR232      0.0417
    127  CE2        5.3820   35.3060  192.8780 C.ar  232  TYR232      0.0417
    128  CZ         5.4120   36.1100  191.7510 C.ar  232  TYR232      0.1957
    129  OH         4.7350   35.7260  190.6160 O.3   232  TYR232     -0.2866
    130  N          9.8510   38.5590  193.7490 N.am  233  SER233     -0.1952
    131  CA        10.4250   39.0020  192.4820 C.3   233  SER233      0.1924
    132  C         11.9010   38.6240  192.3550 C.2   233  SER233      0.2314
    133  O         12.4360   38.5570  191.2460 O.2   233  SER233     -0.2863
    134  CB        10.2350   40.5080  192.2900 C.3   233  SER233      0.2116
    135  OG        11.0150   41.2430  193.2110 O.3   233  SER233     -0.2180
    136  N         11.9740   34.5140  191.8680 N.3   236  LEU236     -0.1231
    137  CA        11.4770   34.1910  190.5440 C.3   236  LEU236      0.1693
    138  C         12.4020   34.7810  189.4860 C.2   236  LEU236      0.2592
    139  O         12.7020   34.1340  188.4800 O.2   236  LEU236     -0.2718
    140  CB        10.0490   34.7110  190.3810 C.3   236  LEU236      0.0284
    141  CG         9.2370   34.3060  189.1530 C.3   236  LEU236      0.0019
    142  CD1        9.3520   32.8110  188.8720 C.3   236  LEU236      0.0001
    143  CD2        7.7850   34.7100  189.3430 C.3   236  LEU236      0.0001
    144  N         12.8630   36.0050  189.7360 N.am  237  GLY237     -0.1957
    145  CA        13.7500   36.7100  188.8200 C.3   237  GLY237      0.1869
    146  C         15.1320   36.0980  188.7390 C.2   237  GLY237      0.2309
    147  O         15.6890   35.9410  187.6480 O.2   237  GLY237     -0.2863
    148  N         14.3070   31.7760  186.7770 N.3   240  GLU240     -0.1231
    149  CA        13.8330   31.3160  185.4640 C.3   240  GLU240      0.1699
    150  C         14.6480   31.7980  184.2690 C.2   240  GLU240      0.2592
    151  O         15.1180   30.9910  183.4710 O.2   240  GLU240     -0.2718
    152  CB        12.3380   31.6130  185.2650 C.3   240  GLU240      0.0402
    153  CG        11.4250   30.7250  186.1080 C.3   240  GLU240      0.1161
    154  CD        10.0770   30.4420  185.4510 C.2   240  GLU240      0.3649
    155  OE1        9.1810   31.3210  185.5020 O.co2 240  GLU240     -0.2457
    156  OE2        9.9110   29.3230  184.9050 O.co2 240  GLU240     -0.2457
    157  N         14.8260   33.1110  184.1660 N.am  241  THR241     -0.1953
    158  CA        15.4490   33.7240  182.9940 C.3   241  THR241      0.1897
    159  C         16.9140   33.3210  182.7790 C.2   241  THR241      0.2313
    160  O         17.3440   33.1320  181.6400 O.2   241  THR241     -0.2863
    161  CB        15.3270   35.2530  183.0380 C.3   241  THR241      0.1794
    162  OG1       15.6800   35.7200  184.3460 O.3   241  THR241     -0.2208
    163  CG2       13.9090   35.6830  182.7200 C.3   241  THR241      0.0378
    164  N          7.9370   42.7960  177.9310 N.3   285  PHE285     -0.1241
    165  CA         7.5260   43.4980  179.1420 C.3   285  PHE285      0.1605
    166  C          6.5990   44.6430  178.7290 C.2   285  PHE285      0.2264
    167  O          6.5450   44.9970  177.5500 O.2   285  PHE285     -0.2867
    168  CB         8.7340   44.0030  179.9310 C.3   285  PHE285      0.0534
    169  CG         9.2440   43.0200  180.9430 C.ar  285  PHE285     -0.0203
    170  CD1        8.5540   42.8030  182.1330 C.ar  285  PHE285     -0.0042
    171  CD2       10.4110   42.3080  180.7120 C.ar  285  PHE285     -0.0042
    172  CE1        9.0210   41.8900  183.0750 C.ar  285  PHE285     -0.0003
    173  CE2       10.8860   41.3920  181.6540 C.ar  285  PHE285     -0.0003
    174  CZ        10.1890   41.1860  182.8350 C.ar  285  PHE285     -0.0000
    175  N         17.2540   45.7300  184.4340 N.3   344  CYS344     -0.1235
    176  CA        17.3340   44.5240  185.2550 C.3   344  CYS344      0.1677
    177  C         18.2880   44.6440  186.4350 C.2   344  CYS344      0.2270
    178  O         19.4780   44.9130  186.2630 O.2   344  CYS344     -0.2867
    179  CB        17.7130   43.3100  184.4100 C.3   344  CYS344      0.0956
    180  SG        17.9000   41.8230  185.4030 S.3   344  CYS344     -0.0801
    181  N          5.0460   34.9190  178.0240 N.3   381  PHE381     -0.1227
    182  CA         6.0100   35.8440  178.5930 C.3   381  PHE381      0.1736
    183  C          7.4240   35.2990  178.4240 C.2   381  PHE381      0.2595
    184  O          8.3010   35.9830  177.8990 O.2   381  PHE381     -0.2718
    185  CB         5.6630   36.1230  180.0640 C.3   381  PHE381      0.0547
    186  CG         6.7680   36.7760  180.8530 C.ar  381  PHE381     -0.0202
    187  CD1        7.3530   37.9670  180.4280 C.ar  381  PHE381     -0.0042
    188  CD2        7.2020   36.2090  182.0450 C.ar  381  PHE381     -0.0042
    189  CE1        8.3720   38.5620  181.1650 C.ar  381  PHE381     -0.0003
    190  CE2        8.2180   36.7990  182.7880 C.ar  381  PHE381     -0.0003
    191  CZ         8.8010   37.9770  182.3470 C.ar  381  PHE381     -0.0000
    192  N          7.6370   34.0600  178.8500 N.am  382  LEU382     -0.1980
    193  CA         8.9560   33.4480  178.7770 C.3   382  LEU382      0.1596
    194  C          9.1070   32.4780  177.6060 C.2   382  LEU382      0.2287
    195  O          8.1210   31.9400  177.0950 O.2   382  LEU382     -0.2864
    196  CB         9.2840   32.7440  180.0930 C.3   382  LEU382      0.0297
    197  CG         9.5600   33.6340  181.3050 C.3   382  LEU382      0.0022
    198  CD1        9.4850   32.8170  182.5820 C.3   382  LEU382      0.0001
    199  CD2       10.9060   34.3390  181.1850 C.3   382  LEU382      0.0001
@<TRIPOS>BOND
     1   195   194    2
     2   167   166    2
     3   194   193    1
     4   184   183    2
     5   164   165    1
     6   181   182    1
     7   183   182    1
     8   183   192   am
     9   182   185    1
    10   166   165    1
    11   193   192    1
    12   193   196    1
    13   165   168    1
    14   168   169    1
    15   185   186    1
    16   196   197    1
    17   187   186   ar
    18   187   189   ar
    19   171   169   ar
    20   171   173   ar
    21   186   188   ar
    22   169   170   ar
    23   189   191   ar
    24   199   197    1
    25   197   198    1
    26   160   159    2
    27   173   174   ar
    28    11    10    1
    29    11    12    2
    30     4     3    2
    31    16    17    1
    32   188   190   ar
    33    10    13    1
    34    10     9    1
    35   170   172   ar
    36   191   190   ar
    37    64    63    2
    38     3     9   am
    39     3     2    1
    40    13    14    1
    41    13    15    1
    42   163   161    1
    43   159   158    1
    44   174   172   ar
    45    17    20    1
    46    17    18    1
    47   158   161    1
    48   158   157    1
    49   161   162    1
    50   151   150    2
    51    20    22    1
    52    20    21    1
    53    63    62    1
    54     2     5    1
    55     2     1    1
    56    18    23   am
    57    18    19    2
    58   157   150   am
    59    23    24    1
    60   150   149    1
    61     5     6    1
    62    25    26    2
    63    25    24    1
    64   179   176    1
    65   179   180    1
    66   175   176    1
    67    62    65    1
    68    62    61    1
    69    65    66    1
    70   156   154   ar
    71     6     8   am
    72     6     7    2
    73    24    27    1
    74   176   177    1
    75   152   149    1
    76   152   153    1
    77    68    66    1
    78    28    27    1
    79   154   155   ar
    80   154   153    1
    81   149   148    1
    82    66    67    1
    83    27    29    1
    84   178   177    2
    85    93    91    1
    86   147   146    2
    87    52    51    2
    88    91    90    2
    89    91    92    1
    90    59    58    1
    91   139   138    2
    92    90    89    1
    93   146   145    1
    94    53    50    1
    95    51    50    1
    96    51    54   am
    97   145   144    1
    98   142   141    1
    99    30    31    1
   100   141   143    1
   101   141   140    1
   102    50    49    1
   103    37    35   ar
   104    34    31    1
   105    34    35    1
   106   138   144   am
   107   138   137    1
   108    55    58    1
   109    55    54    1
   110    55    56    1
   111    69    70    1
   112    58    60    1
   113    31    32    1
   114    89    88    1
   115    35    36   ar
   116    56    57    2
   117   140   137    1
   118    88    87    1
   119   137   136    1
   120   129   128    1
   121    70    73    1
   122    70    71    1
   123    73    74    1
   124   133   132    2
   125    32    33    2
   126    32    38   am
   127    75    74   ar
   128    75    77   ar
   129   128   126   ar
   130   128   127   ar
   131   126   124   ar
   132    74    76   ar
   133    87    84    1
   134    71    72    2
   135    38    39    1
   136   134   131    1
   137   134   135    1
   138   132   131    1
   139    83    84    1
   140   131   130    1
   141    84    85    1
   142    77    78   ar
   143   127   125   ar
   144   124   123   ar
   145    76    78   ar
   146    76    79   ar
   147   121   120    2
   148    43    42    1
   149    39    42    1
   150    39    40    1
   151    44    40   am
   152    44    45    1
   153   130   120   am
   154    78    80   ar
   155    46    47    2
   156    46    45    1
   157   125   123   ar
   158   120   119    1
   159   123   122    1
   160    79    81   ar
   161    48    45    1
   162    85    94   am
   163    85    86    2
   164    40    41    2
   165   100    99    2
   166    94    95    1
   167    80    82   ar
   168   122   119    1
   169   119   118    1
   170    81    82   ar
   171   113   112    2
   172    99    98    1
   173    99   101   am
   174    95    98    1
   175    95    96    1
   176   108   107    1
   177   112   111    1
   178   117   115    1
   179    96    97    2
   180   107   109    1
   181   107   106    1
   182   114   111    1
   183   114   115    1
   184   111   110    1
   185   115   116    1
   186   102   103    1
   187   106   103    1
   188   103   104    1
   189   104   105    2
