@<TRIPOS>MOLECULE
tmp/4pwzA00.pdb
 99 95 0 0 0
SMALL
GASTEIGER

@<TRIPOS>ATOM
      1  N         35.1160   12.2410   44.9240 N.3    41  ASN41      -0.1225
      2  CA        34.1300   11.3300   44.3290 C.3    41  ASN41       0.1785
      3  C         32.8010   11.9910   43.9720 C.2    41  ASN41       0.2597
      4  O         32.0230   11.4410   43.1930 O.2    41  ASN41      -0.2718
      5  CB        33.8190   10.1570   45.2700 C.3    41  ASN41       0.1169
      6  CG        34.9490    9.1670   45.3770 C.2    41  ASN41       0.2627
      7  OD1       35.8190    9.0930   44.5100 O.2    41  ASN41      -0.2716
      8  ND2       34.9230    8.3610   46.4350 N.am   41  ASN41      -0.0877
      9  N         32.5270   13.1470   44.5600 N.am   42  SER42      -0.1952
     10  CA        31.2810   13.8630   44.2900 C.3    42  SER42       0.1924
     11  C         31.3220   14.5600   42.9450 C.2    42  SER42       0.2314
     12  O         30.2930   14.9780   42.4280 O.2    42  SER42      -0.2863
     13  CB        31.0040   14.9200   45.3530 C.3    42  SER42       0.2116
     14  OG        31.9460   15.9800   45.2600 O.3    42  SER42      -0.2180
     15  N         30.0060   18.9550   52.5910 N.3   129  PHE129     -0.1241
     16  CA        29.4450   18.9980   51.2480 C.3   129  PHE129      0.1605
     17  C         28.1940   19.8690   51.2220 C.2   129  PHE129      0.2264
     18  O         28.0340   20.7360   50.3510 O.2   129  PHE129     -0.2867
     19  CB        29.1450   17.5710   50.7870 C.3   129  PHE129      0.0534
     20  CG        28.6390   17.4640   49.3800 C.ar  129  PHE129     -0.0203
     21  CD1       29.5330   17.4480   48.3170 C.ar  129  PHE129     -0.0042
     22  CD2       27.2860   17.3380   49.1160 C.ar  129  PHE129     -0.0042
     23  CE1       29.0740   17.3190   46.9960 C.ar  129  PHE129     -0.0003
     24  CE2       26.8170   17.2210   47.8070 C.ar  129  PHE129     -0.0003
     25  CZ        27.7070   17.2130   46.7470 C.ar  129  PHE129     -0.0000
     26  N         24.4950   15.6560   51.4080 N.3   137  GLY137     -0.1210
     27  CA        25.4980   14.6560   51.0610 C.3   137  GLY137      0.1956
     28  C         24.9720   13.2310   51.0570 C.2   137  GLY137      0.2612
     29  O         24.0890   12.8840   51.8390 O.2   137  GLY137     -0.2717
     30  N         25.5250   12.4030   50.1750 N.am  138  ALA138     -0.1965
     31  CA        25.1370   11.0000   50.0660 C.3   138  ALA138      0.1728
     32  C         26.2970   10.0610   50.4030 C.2   138  ALA138      0.2616
     33  O         26.3250    8.9180   49.9570 O.2   138  ALA138     -0.2715
     34  CB        24.6170   10.7130   48.6600 C.3   138  ALA138      0.0334
     35  N         27.2550   10.5260   51.1980 N.am  139  PHE139     -0.1974
     36  CA        28.4600    9.7230   51.3880 C.3   139  PHE139      0.1639
     37  C         28.2760    8.5850   52.3820 C.2   139  PHE139      0.2290
     38  O         29.0890    7.6580   52.4140 O.2   139  PHE139     -0.2864
     39  CB        29.6330   10.5860   51.8280 C.3   139  PHE139      0.0560
     40  CG        29.9500   11.6800   50.8520 C.ar  139  PHE139     -0.0200
     41  CD1       30.5150   11.3770   49.6180 C.ar  139  PHE139     -0.0042
     42  CD2       29.7390   13.0080   51.1830 C.ar  139  PHE139     -0.0042
     43  CE1       30.8040   12.3590   48.7040 C.ar  139  PHE139     -0.0003
     44  CE2       30.0430   14.0170   50.2730 C.ar  139  PHE139     -0.0003
     45  CZ        30.5880   13.6940   49.0260 C.ar  139  PHE139     -0.0000
     46  N         28.9280    3.0790   49.4580 N.3   163  TYR163     -0.1241
     47  CA        28.8720    3.5670   48.0800 C.3   163  TYR163      0.1605
     48  C         30.2780    3.5020   47.4670 C.2   163  TYR163      0.2264
     49  O         30.4290    3.4140   46.2780 O.2   163  TYR163     -0.2867
     50  CB        28.3300    5.0130   47.9880 C.3   163  TYR163      0.0534
     51  CG        29.4310    6.0350   48.1210 C.ar  163  TYR163     -0.0201
     52  CD1       30.0730    6.5250   47.0110 C.ar  163  TYR163     -0.0009
     53  CD2       29.8820    6.4340   49.3570 C.ar  163  TYR163     -0.0009
     54  CE1       31.1120    7.4100   47.1220 C.ar  163  TYR163      0.0417
     55  CE2       30.9280    7.3330   49.4840 C.ar  163  TYR163      0.0417
     56  CZ        31.5390    7.8160   48.3550 C.ar  163  TYR163      0.1957
     57  OH        32.5800    8.6790   48.4410 O.3   163  TYR163     -0.2866
     58  N         21.5830    8.2590   43.0400 N.3   354  ALA354     -0.1245
     59  CA        21.9000    8.5230   44.4400 C.3   354  ALA354      0.1562
     60  C         20.7910    9.3600   45.0840 C.2   354  ALA354      0.2260
     61  O         20.0810   10.0990   44.4050 O.2   354  ALA354     -0.2867
     62  CB        23.2650    9.2360   44.5510 C.3   354  ALA354      0.0290
     63  N         20.6790   12.0960   46.6460 N.3   356  ASN356     -0.1240
     64  CA        20.7120   13.5560   46.4970 C.3   356  ASN356      0.1653
     65  C         20.6290   13.9790   45.0360 C.2   356  ASN356      0.2266
     66  O         20.7560   15.1570   44.7200 O.2   356  ASN356     -0.2867
     67  CB        21.9630   14.1540   47.1670 C.3   356  ASN356      0.1155
     68  CG        23.2590   13.7160   46.5150 C.2   356  ASN356      0.2627
     69  OD1       23.2650   12.9340   45.5650 O.2   356  ASN356     -0.2716
     70  ND2       24.3770   14.1490   47.0990 N.am  356  ASN356     -0.0877
     71  N         22.5810   13.5620   42.4760 N.3   358  THR358     -0.1218
     72  CA        23.7630   14.1420   41.8180 C.3   358  THR358      0.1862
     73  C         24.5360   13.1260   41.0070 C.2   358  THR358      0.2287
     74  O         25.3760   13.4960   40.1760 O.2   358  THR358     -0.2866
     75  CB        24.7810   14.7450   42.8250 C.3   358  THR358      0.1770
     76  OG1       25.2780   13.7140   43.6810 O.3   358  THR358     -0.2211
     77  CG2       24.1420   15.8450   43.6700 C.3   358  THR358      0.0375
     78  N         29.9890    4.7740   37.4440 N.3   373  LEU373     -0.1245
     79  CA        29.3890    5.9800   38.0190 C.3   373  LEU373      0.1561
     80  C         29.4010    7.1210   37.0100 C.2   373  LEU373      0.2260
     81  O         30.3920    7.3220   36.3190 O.2   373  LEU373     -0.2867
     82  CB        30.1540    6.4110   39.2750 C.3   373  LEU373      0.0270
     83  CG        30.0780    5.4640   40.4700 C.3   373  LEU373      0.0019
     84  CD1       31.0650    5.9060   41.5300 C.3   373  LEU373      0.0001
     85  CD2       28.6520    5.4670   41.0270 C.3   373  LEU373      0.0001
     86  N         21.0190    2.1370   44.3560 N.3   396  TRP396     -0.1241
     87  CA        21.6560    3.0300   45.3160 C.3   396  TRP396      0.1605
     88  C         20.6950    3.1010   46.5280 C.2   396  TRP396      0.2264
     89  O         19.4790    3.2470   46.3340 O.2   396  TRP396     -0.2867
     90  CB        21.8340    4.4580   44.7900 C.3   396  TRP396      0.0550
     91  CG        23.0080    5.1160   45.4270 C.ar  396  TRP396      0.0003
     92  CD1       23.1440    5.4780   46.7220 C.ar  396  TRP396      0.0946
     93  CD2       24.0880    5.7560   44.7230 C.ar  396  TRP396      0.0152
     94  NE1       24.3440    6.1430   46.9100 N.ar  396  TRP396     -0.2442
     95  CE2       24.9230    6.3520   45.6890 C.ar  396  TRP396      0.0810
     96  CE3       24.4500    5.8380   43.3700 C.ar  396  TRP396      0.0012
     97  CZ2       26.1060    7.0090   45.3520 C.ar  396  TRP396      0.0191
     98  CZ3       25.6360    6.4940   43.0370 C.ar  396  TRP396      0.0001
     99  CH2       26.4450    7.0680   44.0250 C.ar  396  TRP396      0.0015
@<TRIPOS>BOND
     1    81    80    2
     2    80    79    1
     3    78    79    1
     4    79    82    1
     5    82    83    1
     6    74    73    2
     7    83    85    1
     8    83    84    1
     9    73    72    1
    10    72    71    1
    11    72    75    1
    12    12    11    2
    13    75    77    1
    14    75    76    1
    15    11    10    1
    16    98    96   ar
    17    98    99   ar
    18    58    59    1
    19     4     3    2
    20    96    93   ar
    21     3     2    1
    22     3     9   am
    23    99    97   ar
    24    10     9    1
    25    10    13    1
    26     2     1    1
    27     2     5    1
    28    86    87    1
    29    61    60    2
    30    59    62    1
    31    59    60    1
    32     7     6    2
    33    66    65    2
    34    93    91   ar
    35    93    95   ar
    36    90    87    1
    37    90    91    1
    38    65    64    1
    39    14    13    1
    40     5     6    1
    41    87    88    1
    42    97    95   ar
    43     6     8   am
    44    91    92   ar
    45    69    68    2
    46    95    94   ar
    47    49    48    2
    48    89    88    2
    49    64    63    1
    50    64    67    1
    51    68    70   am
    52    68    67    1
    53    92    94   ar
    54    25    23   ar
    55    25    24   ar
    56    23    21   ar
    57    52    54   ar
    58    52    51   ar
    59    54    56   ar
    60    48    47    1
    61    24    22   ar
    62    50    47    1
    63    50    51    1
    64    47    46    1
    65    51    53   ar
    66    21    20   ar
    67    56    57    1
    68    56    55   ar
    69    34    31    1
    70    43    45   ar
    71    43    41   ar
    72    45    44   ar
    73    22    20   ar
    74    53    55   ar
    75    20    19    1
    76    41    40   ar
    77    33    32    2
    78    31    30    1
    79    31    32    1
    80    30    28   am
    81    44    42   ar
    82    18    17    2
    83    32    35   am
    84    19    16    1
    85    40    42   ar
    86    40    39    1
    87    28    27    1
    88    28    29    2
    89    27    26    1
    90    35    36    1
    91    17    16    1
    92    16    15    1
    93    36    39    1
    94    36    37    1
    95    37    38    2
