@<TRIPOS>MOLECULE
tmp/4px1A00.pdb
 96 93 0 0 0
SMALL
GASTEIGER

@<TRIPOS>ATOM
      1  N          1.1810   16.8130   -5.3890 N.3     8  ASN8       -0.1240
      2  CA         0.3050   17.1880   -6.5010 C.3     8  ASN8        0.1653
      3  C          1.1730   17.1370   -7.7430 C.2     8  ASN8        0.2266
      4  O          2.3620   17.4750   -7.6720 O.2     8  ASN8       -0.2867
      5  CB        -0.2180   18.6080   -6.2690 C.3     8  ASN8        0.1155
      6  CG        -0.8850   19.2100   -7.4950 C.2     8  ASN8        0.2627
      7  OD1       -0.3180   20.0810   -8.1680 O.2     8  ASN8       -0.2716
      8  ND2       -2.0850   18.7590   -7.7800 N.am    8  ASN8       -0.0877
      9  N          1.3040   19.0080  -10.4350 N.3    10  ARG10      -0.1231
     10  CA         1.7190   20.2570  -11.0670 C.3    10  ARG10       0.1694
     11  C          2.6140   21.1290  -10.1800 C.2    10  ARG10       0.2593
     12  O          3.4400   21.8710  -10.6950 O.2    10  ARG10      -0.2718
     13  CB         0.4870   21.0510  -11.4970 C.3    10  ARG10       0.0321
     14  CG         0.7550   22.2010  -12.4710 C.3    10  ARG10       0.0489
     15  CD        -0.5690   22.7900  -12.9680 C.3    10  ARG10       0.2205
     16  NE        -1.3500   23.2200  -11.8260 N.pl3  10  ARG10      -0.0865
     17  CZ        -2.6680   23.1040  -11.6760 C.cat  10  ARG10       0.5346
     18  NH1       -3.2030   23.4980  -10.5330 N.pl3  10  ARG10       0.1354
     19  NH2       -3.4420   22.5900  -12.6370 N.pl3  10  ARG10       0.1354
     20  N          2.3990   21.0340   -8.8700 N.am   11  SER11      -0.1938
     21  CA         3.0340   21.9050   -7.8650 C.3    11  SER11       0.2055
     22  C          4.5500   21.9740   -8.0150 C.2    11  SER11       0.2642
     23  O          5.2330   20.9540   -7.9270 O.2    11  SER11      -0.2714
     24  CB         2.6650   21.4070   -6.4710 C.3    11  SER11       0.2130
     25  OG         3.4950   21.9770   -5.4630 O.3    11  SER11      -0.2179
     26  N          5.0750   23.1750   -8.2100 N.am   12  ALA12      -0.1977
     27  CA         6.5230   23.3890   -8.2290 C.3    12  ALA12       0.1597
     28  C          7.1520   23.1040   -6.8820 C.2    12  ALA12       0.2287
     29  O          8.2540   22.5770   -6.8250 O.2    12  ALA12      -0.2864
     30  CB         6.8630   24.8040   -8.6290 C.3    12  ALA12       0.0319
     31  N         -5.5310   19.8060   -6.3500 N.3    35  LEU35      -0.1245
     32  CA        -5.6040   21.1520   -5.8000 C.3    35  LEU35       0.1561
     33  C         -6.6220   22.0580   -6.5070 C.2    35  LEU35       0.2260
     34  O         -7.0360   23.0780   -5.9500 O.2    35  LEU35      -0.2867
     35  CB        -4.2190   21.7940   -5.7920 C.3    35  LEU35       0.0270
     36  CG        -3.1890   21.0330   -4.9420 C.3    35  LEU35       0.0019
     37  CD1       -1.8580   21.7790   -4.9480 C.3    35  LEU35       0.0001
     38  CD2       -3.7040   20.8220   -3.5230 C.3    35  LEU35       0.0001
     39  N          7.5540   32.3480   -7.7460 N.3   107  HIS107     -0.1241
     40  CA         6.5540   31.3030   -7.6230 C.3   107  HIS107      0.1621
     41  C          5.2850   31.6410   -6.8110 C.2   107  HIS107      0.2264
     42  O          4.1790   31.3210   -7.2240 O.2   107  HIS107     -0.2867
     43  CB         7.2350   30.0480   -7.0840 C.3   107  HIS107      0.0745
     44  CG         6.2890   28.9450   -6.7700 C.ar  107  HIS107      0.0817
     45  ND1        6.0780   28.4980   -5.4880 N.ar  107  HIS107     -0.2268
     46  CD2        5.4770   28.2130   -7.5670 C.ar  107  HIS107      0.1154
     47  CE1        5.1880   27.5260   -5.5060 C.ar  107  HIS107      0.1986
     48  NE2        4.8180   27.3260   -6.7560 N.ar  107  HIS107     -0.2212
     49  N          2.2160   32.9970   -8.7260 N.3   110  TYR110     -0.1227
     50  CA         1.4600   32.2210   -9.7300 C.3   110  TYR110      0.1736
     51  C          0.7950   30.9410   -9.2180 C.2   110  TYR110      0.2595
     52  O          0.2520   30.1740  -10.0040 O.2   110  TYR110     -0.2718
     53  CB         2.2970   31.9950  -11.0080 C.3   110  TYR110      0.0548
     54  CG         3.4850   31.0310  -10.9730 C.ar  110  TYR110     -0.0200
     55  CD1        3.3070   29.6600  -11.0910 C.ar  110  TYR110     -0.0009
     56  CD2        4.7860   31.5070  -10.9480 C.ar  110  TYR110     -0.0009
     57  CE1        4.3930   28.7890  -11.1030 C.ar  110  TYR110      0.0417
     58  CE2        5.8720   30.6490  -10.9500 C.ar  110  TYR110      0.0417
     59  CZ         5.6670   29.2870  -11.0330 C.ar  110  TYR110      0.1957
     60  OH         6.7400   28.4300  -11.0480 O.3   110  TYR110     -0.2866
     61  N          0.7910   30.7360   -7.9040 N.am  111  VAL111     -0.1966
     62  CA         0.1010   29.6080   -7.2970 C.3   111  VAL111      0.1712
     63  C         -1.4150   29.6670   -7.5320 C.2   111  VAL111      0.2458
     64  O         -1.9730   30.7500   -7.7760 O.2   111  VAL111     -0.2730
     65  CB         0.4060   29.4630   -5.7820 C.3   111  VAL111      0.0289
     66  CG1        1.9010   29.1950   -5.5650 C.3   111  VAL111      0.0023
     67  CG2       -0.0760   30.6880   -4.9830 C.3   111  VAL111      0.0023
     68  N         -2.0900   28.5100   -7.4680 N.am  112  PRO112     -0.2727
     69  CA        -3.5220   28.4860   -7.8010 C.3   112  PRO112      0.1402
     70  C         -4.3800   29.4810   -6.9990 C.2   112  PRO112      0.2269
     71  O         -5.3090   30.0470   -7.5440 O.2   112  PRO112     -0.2865
     72  CB        -3.9320   27.0390   -7.5000 C.3   112  PRO112      0.0296
     73  CG        -2.6880   26.2570   -7.6830 C.3   112  PRO112      0.0237
     74  CD        -1.5610   27.1460   -7.2310 C.3   112  PRO112      0.0939
     75  N         -4.2120   32.8250   -8.7360 N.3   115  ARG115     -0.1245
     76  CA        -4.9130   32.7690  -10.0240 C.3   115  ARG115      0.1563
     77  C         -6.4240   32.8740   -9.8330 C.2   115  ARG115      0.2260
     78  O         -7.1120   33.6090  -10.5580 O.2   115  ARG115     -0.2867
     79  CB        -4.5570   31.4790  -10.7730 C.3   115  ARG115      0.0307
     80  CG        -3.0640   31.2880  -11.0190 C.3   115  ARG115      0.0489
     81  CD        -2.8100   30.3910  -12.2250 C.3   115  ARG115      0.2205
     82  NE        -3.2890   29.0210  -12.0250 N.pl3 115  ARG115     -0.0865
     83  CZ        -2.5800   28.0220  -11.4900 C.cat 115  ARG115      0.5346
     84  NH1       -3.1150   26.8110  -11.3880 N.pl3 115  ARG115      0.1354
     85  NH2       -1.3460   28.2190  -11.0370 N.pl3 115  ARG115      0.1354
     86  N          2.8440   26.4560  -18.5760 N.3   180  PHE180     -0.1241
     87  CA         2.0680   27.6960  -18.7070 C.3   180  PHE180      0.1605
     88  C          2.3450   28.4810  -19.9930 C.2   180  PHE180      0.2264
     89  O          1.7440   29.5250  -20.2090 O.2   180  PHE180     -0.2867
     90  CB         2.2650   28.5760  -17.4700 C.3   180  PHE180      0.0534
     91  CG         1.7370   27.9640  -16.2110 C.ar  180  PHE180     -0.0203
     92  CD1        0.3720   27.9290  -15.9560 C.ar  180  PHE180     -0.0042
     93  CD2        2.6050   27.4220  -15.2700 C.ar  180  PHE180     -0.0042
     94  CE1       -0.1140   27.3650  -14.7880 C.ar  180  PHE180     -0.0003
     95  CE2        2.1250   26.8570  -14.1050 C.ar  180  PHE180     -0.0003
     96  CZ         0.7670   26.8240  -13.8600 C.ar  180  PHE180     -0.0000
@<TRIPOS>BOND
     1    89    88    2
     2    88    87    1
     3    87    86    1
     4    87    90    1
     5    90    91    1
     6    91    92   ar
     7    91    93   ar
     8    92    94   ar
     9    93    95   ar
    10    94    96   ar
    11    95    96   ar
    12    15    14    1
    13    15    16    1
    14    19    17    1
    15    14    13    1
    16    81    82    1
    17    81    80    1
    18    82    83    2
    19    16    17    2
    20    17    18    1
    21    13    10    1
    22    83    84    1
    23    83    85    1
    24    57    55   ar
    25    57    59   ar
    26    55    54   ar
    27    10     9    1
    28    10    11    1
    29    60    59    1
    30    59    58   ar
    31    80    79    1
    32    53    54    1
    33    53    50    1
    34    54    56   ar
    35    58    56   ar
    36    79    76    1
    37    12    11    2
    38    78    77    2
    39    11    20   am
    40    76    77    1
    41    76    75    1
    42    52    51    2
    43    50    51    1
    44    50    49    1
    45    51    61   am
    46    20    21    1
    47    30    27    1
    48    27    26    1
    49    27    28    1
    50    26    22   am
    51     7     6    2
    52    22    23    2
    53    22    21    1
    54    61    62    1
    55    21    24    1
    56    69    72    1
    57    69    68    1
    58    69    70    1
    59     8     6   am
    60    64    63    2
    61    39    40    1
    62     3     4    2
    63     3     2    1
    64    73    72    1
    65    73    74    1
    66    40    43    1
    67    40    41    1
    68    46    44   ar
    69    46    48   ar
    70    71    70    2
    71    63    68   am
    72    63    62    1
    73     6     5    1
    74    68    74    1
    75    62    65    1
    76    42    41    2
    77    43    44    1
    78    28    29    2
    79    44    45   ar
    80    48    47   ar
    81    33    34    2
    82    33    32    1
    83     2     5    1
    84     2     1    1
    85    24    25    1
    86    31    32    1
    87    32    35    1
    88    35    36    1
    89    65    66    1
    90    65    67    1
    91    47    45   ar
    92    37    36    1
    93    36    38    1
