@<TRIPOS>MOLECULE
tmp/4px3A00.pdb
 189 182 0 0 0
SMALL
GASTEIGER

@<TRIPOS>ATOM
      1  N         37.9720  -22.0500   -4.9430 N.3     9  HIS9       -0.1226
      2  CA        38.2540  -21.0080   -5.9510 C.3     9  HIS9        0.1752
      3  C         37.3480  -20.9920   -7.1890 C.2     9  HIS9        0.2596
      4  O         37.4460  -20.0700   -8.0010 O.2     9  HIS9       -0.2718
      5  CB        39.7010  -21.1660   -6.4310 C.3     9  HIS9        0.0759
      6  CG        39.9200  -22.4090   -7.2390 C.ar    9  HIS9        0.0818
      7  ND1       40.2650  -23.6160   -6.6710 N.ar    9  HIS9       -0.2268
      8  CD2       39.7530  -22.6490   -8.5630 C.ar    9  HIS9        0.1154
      9  CE1       40.3250  -24.5420   -7.6140 C.ar    9  HIS9        0.1986
     10  NE2       40.0150  -23.9800   -8.7710 N.ar    9  HIS9       -0.2212
     11  N         36.4670  -21.9780   -7.3720 N.am   10  VAL10      -0.1966
     12  CA        35.6190  -21.9810   -8.5780 C.3    10  VAL10       0.1727
     13  C         34.5000  -20.9800   -8.4060 C.2    10  VAL10       0.2616
     14  O         33.8770  -20.9610   -7.3830 O.2    10  VAL10      -0.2715
     15  CB        35.0530  -23.3910   -8.8860 C.3    10  VAL10       0.0290
     16  CG1       34.1940  -23.3970  -10.1550 C.3    10  VAL10       0.0023
     17  CG2       36.1920  -24.3970   -9.0360 C.3    10  VAL10       0.0023
     18  N         34.2340  -20.1650   -9.4130 N.am   11  ILE11      -0.1977
     19  CA        33.1260  -19.1910   -9.3890 C.3    11  ILE11       0.1596
     20  C         31.8310  -19.8660   -9.8160 C.2    11  ILE11       0.2287
     21  O         31.8390  -20.6570  -10.7460 O.2    11  ILE11      -0.2864
     22  CB        33.3380  -18.0240  -10.3970 C.3    11  ILE11       0.0276
     23  CG1       34.6820  -17.3300  -10.1970 C.3    11  ILE11       0.0022
     24  CG2       32.2290  -16.9820  -10.2730 C.3    11  ILE11       0.0022
     25  CD1       34.8960  -16.8020   -8.7910 C.3    11  ILE11       0.0001
     26  N         31.5440  -12.7540  -13.5110 N.3    24  TYR24      -0.1241
     27  CA        32.2390  -13.9850  -13.8710 C.3    24  TYR24       0.1605
     28  C         33.1270  -13.6930  -15.1010 C.2    24  TYR24       0.2264
     29  O         34.3090  -14.0450  -15.0910 O.2    24  TYR24      -0.2867
     30  CB        31.2410  -15.0780  -14.1930 C.3    24  TYR24       0.0534
     31  CG        31.7760  -16.4310  -14.6320 C.ar   24  TYR24      -0.0201
     32  CD1       32.2380  -16.6440  -15.9270 C.ar   24  TYR24      -0.0009
     33  CD2       31.7530  -17.5050  -13.7790 C.ar   24  TYR24      -0.0009
     34  CE1       32.6880  -17.8960  -16.3500 C.ar   24  TYR24       0.0417
     35  CE2       32.1830  -18.7520  -14.1840 C.ar   24  TYR24       0.0417
     36  CZ        32.6600  -18.9420  -15.4740 C.ar   24  TYR24       0.1957
     37  OH        33.0880  -20.1920  -15.8720 O.3    24  TYR24      -0.2866
     38  N         36.4070  -12.1560  -14.5230 N.3    27  ALA27      -0.1231
     39  CA        37.3810  -13.0510  -13.9450 C.3    27  ALA27       0.1694
     40  C         38.0210  -14.0680  -14.9170 C.2    27  ALA27       0.2592
     41  O         39.0540  -14.6560  -14.5690 O.2    27  ALA27      -0.2718
     42  CB        36.7390  -13.7950  -12.7980 C.3    27  ALA27       0.0304
     43  N         37.4330  -14.2840  -16.0980 N.am   28  VAL28      -0.1966
     44  CA        38.0050  -15.2390  -17.0760 C.3    28  VAL28       0.1712
     45  C         39.3040  -14.6570  -17.5330 C.2    28  VAL28       0.2458
     46  O         39.3180  -13.5500  -18.0670 O.2    28  VAL28      -0.2730
     47  CB        37.0800  -15.4800  -18.2850 C.3    28  VAL28       0.0289
     48  CG1       37.6820  -16.4790  -19.2930 C.3    28  VAL28       0.0023
     49  CG2       35.7150  -15.9990  -17.7970 C.3    28  VAL28       0.0023
     50  N         40.4240  -15.3590  -17.2880 N.am   29  PRO29      -0.2727
     51  CA        41.7120  -14.8240  -17.8040 C.3    29  PRO29       0.1402
     52  C         41.6640  -14.5650  -19.3110 C.2    29  PRO29       0.2269
     53  O         40.9890  -15.3140  -20.0580 O.2    29  PRO29      -0.2865
     54  CB        42.7180  -15.9160  -17.4360 C.3    29  PRO29       0.0296
     55  CG        42.0830  -16.6570  -16.2620 C.3    29  PRO29       0.0237
     56  CD        40.6010  -16.5730  -16.4660 C.3    29  PRO29       0.0939
     57  N         43.7380  -15.1910  -21.5340 N.3    31  THR31      -0.1203
     58  CA        44.2640  -16.3300  -22.2840 C.3    31  THR31       0.1994
     59  C         43.2460  -17.4560  -22.3730 C.2    31  THR31       0.2617
     60  O         43.3840  -18.3140  -23.1840 O.2    31  THR31      -0.2717
     61  CB        45.5680  -16.8490  -21.6560 C.3    31  THR31       0.1784
     62  OG1       45.3490  -17.3310  -20.3230 O.3    31  THR31      -0.2211
     63  CG2       46.5580  -15.7330  -21.5990 C.3    31  THR31       0.0376
     64  N         42.2500  -17.4710  -21.4910 N.am   32  GLU32      -0.1979
     65  CA        41.1590  -18.4340  -21.5850 C.3    32  GLU32       0.1602
     66  C         39.8840  -17.8540  -22.2130 C.2    32  GLU32       0.2287
     67  O         38.9600  -18.5720  -22.4580 O.2    32  GLU32      -0.2864
     68  CB        40.8550  -19.0010  -20.2000 C.3    32  GLU32       0.0415
     69  CG        42.0070  -19.7680  -19.5680 C.3    32  GLU32       0.1163
     70  CD        42.3100  -21.1600  -20.1720 C.2    32  GLU32       0.3649
     71  OE1       41.4000  -21.9550  -20.4790 O.co2  32  GLU32      -0.2457
     72  OE2       43.4880  -21.4800  -20.3710 O.co2  32  GLU32      -0.2457
     73  N         49.7930  -18.2050  -19.6970 N.3   179  GLY179     -0.1225
     74  CA        48.6450  -17.9950  -18.8630 C.3   179  GLY179      0.1811
     75  C         49.0030  -17.6410  -17.4510 C.2   179  GLY179      0.2280
     76  O         48.1070  -17.4380  -16.6540 O.2   179  GLY179     -0.2866
     77  N         50.5010  -19.5560  -15.2260 N.3   181  SER181     -0.1217
     78  CA        49.7120  -20.6940  -14.9910 C.3   181  SER181      0.1889
     79  C         50.5230  -21.9120  -14.5400 C.2   181  SER181      0.2288
     80  O         50.0240  -22.6600  -13.7010 O.2   181  SER181     -0.2866
     81  CB        48.9590  -21.0370  -16.2870 C.3   181  SER181      0.2089
     82  OG        48.5170  -22.3660  -16.2310 O.3   181  SER181     -0.2183
     83  N         44.8350  -12.0220  -12.8140 N.3   211  MET211     -0.1230
     84  CA        44.1740  -13.2250  -13.3600 C.3   211  MET211      0.1702
     85  C         45.0710  -14.4450  -13.3730 C.2   211  MET211      0.2592
     86  O         44.7020  -15.4760  -13.8930 O.2   211  MET211     -0.2718
     87  CB        43.7350  -12.9700  -14.7960 C.3   211  MET211      0.0401
     88  CG        42.4860  -12.1310  -14.9670 C.3   211  MET211      0.0596
     89  SD        42.5500  -11.3540  -16.6330 S.3   211  MET211     -0.1393
     90  CE        40.9150  -10.6430  -16.7330 C.3   211  MET211      0.0692
     91  N         46.2880  -14.3140  -12.8720 N.am  212  ALA212     -0.1966
     92  CA        47.1510  -15.4370  -12.6780 C.3   212  ALA212      0.1728
     93  C         46.4100  -16.5240  -11.9330 C.2   212  ALA212      0.2616
     94  O         45.5640  -16.2350  -11.0950 O.2   212  ALA212     -0.2715
     95  CB        48.3240  -14.9910  -11.8510 C.3   212  ALA212      0.0334
     96  N         46.7430  -17.7790  -12.2020 N.am  213  ARG213     -0.1963
     97  CA        46.1980  -18.8860  -11.4000 C.3   213  ARG213      0.1729
     98  C         46.3540  -18.7390   -9.8890 C.2   213  ARG213      0.2616
     99  O         47.4450  -18.3900   -9.4050 O.2   213  ARG213     -0.2715
    100  CB        46.8120  -20.1950  -11.8160 C.3   213  ARG213      0.0348
    101  CG        46.1860  -20.6200  -13.1130 C.3   213  ARG213      0.0492
    102  CD        46.6270  -21.9470  -13.5880 C.3   213  ARG213      0.2205
    103  NE        46.2080  -23.0340  -12.7100 N.pl3 213  ARG213     -0.0865
    104  CZ        46.5370  -24.2990  -12.9370 C.cat 213  ARG213      0.5346
    105  NH1       47.2770  -24.6060  -14.0030 N.pl3 213  ARG213      0.1354
    106  NH2       46.1310  -25.2580  -12.1130 N.pl3 213  ARG213      0.1354
    107  N         45.2500  -19.0120   -9.1710 N.am  214  ASN214     -0.1958
    108  CA        45.1930  -18.9420   -7.7180 C.3   214  ASN214      0.1819
    109  C         44.6650  -20.2150   -7.0690 C.2   214  ASN214      0.2621
    110  O         44.2020  -20.1510   -5.9750 O.2   214  ASN214     -0.2715
    111  CB        44.3460  -17.7280   -7.2830 C.3   214  ASN214      0.1195
    112  CG        44.6290  -17.2880   -5.8420 C.2   214  ASN214      0.2630
    113  OD1       45.7680  -17.2570   -5.3770 O.2   214  ASN214     -0.2716
    114  ND2       43.5750  -16.9350   -5.1340 N.am  214  ASN214     -0.0877
    115  N         44.7530  -21.3560   -7.7370 N.am  215  ASP215     -0.1971
    116  CA        44.3330  -22.6250   -7.2030 C.3   215  ASP215      0.1709
    117  C         45.5930  -23.2590   -6.6560 C.2   215  ASP215      0.2293
    118  O         46.6690  -22.9140   -7.1110 O.2   215  ASP215     -0.2864
    119  CB        43.6740  -23.5310   -8.2880 C.3   215  ASP215      0.1436
    120  CG        44.6490  -23.9830   -9.4090 C.2   215  ASP215      0.3671
    121  OD1       45.4870  -23.1400   -9.7690 O.co2 215  ASP215     -0.2456
    122  OD2       44.5510  -25.1320   -9.9780 O.co2 215  ASP215     -0.2456
    123  N         49.5720  -16.8290   -8.5570 N.3   225  ARG225     -0.1245
    124  CA        49.2050  -15.4230   -8.3040 C.3   225  ARG225      0.1563
    125  C         50.0010  -14.7620   -7.2210 C.2   225  ARG225      0.2260
    126  O         50.3100  -13.5930   -7.3520 O.2   225  ARG225     -0.2867
    127  CB        47.7740  -15.3070   -7.9320 C.3   225  ARG225      0.0307
    128  CG        47.2590  -13.8800   -8.0210 C.3   225  ARG225      0.0489
    129  CD        45.9910  -13.9390   -8.8110 C.3   225  ARG225      0.2205
    130  NE        44.8160  -13.8180   -8.0430 N.pl3 225  ARG225     -0.0865
    131  CZ        43.6030  -14.1980   -8.4430 C.cat 225  ARG225      0.5346
    132  NH1       43.3710  -14.8590   -9.5820 N.pl3 225  ARG225      0.1354
    133  NH2       42.6030  -13.9560   -7.6110 N.pl3 225  ARG225      0.1354
    134  N         45.3220  -27.4160  -15.4720 N.3   493  LYS493     -0.1245
    135  CA        44.7730  -26.3150  -16.2730 C.3   493  LYS493      0.1561
    136  C         43.6420  -26.7650  -17.1960 C.2   493  LYS493      0.2260
    137  O         42.6000  -26.1170  -17.2760 O.2   493  LYS493     -0.2867
    138  CB        45.8680  -25.6120  -17.0740 C.3   493  LYS493      0.0271
    139  CG        45.3590  -24.5600  -18.0540 C.3   493  LYS493      0.0035
    140  CD        46.4850  -23.7440  -18.6940 C.3   493  LYS493      0.0206
    141  CE        47.2800  -24.5870  -19.6840 C.3   493  LYS493      0.1093
    142  NZ        48.5000  -23.8500  -20.0340 N.3   493  LYS493     -0.1314
    143  N         40.5170  -27.4490  -15.4140 N.3   496  TRP496     -0.1227
    144  CA        39.6950  -26.2640  -15.2020 C.3   496  TRP496      0.1737
    145  C         39.0350  -25.7560  -16.4410 C.2   496  TRP496      0.2595
    146  O         37.9100  -25.2220  -16.3520 O.2   496  TRP496     -0.2718
    147  CB        40.4920  -25.1230  -14.5590 C.3   496  TRP496      0.0564
    148  CG        41.1050  -25.5210  -13.2800 C.ar  496  TRP496      0.0003
    149  CD1       42.4030  -25.4900  -12.9710 C.ar  496  TRP496      0.0946
    150  CD2       40.4270  -26.0540  -12.1480 C.ar  496  TRP496      0.0152
    151  NE1       42.6050  -25.9510  -11.7040 N.ar  496  TRP496     -0.2442
    152  CE2       41.3990  -26.3130  -11.1720 C.ar  496  TRP496      0.0810
    153  CE3       39.0860  -26.2630  -11.8390 C.ar  496  TRP496      0.0012
    154  CZ2       41.0830  -26.7990   -9.8930 C.ar  496  TRP496      0.0191
    155  CZ3       38.7500  -26.7980  -10.5590 C.ar  496  TRP496      0.0001
    156  CH2       39.7610  -27.0480   -9.6140 C.ar  496  TRP496      0.0015
    157  N         39.7330  -25.8520  -17.5790 N.am  497  ARG497     -0.1980
    158  CA        39.1910  -25.4070  -18.8490 C.3   497  ARG497      0.1597
    159  C         37.9530  -26.2400  -19.1670 C.2   497  ARG497      0.2287
    160  O         36.9450  -25.7110  -19.6500 O.2   497  ARG497     -0.2864
    161  CB        40.2350  -25.5320  -19.9900 C.3   497  ARG497      0.0334
    162  CG        39.7830  -24.9890  -21.3560 C.3   497  ARG497      0.0492
    163  CD        40.8860  -25.0310  -22.3910 C.3   497  ARG497      0.2205
    164  NE        42.0210  -24.2060  -21.9410 N.pl3 497  ARG497     -0.0865
    165  CZ        43.2940  -24.3250  -22.3590 C.cat 497  ARG497      0.5346
    166  NH1       43.6380  -25.2540  -23.2390 N.pl3 497  ARG497      0.1354
    167  NH2       44.2510  -23.5230  -21.8750 N.pl3 497  ARG497      0.1354
    168  N         35.9790  -27.8150  -16.9180 N.3   499  LEU499     -0.1231
    169  CA        34.9150  -27.3790  -16.0250 C.3   499  LEU499      0.1693
    170  C         34.2780  -26.0880  -16.5200 C.2   499  LEU499      0.2591
    171  O         33.0750  -25.9810  -16.5400 O.2   499  LEU499     -0.2718
    172  CB        35.4320  -27.2320  -14.6170 C.3   499  LEU499      0.0284
    173  CG        34.4390  -26.7450  -13.5600 C.3   499  LEU499      0.0019
    174  CD1       33.2540  -27.7080  -13.5090 C.3   499  LEU499      0.0001
    175  CD2       35.0970  -26.6700  -12.2010 C.3   499  LEU499      0.0001
    176  N         35.0680  -25.1080  -16.9180 N.am  500  ALA500     -0.1980
    177  CA        34.5220  -23.8670  -17.4770 C.3   500  ALA500      0.1597
    178  C         33.7130  -24.1060  -18.7430 C.2   500  ALA500      0.2287
    179  O         32.6950  -23.4490  -18.9940 O.2   500  ALA500     -0.2864
    180  CB        35.6430  -22.8930  -17.7960 C.3   500  ALA500      0.0319
    181  N         30.2680  -25.2880  -17.4650 N.3   503  GLN503     -0.1245
    182  CA        29.4600  -24.1380  -17.0410 C.3   503  GLN503      0.1566
    183  C         28.9450  -23.3150  -18.2350 C.2   503  GLN503      0.2260
    184  O         27.8110  -22.8570  -18.2220 O.2   503  GLN503     -0.2867
    185  CB        30.2180  -23.2020  -16.1230 C.3   503  GLN503      0.0367
    186  CG        30.9310  -23.8650  -14.9750 C.3   503  GLN503      0.0905
    187  CD        31.5020  -22.8260  -14.0630 C.2   503  GLN503      0.2608
    188  OE1       32.5700  -22.3020  -14.3190 O.2   503  GLN503     -0.2717
    189  NE2       30.7540  -22.4540  -13.0420 N.am  503  GLN503     -0.0878
@<TRIPOS>BOND
     1   166   165    1
     2    60    59    2
     3    67    66    2
     4   163   164    1
     5   163   162    1
     6    59    58    1
     7    59    64   am
     8   165   164    2
     9   165   167    1
    10    58    61    1
    11    58    57    1
    12    66    65    1
    13    61    63    1
    14    61    62    1
    15    65    64    1
    16    65    68    1
    17   162   161    1
    18    71    70   ar
    19    72    70   ar
    20    68    69    1
    21    70    69    1
    22    53    52    2
    23   142   141    1
    24   161   158    1
    25    73    74    1
    26   141   140    1
    27   160   159    2
    28    52    51    1
    29    48    47    1
    30   159   158    1
    31   179   178    2
    32    74    75    1
    33   158   157    1
    34   178   177    1
    35   140   139    1
    36    47    49    1
    37    47    44    1
    38   183   184    2
    39   183   182    1
    40    46    45    2
    41   139   138    1
    42    51    54    1
    43    51    50    1
    44   180   177    1
    45   157   145   am
    46    45    50   am
    47    45    44    1
    48   177   176    1
    49   181   182    1
    50    75    76    2
    51    54    55    1
    52    50    56    1
    53   137   136    2
    54   136   135    1
    55    44    43    1
    56   138   135    1
    57   182   185    1
    58   176   170   am
    59   168   169    1
    60    90    89    1
    61    89    88    1
    62   171   170    2
    63   170   169    1
    64    56    55    1
    65   145   146    2
    66   145   144    1
    67    34    32   ar
    68    34    36   ar
    69    81    82    1
    70    81    78    1
    71   135   134    1
    72   185   186    1
    73    43    40   am
    74   169   172    1
    75    32    31   ar
    76    37    36    1
    77    36    35   ar
    78   143   144    1
    79    77    78    1
    80   144   147    1
    81    28    29    2
    82    28    27    1
    83    78    79    1
    84   186   187    1
    85    88    87    1
    86    40    41    2
    87    40    39    1
    88    87    84    1
    89    31    30    1
    90    31    33   ar
    91   172   173    1
    92   147   148    1
    93    79    80    2
    94    38    39    1
    95   188   187    2
    96    30    27    1
    97    35    33   ar
    98   187   189   am
    99   105   104    1
   100    39    42    1
   101    86    85    2
   102    27    26    1
   103   102   101    1
   104   102   103    1
   105   173   174    1
   106   173   175    1
   107    85    84    1
   108    85    91   am
   109    84    83    1
   110   148   149   ar
   111   148   150   ar
   112   101   100    1
   113   149   151   ar
   114   104   103    2
   115   104   106    1
   116    91    92    1
   117    92    93    1
   118    92    95    1
   119    96    93   am
   120    96    97    1
   121   150   153   ar
   122   150   152   ar
   123    93    94    2
   124   153   155   ar
   125   100    97    1
   126   151   152   ar
   127    97    98    1
   128   152   154   ar
   129    21    20    2
   130   155   156   ar
   131    22    24    1
   132    22    23    1
   133    22    19    1
   134    23    25    1
   135    16    15    1
   136   122   120   ar
   137   154   156   ar
   138    98    99    2
   139    98   107   am
   140    20    19    1
   141   121   120   ar
   142   132   131    1
   143    18    19    1
   144    18    13   am
   145   120   119    1
   146   107   108    1
   147    17    15    1
   148    15    12    1
   149   129   130    1
   150   129   128    1
   151    10     8   ar
   152    10     9   ar
   153    12    13    1
   154    12    11    1
   155     8     6   ar
   156   123   124    1
   157   131   130    2
   158   131   133    1
   159    13    14    2
   160   124   127    1
   161   124   125    1
   162   119   116    1
   163   128   127    1
   164     4     3    2
   165   115   116    1
   166   115   109   am
   167   108   111    1
   168   108   109    1
   169     9     7   ar
   170    11     3   am
   171   126   125    2
   172   111   112    1
   173     6     7   ar
   174     6     5    1
   175   116   117    1
   176     3     2    1
   177   118   117    2
   178   109   110    2
   179     5     2    1
   180     2     1    1
   181   112   113    2
   182   112   114   am
