@<TRIPOS>MOLECULE
tmp/4px5A00.pdb
 235 226 0 0 0
SMALL
GASTEIGER

@<TRIPOS>ATOM
      1  N         37.5000  -22.1490   -4.6060 N.3     9  HIS9       -0.1226
      2  CA        37.9380  -20.9990   -5.3770 C.3     9  HIS9        0.1752
      3  C         37.3870  -20.9880   -6.7900 C.2     9  HIS9        0.2596
      4  O         37.6430  -20.0520   -7.5400 O.2     9  HIS9       -0.2718
      5  CB        39.4710  -20.9220   -5.3760 C.3     9  HIS9        0.0759
      6  CG        40.1190  -22.1620   -5.8690 C.ar    9  HIS9        0.0818
      7  ND1       41.1100  -22.1470   -6.8180 N.ar    9  HIS9       -0.2268
      8  CD2       39.8930  -23.4660   -5.5800 C.ar    9  HIS9        0.1154
      9  CE1       41.4910  -23.3840   -7.0660 C.ar    9  HIS9        0.1986
     10  NE2       40.7620  -24.2030   -6.3350 N.ar    9  HIS9       -0.2212
     11  N         36.5980  -21.9850   -7.1770 N.am   10  VAL10      -0.1966
     12  CA        35.9440  -21.9040   -8.4950 C.3    10  VAL10       0.1727
     13  C         34.8370  -20.8810   -8.4220 C.2    10  VAL10       0.2616
     14  O         34.0340  -20.9240   -7.5470 O.2    10  VAL10      -0.2715
     15  CB        35.3430  -23.2440   -8.8790 C.3    10  VAL10       0.0290
     16  CG1       34.6140  -23.1400  -10.2050 C.3    10  VAL10       0.0023
     17  CG2       36.4320  -24.2990   -8.9470 C.3    10  VAL10       0.0023
     18  N         34.7650  -19.9750   -9.3470 N.am   11  ILE11      -0.1977
     19  CA        33.6660  -19.0320   -9.3350 C.3    11  ILE11       0.1596
     20  C         32.3760  -19.7260   -9.7640 C.2    11  ILE11       0.2287
     21  O         32.3700  -20.5280  -10.7170 O.2    11  ILE11      -0.2864
     22  CB        33.8320  -17.8660  -10.3130 C.3    11  ILE11       0.0276
     23  CG1       35.2650  -17.2490  -10.2990 C.3    11  ILE11       0.0022
     24  CG2       32.7460  -16.8060  -10.0800 C.3    11  ILE11       0.0022
     25  CD1       35.8520  -16.9090   -8.9780 C.3    11  ILE11       0.0001
     26  N         26.1180  -13.0700  -16.8880 N.3    19  TRP19      -0.1241
     27  CA        27.5270  -13.4670  -16.9530 C.3    19  TRP19       0.1605
     28  C         28.4200  -12.2420  -16.8140 C.2    19  TRP19       0.2264
     29  O         29.4740  -12.2690  -16.1340 O.2    19  TRP19      -0.2867
     30  CB        27.8000  -14.2690  -18.2250 C.3    19  TRP19       0.0550
     31  CG        27.2900  -15.6900  -18.1190 C.ar   19  TRP19       0.0003
     32  CD1       25.9980  -16.1220  -18.2660 C.ar   19  TRP19       0.0946
     33  CD2       28.0570  -16.8510  -17.7950 C.ar   19  TRP19       0.0152
     34  NE1       25.9150  -17.4840  -18.0580 N.ar   19  TRP19      -0.2442
     35  CE2       27.1610  -17.9550  -17.7610 C.ar   19  TRP19       0.0810
     36  CE3       29.4190  -17.0730  -17.5360 C.ar   19  TRP19       0.0012
     37  CZ2       27.5870  -19.2510  -17.5140 C.ar   19  TRP19       0.0191
     38  CZ3       29.8400  -18.3660  -17.2590 C.ar   19  TRP19       0.0001
     39  CH2       28.9270  -19.4420  -17.2570 C.ar   19  TRP19       0.0015
     40  N         31.5710  -11.9870  -13.6070 N.3    24  TYR24      -0.1241
     41  CA        32.2040  -13.2570  -13.9770 C.3    24  TYR24       0.1605
     42  C         33.1510  -13.0530  -15.1830 C.2    24  TYR24       0.2264
     43  O         34.3310  -13.4260  -15.1130 O.2    24  TYR24      -0.2867
     44  CB        31.1690  -14.3560  -14.2140 C.3    24  TYR24       0.0534
     45  CG        31.7660  -15.7460  -14.4410 C.ar   24  TYR24      -0.0201
     46  CD1       32.3420  -16.0940  -15.6620 C.ar   24  TYR24      -0.0009
     47  CD2       31.7860  -16.6820  -13.4550 C.ar   24  TYR24      -0.0009
     48  CE1       32.8990  -17.3320  -15.8720 C.ar   24  TYR24       0.0417
     49  CE2       32.3140  -17.9190  -13.6910 C.ar   24  TYR24       0.0417
     50  CZ        32.8710  -18.2360  -14.9100 C.ar   24  TYR24       0.1957
     51  OH        33.4320  -19.5050  -15.1360 O.3    24  TYR24      -0.2866
     52  N         36.4550  -11.7070  -14.3980 N.3    27  ALA27      -0.1231
     53  CA        37.3410  -12.6500  -13.7630 C.3    27  ALA27       0.1694
     54  C         37.9750  -13.7180  -14.6850 C.2    27  ALA27       0.2592
     55  O         38.9390  -14.3340  -14.3000 O.2    27  ALA27      -0.2718
     56  CB        36.5750  -13.3400  -12.6450 C.3    27  ALA27       0.0304
     57  N         37.4340  -13.9550  -15.8750 N.am   28  VAL28      -0.1966
     58  CA        38.0310  -14.9310  -16.7880 C.3    28  VAL28       0.1712
     59  C         39.4330  -14.4240  -17.1600 C.2    28  VAL28       0.2458
     60  O         39.5810  -13.3210  -17.6370 O.2    28  VAL28      -0.2730
     61  CB        37.2110  -15.0930  -18.0730 C.3    28  VAL28       0.0289
     62  CG1       37.7440  -16.2570  -18.9390 C.3    28  VAL28       0.0023
     63  CG2       35.7540  -15.3030  -17.7150 C.3    28  VAL28       0.0023
     64  N         40.4630  -15.2340  -16.9320 N.am   29  PRO29      -0.2727
     65  CA        41.7880  -14.8250  -17.3960 C.3    29  PRO29       0.1402
     66  C         41.8070  -14.5320  -18.8770 C.2    29  PRO29       0.2269
     67  O         41.1380  -15.2350  -19.6660 O.2    29  PRO29      -0.2865
     68  CB        42.6560  -16.0320  -17.0490 C.3    29  PRO29       0.0296
     69  CG        41.9880  -16.5870  -15.8500 C.3    29  PRO29       0.0237
     70  CD        40.5350  -16.4180  -16.0610 C.3    29  PRO29       0.0939
     71  N         43.7700  -15.1180  -21.0850 N.3    31  THR31      -0.1203
     72  CA        44.2440  -16.2710  -21.8230 C.3    31  THR31       0.1994
     73  C         43.2070  -17.3890  -21.9250 C.2    31  THR31       0.2617
     74  O         43.3250  -18.2680  -22.7350 O.2    31  THR31      -0.2717
     75  CB        45.5550  -16.8350  -21.2210 C.3    31  THR31       0.1784
     76  OG1       45.3770  -17.1920  -19.8440 O.3    31  THR31      -0.2211
     77  CG2       46.6220  -15.7930  -21.3230 C.3    31  THR31       0.0376
     78  N         42.1920  -17.3650  -21.0880 N.am   32  GLU32      -0.1979
     79  CA        41.1870  -18.3770  -21.1750 C.3    32  GLU32       0.1602
     80  C         39.9200  -17.8660  -21.8580 C.2    32  GLU32       0.2287
     81  O         38.9900  -18.6470  -22.1100 O.2    32  GLU32      -0.2864
     82  CB        40.8640  -18.8220  -19.7440 C.3    32  GLU32       0.0415
     83  CG        42.0270  -19.5460  -19.0970 C.3    32  GLU32       0.1163
     84  CD        42.3600  -20.9090  -19.7660 C.2    32  GLU32       0.3649
     85  OE1       41.4630  -21.6230  -20.2320 O.co2  32  GLU32      -0.2457
     86  OE2       43.5400  -21.2850  -19.7760 O.co2  32  GLU32      -0.2457
     87  N         36.9690  -16.4790  -24.3200 N.3    34  SER34      -0.1217
     88  CA        36.3770  -16.5380  -25.6450 C.3    34  SER34       0.1889
     89  C         36.6620  -15.2540  -26.4350 C.2    34  SER34       0.2288
     90  O         36.2980  -14.1890  -25.9740 O.2    34  SER34      -0.2866
     91  CB        34.8720  -16.7040  -25.4550 C.3    34  SER34       0.2089
     92  OG        34.2480  -16.8540  -26.6960 O.3    34  SER34      -0.2183
     93  N         49.8090  -18.2040  -19.3630 N.3   179  GLY179     -0.1225
     94  CA        48.6820  -18.0250  -18.4870 C.3   179  GLY179      0.1811
     95  C         49.0300  -17.5700  -17.1090 C.2   179  GLY179      0.2280
     96  O         48.1290  -17.3670  -16.2860 O.2   179  GLY179     -0.2866
     97  N         50.5150  -19.5770  -15.0740 N.3   181  SER181     -0.1217
     98  CA        49.8180  -20.7270  -14.6640 C.3   181  SER181      0.1889
     99  C         50.6580  -21.9350  -14.2500 C.2   181  SER181      0.2288
    100  O         50.2450  -22.6240  -13.3490 O.2   181  SER181     -0.2866
    101  CB        48.9430  -21.1760  -15.8380 C.3   181  SER181      0.2089
    102  OG        48.7420  -22.5450  -15.7790 O.3   181  SER181     -0.2183
    103  N         48.8250  -12.4570  -18.7950 N.3   207  ASN207     -0.1240
    104  CA        47.6970  -12.0180  -17.9680 C.3   207  ASN207      0.1653
    105  C         48.1560  -10.9850  -16.9970 C.2   207  ASN207      0.2266
    106  O         49.2870  -10.9540  -16.6490 O.2   207  ASN207     -0.2867
    107  CB        47.1340  -13.1430  -17.1640 C.3   207  ASN207      0.1155
    108  CG        46.2400  -14.0390  -17.9610 C.2   207  ASN207      0.2627
    109  OD1       45.4140  -13.6010  -18.7980 O.2   207  ASN207     -0.2716
    110  ND2       46.3960  -15.3220  -17.7250 N.am  207  ASN207     -0.0877
    111  N         45.0270  -11.7830  -12.5020 N.3   211  MET211     -0.1230
    112  CA        44.4670  -12.9910  -13.0830 C.3   211  MET211      0.1702
    113  C         45.3660  -14.2190  -13.0660 C.2   211  MET211      0.2592
    114  O         45.0050  -15.2590  -13.6210 O.2   211  MET211     -0.2718
    115  CB        44.0920  -12.7030  -14.5170 C.3   211  MET211      0.0401
    116  CG        42.8680  -11.8260  -14.6050 C.3   211  MET211      0.0596
    117  SD        42.7250  -11.2310  -16.2920 S.3   211  MET211     -0.1393
    118  CE        41.0770  -10.5590  -16.3110 C.3   211  MET211      0.0692
    119  N         46.5380  -14.1240  -12.4710 N.am  212  ALA212     -0.1966
    120  CA        47.3810  -15.3020  -12.3590 C.3   212  ALA212      0.1728
    121  C         46.6410  -16.3560  -11.5920 C.2   212  ALA212      0.2616
    122  O         45.7780  -16.0250  -10.7290 O.2   212  ALA212     -0.2715
    123  CB        48.6550  -14.9410  -11.6270 C.3   212  ALA212      0.0334
    124  N         46.9890  -17.6160  -11.8730 N.am  213  ARG213     -0.1963
    125  CA        46.3970  -18.7170  -11.2140 C.3   213  ARG213      0.1729
    126  C         46.5910  -18.6970   -9.7280 C.2   213  ARG213      0.2616
    127  O         47.7220  -18.5570   -9.2180 O.2   213  ARG213     -0.2715
    128  CB        46.9730  -20.0530  -11.6780 C.3   213  ARG213      0.0348
    129  CG        46.0520  -20.8180  -12.5580 C.3   213  ARG213      0.0492
    130  CD        46.7120  -21.9950  -13.1840 C.3   213  ARG213      0.2205
    131  NE        46.2500  -23.2040  -12.5570 N.pl3 213  ARG213     -0.0865
    132  CZ        46.6070  -24.4190  -12.9300 C.cat 213  ARG213      0.5346
    133  NH1       47.4820  -24.5860  -13.9230 N.pl3 213  ARG213      0.1354
    134  NH2       46.0670  -25.4640  -12.3050 N.pl3 213  ARG213      0.1354
    135  N         45.4960  -19.0090   -9.0440 N.am  214  ASN214     -0.1958
    136  CA        45.5010  -19.0620   -7.6410 C.3   214  ASN214      0.1819
    137  C         45.1490  -20.4400   -7.1590 C.2   214  ASN214      0.2621
    138  O         44.4670  -20.4990   -6.1660 O.2   214  ASN214     -0.2715
    139  CB        44.4730  -18.0270   -7.1180 C.3   214  ASN214      0.1195
    140  CG        44.7830  -17.5320   -5.7160 C.2   214  ASN214      0.2630
    141  OD1       45.9420  -17.4780   -5.2650 O.2   214  ASN214     -0.2716
    142  ND2       43.7360  -17.1560   -5.0110 N.am  214  ASN214     -0.0877
    143  N         45.5300  -21.5420   -7.8250 N.am  215  ASP215     -0.1971
    144  CA        45.1560  -22.8300   -7.2720 C.3   215  ASP215      0.1709
    145  C         46.2790  -23.4590   -6.4870 C.2   215  ASP215      0.2293
    146  O         47.4750  -23.2170   -6.7440 O.2   215  ASP215     -0.2864
    147  CB        44.4730  -23.8530   -8.2690 C.3   215  ASP215      0.1436
    148  CG        45.4090  -24.4930   -9.1990 C.2   215  ASP215      0.3671
    149  OD1       46.4130  -23.8090   -9.4160 O.co2 215  ASP215     -0.2456
    150  OD2       45.1680  -25.6460   -9.7290 O.co2 215  ASP215     -0.2456
    151  N         49.9230  -17.0460   -8.3450 N.3   225  ARG225     -0.1245
    152  CA        49.5970  -15.6440   -8.0520 C.3   225  ARG225      0.1563
    153  C         50.4560  -14.9670   -6.9670 C.2   225  ARG225      0.2260
    154  O         50.9070  -13.7990   -7.1320 O.2   225  ARG225     -0.2867
    155  CB        48.1390  -15.5320   -7.6550 C.3   225  ARG225      0.0307
    156  CG        47.6920  -14.0880   -7.5340 C.3   225  ARG225      0.0489
    157  CD        46.5020  -13.8450   -8.4040 C.3   225  ARG225      0.2205
    158  NE        45.3620  -13.7040   -7.5670 N.pl3 225  ARG225     -0.0865
    159  CZ        44.1270  -14.0340   -7.8540 C.cat 225  ARG225      0.5346
    160  NH1       43.7780  -14.5900   -8.9820 N.pl3 225  ARG225      0.1354
    161  NH2       43.2300  -13.7990   -6.9400 N.pl3 225  ARG225      0.1354
    162  N         39.9450  -20.7180  -27.9040 N.3   253  SER253     -0.1217
    163  CA        40.0230  -20.3710  -26.4600 C.3   253  SER253      0.1889
    164  C         40.9990  -21.2440  -25.7210 C.2   253  SER253      0.2288
    165  O         40.9320  -22.4710  -25.8270 O.2   253  SER253     -0.2866
    166  CB        38.6540  -20.4960  -25.7910 C.3   253  SER253      0.2089
    167  OG        37.6840  -19.7260  -26.5100 O.3   253  SER253     -0.2183
    168  N         35.5850  -22.9270  -28.7550 N.3   483  HIS483     -0.1241
    169  CA        36.1460  -23.8030  -27.7010 C.3   483  HIS483      0.1621
    170  C         36.4650  -25.1870  -28.2130 C.2   483  HIS483      0.2264
    171  O         35.7620  -25.7180  -29.0500 O.2   483  HIS483     -0.2867
    172  CB        35.1390  -23.9320  -26.5670 C.3   483  HIS483      0.0745
    173  CG        34.7750  -22.6320  -25.9220 C.ar  483  HIS483      0.0817
    174  ND1       35.6470  -21.9290  -25.1270 N.ar  483  HIS483     -0.2268
    175  CD2       33.6200  -21.9290  -25.9150 C.ar  483  HIS483      0.1154
    176  CE1       35.0610  -20.8320  -24.6870 C.ar  483  HIS483      0.1986
    177  NE2       33.8180  -20.8300  -25.1160 N.ar  483  HIS483     -0.2212
    178  N         45.4320  -27.5850  -15.1240 N.3   493  LYS493     -0.1245
    179  CA        44.8590  -26.4950  -15.9450 C.3   493  LYS493      0.1561
    180  C         43.7130  -26.9700  -16.8430 C.2   493  LYS493      0.2260
    181  O         42.6380  -26.3500  -16.9440 O.2   493  LYS493     -0.2867
    182  CB        45.9350  -25.8550  -16.8420 C.3   493  LYS493      0.0271
    183  CG        45.3950  -24.7090  -17.6560 C.3   493  LYS493      0.0035
    184  CD        46.5130  -23.9210  -18.3440 C.3   493  LYS493      0.0206
    185  CE        47.2550  -24.7440  -19.4030 C.3   493  LYS493      0.1093
    186  NZ        48.3270  -23.8410  -19.8340 N.3   493  LYS493     -0.1314
    187  N         40.5300  -27.7200  -15.0140 N.3   496  TRP496     -0.1227
    188  CA        39.7600  -26.4800  -14.6830 C.3   496  TRP496      0.1737
    189  C         39.0890  -25.9040  -15.8890 C.2   496  TRP496      0.2595
    190  O         37.9820  -25.3760  -15.8050 O.2   496  TRP496     -0.2718
    191  CB        40.6450  -25.4290  -14.0320 C.3   496  TRP496      0.0564
    192  CG        41.2300  -25.8180  -12.7150 C.ar  496  TRP496      0.0003
    193  CD1       42.5470  -25.7860  -12.3560 C.ar  496  TRP496      0.0946
    194  CD2       40.5100  -26.2360  -11.5500 C.ar  496  TRP496      0.0152
    195  NE1       42.6920  -26.1620  -11.0400 N.ar  496  TRP496     -0.2442
    196  CE2       41.4620  -26.4690  -10.5310 C.ar  496  TRP496      0.0810
    197  CE3       39.1520  -26.4680  -11.2780 C.ar  496  TRP496      0.0012
    198  CZ2       41.1050  -26.8970   -9.2590 C.ar  496  TRP496      0.0191
    199  CZ3       38.7940  -26.9440  -10.0020 C.ar  496  TRP496      0.0001
    200  CH2       39.7750  -27.1350   -9.0110 C.ar  496  TRP496      0.0015
    201  N         39.7320  -26.0370  -17.0500 N.am  497  ARG497     -0.1980
    202  CA        39.1490  -25.5140  -18.3000 C.3   497  ARG497      0.1597
    203  C         37.9540  -26.4060  -18.6500 C.2   497  ARG497      0.2287
    204  O         36.9250  -25.9120  -19.0360 O.2   497  ARG497     -0.2864
    205  CB        40.1890  -25.3970  -19.4500 C.3   497  ARG497      0.0334
    206  CG        39.6510  -24.8830  -20.8240 C.3   497  ARG497      0.0492
    207  CD        40.7750  -24.9000  -21.8880 C.3   497  ARG497      0.2205
    208  NE        41.8890  -24.0940  -21.4200 N.pl3 497  ARG497     -0.0865
    209  CZ        43.1750  -24.1970  -21.7410 C.cat 497  ARG497      0.5346
    210  NH1       43.5940  -25.1120  -22.5490 N.pl3 497  ARG497      0.1354
    211  NH2       44.0780  -23.3880  -21.1880 N.pl3 497  ARG497      0.1354
    212  N         35.1130  -25.2640  -16.3190 N.3   500  ALA500     -0.1231
    213  CA        34.5770  -23.9910  -16.7510 C.3   500  ALA500      0.1694
    214  C         33.7880  -24.0970  -18.0290 C.2   500  ALA500      0.2591
    215  O         32.7500  -23.4310  -18.1850 O.2   500  ALA500     -0.2718
    216  CB        35.6880  -22.9760  -16.9530 C.3   500  ALA500      0.0304
    217  N         34.3080  -24.8580  -18.9940 N.am  501  MET501     -0.1979
    218  CA        33.5380  -25.1090  -20.1920 C.3   501  MET501      0.1605
    219  C         32.1700  -25.7710  -19.8810 C.2   501  MET501      0.2287
    220  O         31.1770  -25.4360  -20.5260 O.2   501  MET501     -0.2864
    221  CB        34.3220  -25.9620  -21.1630 C.3   501  MET501      0.0413
    222  CG        35.3440  -25.1590  -21.9340 C.3   501  MET501      0.0598
    223  SD        36.0450  -26.1250  -23.2710 S.3   501  MET501     -0.1393
    224  CE        36.7530  -27.4920  -22.3660 C.3   501  MET501      0.0692
    225  N         29.9100  -23.1030  -18.6570 N.3   504  ARG504     -0.1245
    226  CA        29.5560  -22.1650  -19.7140 C.3   504  ARG504      0.1563
    227  C         28.4760  -22.7060  -20.6630 C.2   504  ARG504      0.2260
    228  O         27.5900  -21.9680  -21.0810 O.2   504  ARG504     -0.2867
    229  CB        30.7900  -21.7170  -20.5140 C.3   504  ARG504      0.0307
    230  CG        30.5050  -20.8300  -21.7330 C.3   504  ARG504      0.0489
    231  CD        30.1000  -19.3910  -21.3820 C.3   504  ARG504      0.2205
    232  NE        31.2300  -18.6540  -20.8060 N.pl3 504  ARG504     -0.0865
    233  CZ        31.2940  -17.3410  -20.5800 C.cat 504  ARG504      0.5346
    234  NH1       30.2900  -16.5090  -20.8650 N.pl3 504  ARG504      0.1354
    235  NH2       32.3990  -16.8500  -20.0420 N.pl3 504  ARG504      0.1354
@<TRIPOS>BOND
     1   171   170    2
     2   168   169    1
     3   170   169    1
     4   162   163    1
     5   169   172    1
     6    92    91    1
     7   172   173    1
     8   167   166    1
     9   163   166    1
    10   163   164    1
    11    89    90    2
    12    89    88    1
    13   173   175   ar
    14   173   174   ar
    15   175   177   ar
    16   165   164    2
    17    88    91    1
    18    88    87    1
    19   174   176   ar
    20   177   176   ar
    21   223   224    1
    22   223   222    1
    23    74    73    2
    24   210   209    1
    25    81    80    2
    26   222   221    1
    27    73    72    1
    28    73    78   am
    29   207   208    1
    30   207   206    1
    31    80    79    1
    32    72    75    1
    33    72    71    1
    34   209   208    2
    35   209   211    1
    36   230   231    1
    37   230   229    1
    38   231   232    1
    39    77    75    1
    40    75    76    1
    41    79    78    1
    42    79    82    1
    43   221   218    1
    44   228   227    2
    45   234   233    1
    46   206   205    1
    47   232   233    2
    48   227   226    1
    49   233   235    1
    50   220   219    2
    51   229   226    1
    52    85    84   ar
    53   218   219    1
    54   218   217    1
    55   186   185    1
    56    86    84   ar
    57    84    83    1
    58    82    83    1
    59   226   225    1
    60    67    66    2
    61   205   202    1
    62   185   184    1
    63    93    94    1
    64   204   203    2
    65   217   214   am
    66    62    61    1
    67    66    65    1
    68   109   108    2
    69   103   104    1
    70   203   202    1
    71    94    95    1
    72   184   183    1
    73   202   201    1
    74    32    31   ar
    75    32    34   ar
    76    30    31    1
    77    30    27    1
    78   215   214    2
    79    31    33   ar
    80    61    63    1
    81    61    58    1
    82    34    35   ar
    83   214   213    1
    84   104   107    1
    85   104   105    1
    86   108   110   am
    87   108   107    1
    88    33    35   ar
    89    33    36   ar
    90    35    37   ar
    91   183   182    1
    92    60    59    2
    93    36    38   ar
    94    37    39   ar
    95    65    68    1
    96    65    64    1
    97    38    39   ar
    98    59    64   am
    99    59    58    1
   100    95    96    2
   101   201   189   am
   102    68    69    1
   103   105   106    2
   104   216   213    1
   105    27    26    1
   106    27    28    1
   107   181   180    2
   108    64    70    1
   109   180   179    1
   110   182   179    1
   111    28    29    2
   112    58    57    1
   113   213   212    1
   114   118   117    1
   115   117   116    1
   116    70    69    1
   117   179   178    1
   118   189   190    2
   119   189   188    1
   120    57    54   am
   121    48    46   ar
   122    48    50   ar
   123   101   102    1
   124   101    98    1
   125    46    45   ar
   126    42    43    2
   127    42    41    1
   128    51    50    1
   129    97    98    1
   130   187   188    1
   131    50    49   ar
   132    54    55    2
   133    54    53    1
   134   188   191    1
   135    98    99    1
   136   116   115    1
   137   115   112    1
   138    45    44    1
   139    45    47   ar
   140    52    53    1
   141    99   100    2
   142    44    41    1
   143   191   192    1
   144    41    40    1
   145   133   132    1
   146    53    56    1
   147    49    47   ar
   148   114   113    2
   149   130   129    1
   150   130   131    1
   151   112   113    1
   152   112   111    1
   153   113   119   am
   154   132   131    2
   155   132   134    1
   156   192   193   ar
   157   192   194   ar
   158   129   128    1
   159   119   120    1
   160   120   123    1
   161   120   121    1
   162   193   195   ar
   163   124   121   am
   164   124   125    1
   165   128   125    1
   166   121   122    2
   167   194   197   ar
   168   194   196   ar
   169   197   199   ar
   170   125   126    1
   171   195   196   ar
   172    21    20    2
   173   196   198   ar
   174    22    23    1
   175    22    24    1
   176    22    19    1
   177    23    25    1
   178    16    15    1
   179   199   200   ar
   180    20    19    1
   181   150   148   ar
   182   126   127    2
   183   126   135   am
   184   149   148   ar
   185    18    19    1
   186    18    13   am
   187   198   200   ar
   188   148   147    1
   189   135   136    1
   190   160   159    1
   191    17    15    1
   192    15    12    1
   193    12    13    1
   194    12    11    1
   195    13    14    2
   196   157   158    1
   197   157   156    1
   198   151   152    1
   199   147   144    1
   200   152   155    1
   201   152   153    1
   202   159   158    2
   203   159   161    1
   204   143   144    1
   205   143   137   am
   206   155   156    1
   207   136   137    1
   208   136   139    1
   209     4     3    2
   210   144   145    1
   211    11     3   am
   212   137   138    2
   213   154   153    2
   214   139   140    1
   215     9     7   ar
   216     9    10   ar
   217     7     6   ar
   218     3     2    1
   219   146   145    2
   220    10     8   ar
   221     6     8   ar
   222     6     5    1
   223   140   141    2
   224   140   142   am
   225     2     5    1
   226     2     1    1
