@<TRIPOS>MOLECULE
tmp/4px6A00.pdb
 160 152 0 0 0
SMALL
GASTEIGER

@<TRIPOS>ATOM
      1  N         -1.1590   -3.0660    8.4690 N.3    14  LEU14      -0.1231
      2  CA        -1.6590   -2.5530    9.7450 C.3    14  LEU14       0.1693
      3  C         -2.2050   -1.1480    9.5240 C.2    14  LEU14       0.2593
      4  O         -3.2200   -0.7780   10.1050 O.2    14  LEU14      -0.2718
      5  CB        -0.5130   -2.4920   10.7810 C.3    14  LEU14       0.0284
      6  CG         0.2000   -3.8070   11.1320 C.3    14  LEU14       0.0019
      7  CD1        1.4560   -3.5340   11.9080 C.3    14  LEU14       0.0001
      8  CD2       -0.6900   -4.7420   11.9110 C.3    14  LEU14       0.0001
      9  N         -1.4940   -0.3780    8.7110 N.am   15  GLY15      -0.1942
     10  CA        -1.8200    1.0040    8.4060 C.3    15  GLY15       0.2014
     11  C         -1.0510    1.5230    7.2220 C.2    15  GLY15       0.2640
     12  O         -0.3470    0.7610    6.5440 O.2    15  GLY15      -0.2714
     13  N         -1.2340    2.8160    6.9380 N.am   16  SER16      -0.1935
     14  CA        -0.6400    3.5030    5.7980 C.3    16  SER16       0.2055
     15  C         -0.5000    5.0060    6.0520 C.2    16  SER16       0.2643
     16  O         -1.1880    5.5750    6.9030 O.2    16  SER16      -0.2714
     17  CB        -1.5070    3.2990    4.5510 C.3    16  SER16       0.2130
     18  OG        -1.6010    1.9390    4.1620 O.3    16  SER16      -0.2179
     19  N          0.3850    5.6000    5.2620 N.am   17  GLY17      -0.1954
     20  CA         0.7620    7.0040    5.2570 C.3    17  GLY17       0.1869
     21  C          1.3420    7.3260    3.8970 C.2    17  GLY17       0.2309
     22  O          1.4510    6.4450    3.0800 O.2    17  GLY17      -0.2863
     23  N          4.1440    7.7370    3.0950 N.3    19  PHE19      -0.1241
     24  CA         5.3390    6.9100    3.0110 C.3    19  PHE19       0.1605
     25  C          5.1270    5.5170    2.3840 C.2    19  PHE19       0.2264
     26  O          5.9790    4.9880    1.7170 O.2    19  PHE19      -0.2867
     27  CB         5.9600    6.7790    4.3670 C.3    19  PHE19       0.0534
     28  CG         5.1330    6.0310    5.3430 C.ar   19  PHE19      -0.0203
     29  CD1        5.1410    4.6610    5.3580 C.ar   19  PHE19      -0.0042
     30  CD2        4.4050    6.6830    6.2790 C.ar   19  PHE19      -0.0042
     31  CE1        4.3940    3.9720    6.2720 C.ar   19  PHE19      -0.0003
     32  CE2        3.6570    5.9900    7.1990 C.ar   19  PHE19      -0.0003
     33  CZ         3.6490    4.6410    7.1870 C.ar   19  PHE19      -0.0000
     34  N          2.5080    0.0530    6.7460 N.3    22  VAL22      -0.1245
     35  CA         3.1030   -0.5530    7.9550 C.3    22  VAL22       0.1561
     36  C          2.5800   -1.9780    7.9620 C.2    22  VAL22       0.2260
     37  O          1.3590   -2.1900    7.8780 O.2    22  VAL22      -0.2867
     38  CB         2.6910    0.1710    9.2670 C.3    22  VAL22       0.0252
     39  CG1        3.3420   -0.4890   10.4930 C.3    22  VAL22       0.0019
     40  CG2        3.0270    1.6540    9.2070 C.3    22  VAL22       0.0019
     41  N          7.2900   -4.5160   13.3850 N.3    35  ALA35      -0.1245
     42  CA         6.4290   -3.6930   12.5530 C.3    35  ALA35       0.1562
     43  C          7.3710   -3.1040   11.5310 C.2    35  ALA35       0.2260
     44  O          8.4640   -2.6480   11.8830 O.2    35  ALA35      -0.2867
     45  CB         5.7690   -2.6020   13.3630 C.3    35  ALA35       0.0290
     46  N          7.9200   -0.5020    8.2240 N.3    37  LYS37      -0.1245
     47  CA         7.4960    0.5330    7.3170 C.3    37  LYS37       0.1561
     48  C          8.1180    0.2110    5.9550 C.2    37  LYS37       0.2260
     49  O          9.2890    0.0840    5.8210 O.2    37  LYS37      -0.2867
     50  CB         7.9020    1.9260    7.8240 C.3    37  LYS37       0.0271
     51  CG         6.9640    2.4490    8.8820 C.3    37  LYS37       0.0035
     52  CD         7.0820    3.9450    9.0760 C.3    37  LYS37       0.0206
     53  CE         6.5550    4.3720   10.4400 C.3    37  LYS37       0.1093
     54  NZ         6.5190    5.8290   10.5760 N.3    37  LYS37      -0.1314
     55  N          9.6680    3.8680   20.6880 N.3    63  VAL63      -0.1245
     56  CA         9.7430    2.6730   19.8370 C.3    63  VAL63       0.1561
     57  C         11.1990    2.5130   19.3510 C.2    63  VAL63       0.2260
     58  O         11.8200    3.4780   18.9280 O.2    63  VAL63      -0.2867
     59  CB         8.7740    2.8110   18.6280 C.3    63  VAL63       0.0252
     60  CG1        9.1590    1.8750   17.4900 C.3    63  VAL63       0.0019
     61  CG2        7.3400    2.5350   19.0840 C.3    63  VAL63       0.0019
     62  N         11.0490   -2.1940   12.9000 N.3    78  MET78      -0.1230
     63  CA        10.9700   -1.6760   14.2690 C.3    78  MET78       0.1702
     64  C         10.2960   -2.6610   15.1940 C.2    78  MET78       0.2592
     65  O          9.6850   -3.6400   14.7490 O.2    78  MET78      -0.2718
     66  CB        10.1420   -0.3800   14.2540 C.3    78  MET78       0.0401
     67  CG        10.7450    0.6740   13.3660 C.3    78  MET78       0.0596
     68  SD         9.6220    2.0770   13.1150 S.3    78  MET78      -0.1393
     69  CE         8.4540    1.3660   11.9070 C.3    78  MET78       0.0692
     70  N         10.3820   -2.4270   16.4750 N.am   79  GLU79      -0.1966
     71  CA         9.6550   -3.2810   17.3770 C.3    79  GLU79       0.1733
     72  C          8.1480   -3.1580   17.1380 C.2    79  GLU79       0.2616
     73  O          7.6710   -2.1440   16.7580 O.2    79  GLU79      -0.2715
     74  CB         9.9990   -2.9700   18.8220 C.3    79  GLU79       0.0429
     75  CG         9.4570   -1.6840   19.3070 C.3    79  GLU79       0.1163
     76  CD         9.7050   -1.4670   20.7920 C.2    79  GLU79       0.3649
     77  OE1        9.0500   -2.1280   21.6030 O.co2  79  GLU79      -0.2457
     78  OE2       10.5100   -0.6550   21.1340 O.co2  79  GLU79      -0.2457
     79  N          7.4310   -4.2410   17.3760 N.am   80  MET80      -0.1963
     80  CA         6.0030   -4.2580   17.1880 C.3    80  MET80       0.1736
     81  C          5.2800   -3.7860   18.4530 C.2    80  MET80       0.2616
     82  O          5.5440   -4.2570   19.5030 O.2    80  MET80      -0.2715
     83  CB         5.5210   -5.6700   16.8200 C.3    80  MET80       0.0427
     84  CG         4.0270   -5.8910   16.8900 C.3    80  MET80       0.0599
     85  SD         3.0840   -4.8670   15.7710 S.3    80  MET80      -0.1393
     86  CE         3.5270   -5.5470   14.2810 C.3    80  MET80       0.0692
     87  N          4.3460   -2.8640   18.3140 N.am   81  ALA81      -0.1963
     88  CA         3.4470   -2.5520   19.4030 C.3    81  ALA81       0.1728
     89  C          2.1260   -3.2150   19.0910 C.2    81  ALA81       0.2616
     90  O          1.3770   -2.7340   18.3210 O.2    81  ALA81      -0.2715
     91  CB         3.2570   -1.0560   19.5400 C.3    81  ALA81       0.0334
     92  N          1.9150   -4.3550   19.7330 N.am   82  GLU82      -0.1963
     93  CA         0.7870   -5.2350   19.4450 C.3    82  GLU82       0.1733
     94  C         -0.5890   -4.6240   19.5030 C.2    82  GLU82       0.2616
     95  O         -1.4600   -5.0200   18.7150 O.2    82  GLU82      -0.2715
     96  CB         0.8290   -6.4990   20.3260 C.3    82  GLU82       0.0429
     97  CG         2.0660   -7.3640   20.1020 C.3    82  GLU82       0.1163
     98  CD         2.1070   -8.1990   18.8310 C.2    82  GLU82       0.3649
     99  OE1        3.0880   -8.9530   18.6500 O.co2  82  GLU82      -0.2457
    100  OE2        1.1740   -8.0910   18.0080 O.co2  82  GLU82      -0.2457
    101  N         -0.8160   -3.6850   20.4340 N.am   83  LEU83      -0.1963
    102  CA        -2.1670   -3.1370   20.5820 C.3    83  LEU83       0.1728
    103  C         -2.4580   -1.9170   19.6770 C.2    83  LEU83       0.2617
    104  O         -3.6030   -1.4780   19.6090 O.2    83  LEU83      -0.2715
    105  CB        -2.4580   -2.8350   22.0570 C.3    83  LEU83       0.0311
    106  CG        -2.8760   -4.0110   22.9660 C.3    83  LEU83       0.0022
    107  CD1       -1.8240   -5.0820   23.0500 C.3    83  LEU83       0.0001
    108  CD2       -3.1050   -3.5380   24.3470 C.3    83  LEU83       0.0001
    109  N         -1.4330   -1.4210   18.9690 N.am   84  GLY84      -0.1941
    110  CA        -1.5970   -0.3780   17.9790 C.3    84  GLY84       0.1998
    111  C         -1.7370    1.0330   18.5020 C.2    84  GLY84       0.2480
    112  O         -1.5220    1.2920   19.6940 O.2    84  GLY84      -0.2729
    113  N         -2.1490    1.9430   17.6030 N.am   85  PRO85      -0.2726
    114  CA        -2.2590    3.3680   17.9710 C.3    85  PRO85       0.1402
    115  C         -3.2340    3.6430   19.1040 C.2    85  PRO85       0.2269
    116  O         -4.3130    3.0440   19.1990 O.2    85  PRO85      -0.2865
    117  CB        -2.7180    4.0430   16.6810 C.3    85  PRO85       0.0296
    118  CG        -2.2850    3.1250   15.5890 C.3    85  PRO85       0.0237
    119  CD        -2.3960    1.7430   16.1640 C.3    85  PRO85       0.0939
    120  N         -2.3310    9.3130   17.4860 N.3   128  ARG128     -0.1231
    121  CA        -2.1300    8.3040   16.4260 C.3   128  ARG128      0.1694
    122  C         -0.6800    7.8260   16.3970 C.2   128  ARG128      0.2592
    123  O         -0.4060    6.8000   15.7810 O.2   128  ARG128     -0.2718
    124  CB        -2.5070    8.8750   15.0530 C.3   128  ARG128      0.0321
    125  CG        -1.6390   10.0510   14.5930 C.3   128  ARG128      0.0489
    126  CD        -2.0210   10.6270   13.2080 C.3   128  ARG128      0.2205
    127  NE        -1.2510   11.8580   12.9860 N.pl3 128  ARG128     -0.0865
    128  CZ        -1.5910   13.0520   13.4670 C.cat 128  ARG128      0.5346
    129  NH1       -2.7720   13.2280   14.0600 N.pl3 128  ARG128      0.1354
    130  NH2       -0.7940   14.0970   13.2880 N.pl3 128  ARG128      0.1354
    131  N          0.2240    8.5970   17.0310 N.am  129  ASN129     -0.1974
    132  CA         1.6680    8.3440   17.0820 C.3   129  ASN129      0.1688
    133  C          2.1590    7.9420   18.4630 C.2   129  ASN129      0.2292
    134  O          3.3480    8.0770   18.7860 O.2   129  ASN129     -0.2864
    135  CB         2.4420    9.5170   16.4790 C.3   129  ASN129      0.1181
    136  CG         2.1230    9.7000   15.0200 C.2   129  ASN129      0.2629
    137  OD1        1.7140    8.7410   14.3230 O.2   129  ASN129     -0.2716
    138  ND2        2.2770   10.9240   14.5430 N.am  129  ASN129     -0.0877
    139  N          1.7800    4.3550   20.5740 N.3   131  LEU131     -0.1245
    140  CA         1.3550    2.9720   20.3540 C.3   131  LEU131      0.1561
    141  C          1.3490    2.2360   21.6560 C.2   131  LEU131      0.2260
    142  O          2.1720    2.4860   22.5230 O.2   131  LEU131     -0.2867
    143  CB         2.3740    2.2790   19.4290 C.3   131  LEU131      0.0270
    144  CG         2.7070    2.9950   18.1250 C.3   131  LEU131      0.0019
    145  CD1        3.7290    2.2090   17.3670 C.3   131  LEU131      0.0001
    146  CD2        1.4650    3.2530   17.2500 C.3   131  LEU131      0.0001
    147  N          6.0040    6.8400   18.7160 N.3   141  SER141     -0.1202
    148  CA         6.4400    6.3240   17.4400 C.3   141  SER141      0.2020
    149  C          6.4280    7.4040   16.3700 C.2   141  SER141      0.2618
    150  O          6.2100    8.5910   16.6580 O.2   141  SER141     -0.2717
    151  CB         5.4770    5.2030   17.0460 C.3   141  SER141      0.2103
    152  OG         4.1550    5.6810   16.8020 O.3   141  SER141     -0.2182
    153  N          6.6760    6.9750   15.1200 N.am  142  ASP142     -0.1973
    154  CA         6.5190    7.8220   13.9290 C.3   142  ASP142      0.1709
    155  C          7.3800    9.0800   13.9480 C.2   142  ASP142      0.2293
    156  O          6.8690   10.2150   14.0190 O.2   142  ASP142     -0.2864
    157  CB         5.0240    8.1520   13.7390 C.3   142  ASP142      0.1436
    158  CG         4.2380    6.8850   13.4100 C.2   142  ASP142      0.3671
    159  OD1        4.2670    6.4600   12.2380 O.co2 142  ASP142     -0.2456
    160  OD2        3.6720    6.2770   14.3480 O.co2 142  ASP142     -0.2456
@<TRIPOS>BOND
     1    26    25    2
     2    25    24    1
     3    24    23    1
     4    24    27    1
     5    22    21    2
     6    21    20    1
     7    18    17    1
     8    27    28    1
     9    17    14    1
    10    20    19    1
    11    19    15   am
    12    28    29   ar
    13    28    30   ar
    14    29    31   ar
    15    14    15    1
    16    14    13    1
    17    49    48    2
    18    48    47    1
    19    15    16    2
    20    31    33   ar
    21    30    32   ar
    22    12    11    2
    23    34    35    1
    24    13    11   am
    25    33    32   ar
    26    11    10    1
    27    47    50    1
    28    47    46    1
    29    50    51    1
    30    37    36    2
    31    35    36    1
    32    35    38    1
    33    10     9    1
    34     1     2    1
    35     9     3   am
    36    51    52    1
    37    52    53    1
    38    40    38    1
    39    38    39    1
    40     3     2    1
    41     3     4    2
    42     2     5    1
    43    53    54    1
    44     5     6    1
    45     6     7    1
    46     6     8    1
    47    43    44    2
    48    43    42    1
    49    69    68    1
    50   159   158   ar
    51    42    45    1
    52    42    41    1
    53    62    63    1
    54   127   126    1
    55   127   128    2
    56    68    67    1
    57   126   125    1
    58   130   128    1
    59    67    66    1
    60   158   157    1
    61   158   160   ar
    62   128   129    1
    63   157   154    1
    64   154   155    1
    65   154   153    1
    66   155   156    2
    67    66    63    1
    68    63    64    1
    69    86    85    1
    70   137   136    2
    71   138   136   am
    72   125   124    1
    73    65    64    2
    74   136   135    1
    75   124   121    1
    76   153   149   am
    77    64    70   am
    78   118   119    1
    79   118   117    1
    80    85    84    1
    81   123   122    2
    82   119   113    1
    83   149   150    2
    84   149   148    1
    85   122   121    1
    86   122   131   am
    87   121   120    1
    88    70    71    1
    89   135   132    1
    90   117   114    1
    91    73    72    2
    92   152   151    1
    93    83    84    1
    94    83    80    1
    95   131   132    1
    96   151   148    1
    97   132   133    1
    98    72    79   am
    99    72    71    1
   100    80    79    1
   101    80    81    1
   102   146   144    1
   103   145   144    1
   104    71    74    1
   105   148   147    1
   106    60    59    1
   107   113   114    1
   108   113   111   am
   109   114   115    1
   110   110   111    1
   111   110   109    1
   112   100    98   ar
   113   144   143    1
   114    87    81   am
   115    87    88    1
   116    90    89    2
   117    81    82    2
   118   133   134    2
   119   111   112    2
   120    59    61    1
   121    59    56    1
   122    99    98   ar
   123    95    94    2
   124    74    75    1
   125    98    97    1
   126    58    57    2
   127   109   103   am
   128    89    88    1
   129    89    92   am
   130   115   116    2
   131    75    76    1
   132    57    56    1
   133    88    91    1
   134   143   140    1
   135    93    94    1
   136    93    92    1
   137    93    96    1
   138    94   101   am
   139   104   103    2
   140   103   102    1
   141    56    55    1
   142    97    96    1
   143   140   139    1
   144   140   141    1
   145   101   102    1
   146   102   105    1
   147    76    78   ar
   148    76    77   ar
   149   141   142    2
   150   105   106    1
   151   106   107    1
   152   106   108    1
