@<TRIPOS>MOLECULE
tmp/4px7A00.pdb
 130 124 0 0 0
SMALL
GASTEIGER

@<TRIPOS>ATOM
      1  N         35.8090   40.8640   26.4180 N.3    76  PHE76      -0.1241
      2  CA        36.1560   40.4360   27.7600 C.3    76  PHE76       0.1605
      3  C         36.9320   41.5270   28.4860 C.2    76  PHE76       0.2264
      4  O         37.0830   41.4820   29.7090 O.2    76  PHE76      -0.2867
      5  CB        36.9220   39.1090   27.7330 C.3    76  PHE76       0.0534
      6  CG        36.0410   37.9040   27.5240 C.ar   76  PHE76      -0.0203
      7  CD1       34.6620   38.0360   27.4770 C.ar   76  PHE76      -0.0042
      8  CD2       36.5900   36.6380   27.3910 C.ar   76  PHE76      -0.0042
      9  CE1       33.8450   36.9330   27.2890 C.ar   76  PHE76      -0.0003
     10  CE2       35.7810   35.5290   27.2050 C.ar   76  PHE76      -0.0003
     11  CZ        34.4060   35.6780   27.1510 C.ar   76  PHE76      -0.0000
     12  N         33.8820   43.9180   29.6340 N.3    79  LEU79      -0.1245
     13  CA        33.2920   43.2540   30.7890 C.3    79  LEU79       0.1561
     14  C         34.1820   43.4530   32.0090 C.2    79  LEU79       0.2260
     15  O         33.7080   43.8230   33.0830 O.2    79  LEU79      -0.2867
     16  CB        33.1010   41.7620   30.5120 C.3    79  LEU79       0.0270
     17  CG        31.7540   41.3490   29.9170 C.3    79  LEU79       0.0019
     18  CD1       31.0940   42.5250   29.2130 C.3    79  LEU79       0.0001
     19  CD2       31.9230   40.1760   28.9640 C.3    79  LEU79       0.0001
     20  N         33.8860   47.0130   33.3610 N.3    82  ALA82      -0.1231
     21  CA        32.6950   47.2400   34.1710 C.3    82  ALA82       0.1694
     22  C         32.8490   46.5130   35.4940 C.2    82  ALA82       0.2591
     23  O         32.4410   47.0240   36.5330 O.2    82  ALA82      -0.2718
     24  CB        31.4540   46.7820   33.4470 C.3    82  ALA82       0.0304
     25  N         33.4730   45.3370   35.4480 N.am   83  ILE83      -0.1980
     26  CA        33.7590   44.5810   36.6560 C.3    83  ILE83       0.1595
     27  C         34.5190   45.4770   37.6220 C.2    83  ILE83       0.2287
     28  O         34.1410   45.6090   38.7890 O.2    83  ILE83      -0.2864
     29  CB        34.5790   43.3110   36.3610 C.3    83  ILE83       0.0276
     30  CG1       33.7460   42.3190   35.5520 C.3    83  ILE83       0.0022
     31  CG2       35.0660   42.6760   37.6510 C.3    83  ILE83       0.0022
     32  CD1       34.4890   41.0740   35.1690 C.3    83  ILE83       0.0001
     33  N         32.3740   48.0020   38.7230 N.3    86  GLY86      -0.1210
     34  CA        31.5340   47.3250   39.6860 C.3    86  GLY86       0.1956
     35  C         32.1070   47.3940   41.0840 C.2    86  GLY86       0.2611
     36  O         31.5260   48.0370   41.9600 O.2    86  GLY86      -0.2717
     37  N         33.2690   46.7770   41.2880 N.am   87  GLN87      -0.1979
     38  CA        33.8460   46.7100   42.6280 C.3    87  GLN87       0.1601
     39  C         34.0960   48.1250   43.1380 C.2    87  GLN87       0.2287
     40  O         34.1730   48.3630   44.3470 O.2    87  GLN87      -0.2864
     41  CB        35.1370   45.8770   42.6410 C.3    87  GLN87       0.0394
     42  CG        34.9240   44.3590   42.5770 C.3    87  GLN87       0.0908
     43  CD        36.1520   43.6100   42.0640 C.2    87  GLN87       0.2608
     44  OE1       37.0300   44.1990   41.4300 O.2    87  GLN87      -0.2717
     45  NE2       36.2140   42.3060   42.3320 N.am   87  GLN87      -0.0878
     46  N         30.4260   49.2980   44.4450 N.3    90  LYS90      -0.1245
     47  CA        30.1650   48.3970   45.5710 C.3    90  LYS90       0.1561
     48  C         30.8550   48.8790   46.8390 C.2    90  LYS90       0.2260
     49  O         30.2000   49.2750   47.8030 O.2    90  LYS90      -0.2867
     50  CB        30.6410   46.9780   45.2160 C.3    90  LYS90       0.0271
     51  CG        30.7350   45.9850   46.3790 C.3    90  LYS90       0.0035
     52  CD        31.3780   44.6730   45.9180 C.3    90  LYS90       0.0206
     53  CE        31.5990   43.6980   47.0720 C.3    90  LYS90       0.1093
     54  NZ        32.2430   42.4200   46.6320 N.3    90  LYS90      -0.1314
     55  N         23.1060   44.7470   46.0290 N.3   152  PRO152     -0.2116
     56  CA        22.7400   44.0710   44.7790 C.3   152  PRO152      0.1372
     57  C         23.2940   42.6570   44.7380 C.2   152  PRO152      0.2244
     58  O         24.1800   42.3250   45.5280 O.2   152  PRO152     -0.2868
     59  CB        23.4100   44.9310   43.7070 C.3   152  PRO152      0.0268
     60  CG        23.4980   46.2770   44.3250 C.3   152  PRO152      0.0207
     61  CD        23.7620   46.0440   45.7800 C.3   152  PRO152      0.0892
     62  N         25.6430   40.2550   43.2980 N.3   154  GLY154     -0.1210
     63  CA        26.8080   40.0230   42.4720 C.3   154  GLY154      0.1956
     64  C         26.6590   38.6860   41.7800 C.2   154  GLY154      0.2611
     65  O         26.8190   38.5940   40.5680 O.2   154  GLY154     -0.2717
     66  N         26.3300   37.6620   42.5620 N.am  155  HIS155     -0.1975
     67  CA        26.1630   36.2900   42.0780 C.3   155  HIS155      0.1656
     68  C         25.2400   36.2100   40.8570 C.2   155  HIS155      0.2291
     69  O         25.6100   35.6950   39.7880 O.2   155  HIS155     -0.2864
     70  CB        25.6170   35.4110   43.2110 C.3   155  HIS155      0.0771
     71  CG        26.4120   35.4940   44.4780 C.ar  155  HIS155      0.0820
     72  ND1       26.4340   36.6220   45.2740 N.ar  155  HIS155     -0.2267
     73  CD2       27.2170   34.5920   45.0890 C.ar  155  HIS155      0.1154
     74  CE1       27.2190   36.4110   46.3140 C.ar  155  HIS155      0.1986
     75  NE2       27.7070   35.1850   46.2280 N.ar  155  HIS155     -0.2212
     76  N         26.7140   38.0120   37.7430 N.3   157  PHE157     -0.1241
     77  CA        27.7750   37.2570   37.0950 C.3   157  PHE157      0.1605
     78  C         27.2340   36.0780   36.3050 C.2   157  PHE157      0.2264
     79  O         27.4910   35.9550   35.1000 O.2   157  PHE157     -0.2867
     80  CB        28.8100   36.7890   38.1270 C.3   157  PHE157      0.0534
     81  CG        29.7600   37.8740   38.5630 C.ar  157  PHE157     -0.0203
     82  CD1       30.5470   38.5360   37.6310 C.ar  157  PHE157     -0.0042
     83  CD2       29.8680   38.2350   39.8940 C.ar  157  PHE157     -0.0042
     84  CE1       31.4180   39.5360   38.0180 C.ar  157  PHE157     -0.0003
     85  CE2       30.7420   39.2360   40.2880 C.ar  157  PHE157     -0.0003
     86  CZ        31.5160   39.8850   39.3470 C.ar  157  PHE157     -0.0000
     87  N         25.1530   37.3330   33.4200 N.3   160  SER160     -0.1202
     88  CA        25.9560   37.8980   32.3460 C.3   160  SER160      0.2020
     89  C         26.6040   36.7880   31.5220 C.2   160  SER160      0.2618
     90  O         26.6420   36.8660   30.2970 O.2   160  SER160     -0.2717
     91  CB        27.0160   38.8590   32.8900 C.3   160  SER160      0.2103
     92  OG        26.4560   40.0990   33.2910 O.3   160  SER160     -0.2182
     93  N         27.1110   35.7560   32.1900 N.am  161  TRP161     -0.1975
     94  CA        27.6250   34.5930   31.4760 C.3   161  TRP161      0.1640
     95  C         26.5640   33.9660   30.5930 C.2   161  TRP161      0.2290
     96  O         26.7460   33.8480   29.3990 O.2   161  TRP161     -0.2864
     97  CB        28.1570   33.5430   32.4390 C.3   161  TRP161      0.0576
     98  CG        29.5950   33.6980   32.7040 C.ar  161  TRP161      0.0006
     99  CD1       30.1870   33.8780   33.9140 C.ar  161  TRP161      0.0946
    100  CD2       30.6480   33.7090   31.7330 C.ar  161  TRP161      0.0152
    101  NE1       31.5470   33.9920   33.7630 N.ar  161  TRP161     -0.2442
    102  CE2       31.8570   33.8910   32.4330 C.ar  161  TRP161      0.0810
    103  CE3       30.6860   33.5750   30.3390 C.ar  161  TRP161      0.0012
    104  CZ2       33.0920   33.9490   31.7890 C.ar  161  TRP161      0.0191
    105  CZ3       31.9110   33.6310   29.7030 C.ar  161  TRP161      0.0001
    106  CH2       33.0990   33.8150   30.4280 C.ar  161  TRP161      0.0015
    107  N         25.6270   36.1240   27.7190 N.3   164  LEU164     -0.1245
    108  CA        26.6880   36.0520   26.7320 C.3   164  LEU164      0.1561
    109  C         26.4820   34.7800   25.9190 C.2   164  LEU164      0.2260
    110  O         26.4630   34.8120   24.6940 O.2   164  LEU164     -0.2867
    111  CB        28.0560   36.0370   27.4220 C.3   164  LEU164      0.0270
    112  CG        29.0260   37.2050   27.2080 C.3   164  LEU164      0.0019
    113  CD1       28.3810   38.5440   27.5250 C.3   164  LEU164      0.0001
    114  CD2       30.2930   37.0150   28.0370 C.3   164  LEU164      0.0001
    115  N         20.3230   44.5630   35.2630 N.3   207  ILE207     -0.1245
    116  CA        21.6310   45.1900   35.2150 C.3   207  ILE207      0.1561
    117  C         22.5440   44.3490   34.3530 C.2   207  ILE207      0.2260
    118  O         23.2020   44.8640   33.4600 O.2   207  ILE207     -0.2867
    119  CB        22.2370   45.3210   36.6170 C.3   207  ILE207      0.0252
    120  CG1       21.4300   46.3240   37.4390 C.3   207  ILE207      0.0019
    121  CG2       23.7030   45.7420   36.5300 C.3   207  ILE207      0.0019
    122  CD1       21.8390   46.3770   38.8760 C.3   207  ILE207      0.0001
    123  N         24.4010   45.6940   31.0260 N.3   211  LEU211     -0.1245
    124  CA        25.8480   45.5680   30.9790 C.3   211  LEU211      0.1561
    125  C         26.2880   44.7780   29.7550 C.2   211  LEU211      0.2260
    126  O         27.0630   45.2690   28.9310 O.2   211  LEU211     -0.2867
    127  CB        26.3490   44.8630   32.2320 C.3   211  LEU211      0.0270
    128  CG        27.8260   45.1180   32.5000 C.3   211  LEU211      0.0019
    129  CD1       28.0010   46.5620   32.9490 C.3   211  LEU211      0.0001
    130  CD2       28.3700   44.1410   33.5250 C.3   211  LEU211      0.0001
@<TRIPOS>BOND
     1   110   109    2
     2   109   108    1
     3     1     2    1
     4   108   111    1
     5   108   107    1
     6    11    10   ar
     7    11     9   ar
     8    10     8   ar
     9   112   111    1
    10   112   113    1
    11   112   114    1
    12     9     7   ar
    13     8     6   ar
    14     7     6   ar
    15     6     5    1
    16     5     2    1
    17     2     3    1
    18     3     4    2
    19   126   125    2
    20    19    17    1
    21    18    17    1
    22    96    95    2
    23    12    13    1
    24   105   103   ar
    25   105   106   ar
    26   125   124    1
    27    17    16    1
    28    90    89    2
    29   103   100   ar
    30   106   104   ar
    31    16    13    1
    32    95    94    1
    33    13    14    1
    34   124   123    1
    35   124   127    1
    36    94    93    1
    37    94    97    1
    38    89    93   am
    39    89    88    1
    40   100   102   ar
    41   100    98   ar
    42   104   102   ar
    43    14    15    2
    44   127   128    1
    45    88    91    1
    46    88    87    1
    47   102   101   ar
    48    97    98    1
    49   128   129    1
    50   128   130    1
    51    98    99   ar
    52    91    92    1
    53    20    21    1
    54    24    21    1
    55   118   117    2
    56   101    99   ar
    57    21    22    1
    58   117   116    1
    59    79    78    2
    60    32    30    1
    61   116   115    1
    62   116   119    1
    63    25    22   am
    64    25    26    1
    65    22    23    2
    66    30    29    1
    67    78    77    1
    68    29    26    1
    69    29    31    1
    70   121   119    1
    71   119   120    1
    72    26    27    1
    73    77    76    1
    74    77    80    1
    75   120   122    1
    76    27    28    2
    77    82    84   ar
    78    82    81   ar
    79    84    86   ar
    80    80    81    1
    81    81    83   ar
    82    33    34    1
    83    86    85   ar
    84    34    35    1
    85    69    68    2
    86    83    85   ar
    87    65    64    2
    88    68    67    1
    89    35    37   am
    90    35    36    2
    91    37    38    1
    92    44    43    2
    93    64    63    1
    94    64    66   am
    95    43    45   am
    96    43    42    1
    97    67    66    1
    98    67    70    1
    99    63    62    1
   100    42    41    1
   101    38    41    1
   102    38    39    1
   103    39    40    2
   104    70    71    1
   105    59    60    1
   106    59    56    1
   107    60    61    1
   108    46    47    1
   109    71    73   ar
   110    71    72   ar
   111    57    56    1
   112    57    58    2
   113    56    55    1
   114    73    75   ar
   115    50    47    1
   116    50    51    1
   117    72    74   ar
   118    47    48    1
   119    61    55    1
   120    52    51    1
   121    52    53    1
   122    75    74   ar
   123    54    53    1
   124    48    49    2
