@<TRIPOS>MOLECULE
tmp/4pxaA00.pdb
 198 191 0 0 0
SMALL
GASTEIGER

@<TRIPOS>ATOM
      1  N         22.9870  -50.9870   -5.8630 N.3    22  THR22      -0.1203
      2  CA        23.4640  -50.4790   -4.5860 C.3    22  THR22       0.1994
      3  C         22.9260  -51.2570   -3.3940 C.2    22  THR22       0.2618
      4  O         21.7220  -51.2940   -3.1500 O.2    22  THR22      -0.2717
      5  CB        23.1090  -48.9910   -4.4130 C.3    22  THR22       0.1784
      6  OG1       23.4950  -48.5610   -3.1000 O.3    22  THR22      -0.2211
      7  CG2       21.6110  -48.7660   -4.6210 C.3    22  THR22       0.0376
      8  N         23.8380  -51.8870   -2.6630 N.am   23  GLY23      -0.1942
      9  CA        23.4670  -52.6550   -1.4900 C.3    23  GLY23       0.2014
     10  C         24.2260  -52.1040   -0.3000 C.2    23  GLY23       0.2638
     11  O         25.3470  -51.6180   -0.4490 O.2    23  GLY23      -0.2714
     12  N         23.6230  -52.1760    0.8810 N.am   24  ILE24      -0.1977
     13  CA        24.2530  -51.6620    2.0900 C.3    24  ILE24       0.1596
     14  C         25.3950  -52.5420    2.5920 C.2    24  ILE24       0.2287
     15  O         25.4600  -53.7310    2.2810 O.2    24  ILE24      -0.2864
     16  CB        23.1910  -51.4610    3.2150 C.3    24  ILE24       0.0276
     17  CG1       23.0100  -49.9620    3.4770 C.3    24  ILE24       0.0022
     18  CG2       23.5930  -52.2000    4.4940 C.3    24  ILE24       0.0022
     19  CD1       21.8230  -49.6170    4.3470 C.3    24  ILE24       0.0001
     20  N         26.4990  -54.8460    4.2500 N.3    26  PHE26      -0.1241
     21  CA        25.8460  -55.9040    5.0070 C.3    26  PHE26       0.1605
     22  C         26.6860  -56.7680    5.9560 C.2    26  PHE26       0.2264
     23  O         26.1840  -57.7600    6.4880 O.2    26  PHE26      -0.2867
     24  CB        25.0830  -56.8150    4.0420 C.3    26  PHE26       0.0534
     25  CG        24.0220  -57.6300    4.7090 C.ar   26  PHE26      -0.0203
     26  CD1       22.8950  -57.0150    5.2470 C.ar   26  PHE26      -0.0042
     27  CD2       24.1790  -59.0020    4.8670 C.ar   26  PHE26      -0.0042
     28  CE1       21.9430  -57.7530    5.9400 C.ar   26  PHE26      -0.0003
     29  CE2       23.2340  -59.7480    5.5590 C.ar   26  PHE26      -0.0003
     30  CZ        22.1150  -59.1230    6.0970 C.ar   26  PHE26      -0.0000
     31  N         12.0790  -60.7160    6.9560 N.3    48  PHE48      -0.1241
     32  CA        10.9000  -59.9020    6.6500 C.3    48  PHE48       0.1605
     33  C          9.6140  -60.7230    6.7420 C.2    48  PHE48       0.2264
     34  O          8.5100  -60.1860    6.6620 O.2    48  PHE48      -0.2867
     35  CB        11.0030  -59.3200    5.2400 C.3    48  PHE48       0.0534
     36  CG        12.0800  -58.2770    5.0780 C.ar   48  PHE48      -0.0203
     37  CD1       12.0480  -57.0980    5.8230 C.ar   48  PHE48      -0.0042
     38  CD2       13.0930  -58.4430    4.1370 C.ar   48  PHE48      -0.0042
     39  CE1       13.0110  -56.0990    5.6250 C.ar   48  PHE48      -0.0003
     40  CE2       14.0580  -57.4550    3.9300 C.ar   48  PHE48      -0.0003
     41  CZ        14.0200  -56.2830    4.6700 C.ar   48  PHE48      -0.0000
     42  N         13.8450  -54.7820   -5.3710 N.3    64  THR64      -0.1203
     43  CA        14.8900  -53.8520   -4.9310 C.3    64  THR64       0.1994
     44  C         16.1110  -54.6040   -4.4360 C.2    64  THR64       0.2618
     45  O         17.0670  -54.0130   -3.9280 O.2    64  THR64      -0.2717
     46  CB        14.4090  -52.9490   -3.8010 C.3    64  THR64       0.1784
     47  OG1       13.7770  -53.7530   -2.7990 O.3    64  THR64      -0.2211
     48  CG2       13.4420  -51.9020   -4.3330 C.3    64  THR64       0.0376
     49  N         16.0560  -55.9210   -4.5800 N.am   65  ARG65      -0.1965
     50  CA        17.1410  -56.8010   -4.1860 C.3    65  ARG65       0.1729
     51  C         17.5400  -56.7070   -2.7200 C.2    65  ARG65       0.2616
     52  O         18.6980  -56.4490   -2.4100 O.2    65  ARG65      -0.2715
     53  CB        18.3740  -56.5540   -5.0720 C.3    65  ARG65       0.0348
     54  CG        18.1970  -56.8880   -6.5620 C.3    65  ARG65       0.0492
     55  CD        17.5510  -55.7460   -7.3500 C.3    65  ARG65       0.2205
     56  NE        17.3970  -56.0590   -8.7740 N.pl3  65  ARG65      -0.0865
     57  CZ        16.9090  -55.2160   -9.6830 C.cat  65  ARG65       0.5346
     58  NH1       16.5220  -53.9960   -9.3290 N.pl3  65  ARG65       0.1354
     59  NH2       16.8010  -55.5920  -10.9490 N.pl3  65  ARG65       0.1354
     60  N         16.5810  -56.8960   -1.8190 N.am   66  TYR66      -0.1960
     61  CA        16.8760  -56.8900   -0.3810 C.3    66  TYR66       0.1771
     62  C         16.6530  -58.3320    0.0640 C.2    66  TYR66       0.2620
     63  O         15.5910  -58.9020   -0.1970 O.2    66  TYR66      -0.2715
     64  CB        15.9160  -55.9860    0.4120 C.3    66  TYR66       0.0574
     65  CG        16.1440  -54.4870    0.3200 C.ar   66  TYR66      -0.0198
     66  CD1       16.9880  -53.9330   -0.6470 C.ar   66  TYR66      -0.0009
     67  CD2       15.4460  -53.6180    1.1610 C.ar   66  TYR66      -0.0009
     68  CE1       17.1200  -52.5540   -0.7750 C.ar   66  TYR66       0.0417
     69  CE2       15.5690  -52.2410    1.0400 C.ar   66  TYR66       0.0417
     70  CZ        16.4040  -51.7110    0.0720 C.ar   66  TYR66       0.1957
     71  OH        16.5020  -50.3360   -0.0560 O.3    66  TYR66      -0.2866
     72  N         17.6400  -58.9270    0.7250 N.am   67  THR67      -0.1937
     73  CA        17.5010  -60.3060    1.1760 C.3    67  THR67       0.2028
     74  C         16.9070  -60.3430    2.5710 C.2    67  THR67       0.2642
     75  O         15.8470  -60.9330    2.7930 O.2    67  THR67      -0.2714
     76  CB        18.8530  -61.0180    1.1980 C.3    67  THR67       0.1808
     77  OG1       19.4050  -61.0220   -0.1210 O.3    67  THR67      -0.2208
     78  CG2       18.6890  -62.4480    1.6740 C.3    67  THR67       0.0379
     79  N         17.6020  -59.7110    3.5090 N.am   68  ARG68      -0.1963
     80  CA        17.1430  -59.6560    4.8840 C.3    68  ARG68       0.1714
     81  C         17.3100  -58.2530    5.4390 C.2    68  ARG68       0.2458
     82  O         18.0330  -57.4320    4.8800 O.2    68  ARG68      -0.2730
     83  CB        17.9090  -60.6620    5.7400 C.3    68  ARG68       0.0347
     84  CG        17.5150  -62.1030    5.4710 C.3    68  ARG68       0.0492
     85  CD        18.3930  -63.0890    6.2210 C.3    68  ARG68       0.2205
     86  NE        19.7800  -63.0670    5.7590 N.pl3  68  ARG68      -0.0865
     87  CZ        20.6760  -62.1400    6.0900 C.cat  68  ARG68       0.5346
     88  NH1       20.3440  -61.1410    6.8970 N.pl3  68  ARG68       0.1354
     89  NH2       21.9110  -62.2180    5.6150 N.pl3  68  ARG68       0.1354
     90  N         16.6310  -57.9600    6.5510 N.am   69  PRO69      -0.2716
     91  CA        16.6780  -56.6540    7.2090 C.3    69  PRO69       0.1536
     92  C         17.9970  -56.3110    7.8980 C.2    69  PRO69       0.2599
     93  O         18.5980  -57.1560    8.5560 O.2    69  PRO69      -0.2715
     94  CB        15.5270  -56.7450    8.2020 C.3    69  PRO69       0.0310
     95  CG        15.5690  -58.1900    8.6030 C.3    69  PRO69       0.0237
     96  CD        15.7190  -58.8730    7.2680 C.3    69  PRO69       0.0939
     97  N         18.4330  -55.0610    7.7500 N.am   70  THR70      -0.1951
     98  CA        19.6610  -54.6010    8.3890 C.3    70  THR70       0.1897
     99  C         19.4110  -54.6390    9.9080 C.2    70  THR70       0.2313
    100  O         18.2990  -54.9350   10.3430 O.2    70  THR70      -0.2863
    101  CB        20.0400  -53.1530    7.9280 C.3    70  THR70       0.1794
    102  OG1       19.0480  -52.2210    8.3700 O.3    70  THR70      -0.2208
    103  CG2       20.1520  -53.0840    6.4140 C.3    70  THR70       0.0378
    104  N         16.7810  -52.1990   11.1710 N.3    73  GLN73      -0.1245
    105  CA        15.5620  -52.6750   10.5350 C.3    73  GLN73       0.1566
    106  C         14.9790  -53.9040   11.2260 C.2    73  GLN73       0.2260
    107  O         13.8190  -54.2430   11.0150 O.2    73  GLN73      -0.2867
    108  CB        15.8390  -53.0040    9.0670 C.3    73  GLN73       0.0367
    109  CG        15.9370  -51.7840    8.1760 C.3    73  GLN73       0.0905
    110  CD        16.3160  -52.1370    6.7580 C.2    73  GLN73       0.2608
    111  OE1       16.0120  -53.2290    6.2770 O.2    73  GLN73      -0.2717
    112  NE2       16.9720  -51.2070    6.0720 N.am   73  GLN73      -0.0878
    113  N         24.7980  -43.2170    9.4830 N.3    92  THR92      -0.1203
    114  CA        24.4570  -43.4160    8.0810 C.3    92  THR92       0.1994
    115  C         24.8430  -44.8110    7.6000 C.2    92  THR92       0.2618
    116  O         25.7150  -45.4580    8.1760 O.2    92  THR92      -0.2717
    117  CB        25.1280  -42.3570    7.1720 C.3    92  THR92       0.1784
    118  OG1       26.4270  -42.0460    7.6850 O.3    92  THR92      -0.2211
    119  CG2       24.2720  -41.0850    7.0970 C.3    92  THR92       0.0376
    120  N         24.1590  -45.2680    6.5550 N.am   93  GLY93      -0.1942
    121  CA        24.4170  -46.5780    5.9920 C.3    93  GLY93       0.2014
    122  C         23.7920  -47.7060    6.7830 C.2    93  GLY93       0.2640
    123  O         23.8780  -48.8620    6.3840 O.2    93  GLY93      -0.2714
    124  N         23.1590  -47.3800    7.9040 N.am   94  SER94      -0.1935
    125  CA        22.5340  -48.4030    8.7340 C.3    94  SER94       0.2055
    126  C         21.2860  -48.9850    8.0760 C.2    94  SER94       0.2644
    127  O         20.8600  -50.0960    8.4190 O.2    94  SER94      -0.2714
    128  CB        22.1630  -47.8230   10.1040 C.3    94  SER94       0.2130
    129  OG        23.2970  -47.3120   10.7790 O.3    94  SER94      -0.2179
    130  N         20.7090  -48.2310    7.1360 N.am   95  GLY95      -0.1939
    131  CA        19.5040  -48.6700    6.4480 C.3    95  GLY95       0.2014
    132  C         18.2610  -48.1120    7.1200 C.2    95  GLY95       0.2639
    133  O         17.2170  -48.7650    7.2010 O.2    95  GLY95      -0.2714
    134  N         18.3820  -46.8840    7.6030 N.am   96  LYS96      -0.1963
    135  CA        17.2950  -46.2180    8.2880 C.3    96  LYS96       0.1728
    136  C         16.0800  -45.9190    7.4030 C.2    96  LYS96       0.2617
    137  O         14.9450  -46.1620    7.8220 O.2    96  LYS96      -0.2715
    138  CB        17.8180  -44.9300    8.9290 C.3    96  LYS96       0.0311
    139  CG        18.9460  -45.1660    9.9300 C.3    96  LYS96       0.0038
    140  CD        19.5550  -43.8670   10.4390 C.3    96  LYS96       0.0206
    141  CE        20.2180  -43.0800    9.3100 C.3    96  LYS96       0.1093
    142  NZ        20.9520  -41.8640    9.7670 N.3    96  LYS96      -0.1314
    143  N         16.3010  -45.4080    6.1880 N.am   97  THR97      -0.1937
    144  CA        15.1890  -45.0730    5.2850 C.3    97  THR97       0.2028
    145  C         14.1770  -46.1920    5.0500 C.2    97  THR97       0.2642
    146  O         12.9660  -45.9940    5.1990 O.2    97  THR97      -0.2714
    147  CB        15.6960  -44.5900    3.9260 C.3    97  THR97       0.1808
    148  OG1       16.5690  -43.4720    4.1260 O.3    97  THR97      -0.2208
    149  CG2       14.5250  -44.1530    3.0450 C.3    97  THR97       0.0379
    150  N         14.6700  -47.3660    4.6800 N.am   98  ALA98      -0.1977
    151  CA        13.7810  -48.4900    4.4500 C.3    98  ALA98       0.1597
    152  C         13.1120  -48.9080    5.7530 C.2    98  ALA98       0.2287
    153  O         11.9880  -49.4000    5.7450 O.2    98  ALA98      -0.2864
    154  CB        14.5540  -49.6560    3.8670 C.3    98  ALA98       0.0319
    155  N         18.8200  -35.5100    0.8210 N.3   144  LEU144     -0.1245
    156  CA        18.2090  -36.6310    1.5320 C.3   144  LEU144      0.1561
    157  C         16.7130  -36.7510    1.2790 C.2   144  LEU144      0.2260
    158  O         16.1770  -37.8550    1.2250 O.2   144  LEU144     -0.2867
    159  CB        18.4470  -36.4970    3.0330 C.3   144  LEU144      0.0270
    160  CG        17.6750  -37.4990    3.8940 C.3   144  LEU144      0.0019
    161  CD1       18.4160  -38.8090    4.0360 C.3   144  LEU144      0.0001
    162  CD2       17.4540  -36.8680    5.2440 C.3   144  LEU144      0.0001
    163  N         16.2810  -38.7250   -1.8210 N.3   147  GLN147     -0.1245
    164  CA        16.6590  -40.1280   -1.6840 C.3   147  GLN147      0.1566
    165  C         15.4810  -40.9020   -1.0850 C.2   147  GLN147      0.2260
    166  O         15.1010  -41.9670   -1.5730 O.2   147  GLN147     -0.2867
    167  CB        17.8560  -40.2750   -0.7520 C.3   147  GLN147      0.0367
    168  CG        19.1370  -39.6620   -1.2410 C.3   147  GLN147      0.0905
    169  CD        20.2280  -39.8010   -0.2090 C.2   147  GLN147      0.2608
    170  OE1       20.4630  -40.8940    0.3120 O.2   147  GLN147     -0.2717
    171  NE2       20.8990  -38.6950    0.1030 N.am  147  GLN147     -0.0878
    172  N         13.1790  -43.8420   -2.7600 N.3   151  GLU151     -0.1245
    173  CA        12.9850  -45.0950   -2.0440 C.3   151  GLU151      0.1567
    174  C         11.4890  -45.4210   -1.9660 C.2   151  GLU151      0.2260
    175  O         11.0770  -46.5620   -2.1850 O.2   151  GLU151     -0.2867
    176  CB        13.5750  -44.9690   -0.6370 C.3   151  GLU151      0.0388
    177  CG        13.9210  -46.2830    0.0340 C.3   151  GLU151      0.1160
    178  CD        15.3170  -46.7670   -0.3050 C.2   151  GLU151      0.3649
    179  OE1       15.6350  -46.8540   -1.5100 O.co2 151  GLU151     -0.2457
    180  OE2       16.0920  -47.0660    0.6350 O.co2 151  GLU151     -0.2457
    181  N          9.7750  -46.8080   -5.1250 N.3   154  LYS154     -0.1245
    182  CA        10.0280  -48.2310   -5.2900 C.3   154  LYS154      0.1561
    183  C          9.0580  -49.0590   -4.4710 C.2   154  LYS154      0.2260
    184  O          8.3230  -49.8720   -5.0220 O.2   154  LYS154     -0.2867
    185  CB        11.4630  -48.5690   -4.8750 C.3   154  LYS154      0.0271
    186  CG        12.5230  -47.8320   -5.6730 C.3   154  LYS154      0.0035
    187  CD        13.9290  -48.3150   -5.3430 C.3   154  LYS154      0.0206
    188  CE        14.9820  -47.5050   -6.0940 C.3   154  LYS154      0.1093
    189  NZ        16.3690  -47.8530   -5.6760 N.3   154  LYS154     -0.1314
    190  N         16.5910  -37.3970   10.5990 N.3   214  GLU214     -0.1245
    191  CA        17.7760  -36.6180   10.9540 C.3   214  GLU214      0.1567
    192  C         17.3500  -35.3590   11.6980 C.2   214  GLU214      0.2260
    193  O         17.6740  -34.2290   11.3090 O.2   214  GLU214     -0.2867
    194  CB        18.5530  -36.2600    9.7000 C.3   214  GLU214      0.0388
    195  CG        18.8100  -37.4510    8.8210 C.3   214  GLU214      0.1160
    196  CD        19.8340  -37.1570    7.7540 C.2   214  GLU214      0.3649
    197  OE1       19.9540  -35.9680    7.3640 O.co2 214  GLU214     -0.2457
    198  OE2       20.5090  -38.1130    7.2970 O.co2 214  GLU214     -0.2457
@<TRIPOS>BOND
     1    59    57    1
     2    57    58    1
     3    57    56    2
     4    56    55    1
     5    55    54    1
     6    54    53    1
     7   188   189    1
     8   188   187    1
     9     1     2    1
    10   186   187    1
    11   186   185    1
    12    42    43    1
    13   182   181    1
    14   182   185    1
    15   182   183    1
    16    53    50    1
    17   184   183    2
    18    43    44    1
    19    43    46    1
    20     7     5    1
    21     2     5    1
    22     2     3    1
    23    49    44   am
    24    49    50    1
    25    44    45    2
    26     5     6    1
    27    48    46    1
    28    50    51    1
    29    46    47    1
    30     3     4    2
    31     3     8   am
    32   172   173    1
    33    51    52    2
    34    51    60   am
    35     8     9    1
    36   175   174    2
    37   173   174    1
    38   173   176    1
    39   163   164    1
    40    60    61    1
    41   164   165    1
    42   164   167    1
    43   166   165    2
    44   179   178   ar
    45     9    10    1
    46   168   167    1
    47   168   169    1
    48    68    66   ar
    49    68    70   ar
    50    66    65   ar
    51   176   177    1
    52    11    10    2
    53    61    62    1
    54    61    64    1
    55   178   177    1
    56   178   180   ar
    57    10    12   am
    58   169   171   am
    59   169   170    2
    60    63    62    2
    61    77    76    1
    62    71    70    1
    63    62    72   am
    64    70    69   ar
    65    65    64    1
    66    65    67   ar
    67    72    73    1
    68   155   156    1
    69    12    13    1
    70    69    67   ar
    71    73    76    1
    72    73    74    1
    73    76    78    1
    74   158   157    2
    75   157   156    1
    76   156   159    1
    77    13    14    1
    78    13    16    1
    79    15    14    2
    80    74    75    2
    81    74    79   am
    82   159   160    1
    83   149   147    1
    84    16    17    1
    85    16    18    1
    86    17    19    1
    87    79    80    1
    88   154   151    1
    89   160   161    1
    90   160   162    1
    91   147   148    1
    92   147   144    1
    93    40    38   ar
    94    40    41   ar
    95    24    25    1
    96    24    21    1
    97    38    36   ar
    98    20    21    1
    99   151   150    1
   100   151   152    1
   101    41    39   ar
   102   150   145   am
   103    25    27   ar
   104    25    26   ar
   105    27    29   ar
   106    82    81    2
   107    80    81    1
   108    80    83    1
   109    21    22    1
   110   145   146    2
   111   145   144    1
   112    36    35    1
   113    36    37   ar
   114    35    32    1
   115    26    28   ar
   116   144   143    1
   117    81    90   am
   118    84    83    1
   119    84    85    1
   120    29    30   ar
   121    89    87    1
   122    39    37   ar
   123   153   152    2
   124    86    87    2
   125    86    85    1
   126    28    30   ar
   127    22    23    2
   128   121   120    1
   129   121   122    1
   130   112   110   am
   131    87    88    1
   132   143   136   am
   133   111   110    2
   134   123   122    2
   135   103   101    1
   136   131   132    1
   137   131   130    1
   138    90    91    1
   139    90    96    1
   140   120   115   am
   141    32    33    1
   142    32    31    1
   143    34    33    2
   144   110   109    1
   145   122   124   am
   146   119   117    1
   147   132   133    2
   148   132   134   am
   149   130   126   am
   150   117   118    1
   151   117   114    1
   152    91    92    1
   153    91    94    1
   154    96    95    1
   155   198   196   ar
   156   197   196   ar
   157   136   137    2
   158   136   135    1
   159   115   114    1
   160   115   116    2
   161   134   135    1
   162    97    92   am
   163    97    98    1
   164   196   195    1
   165    92    93    2
   166   124   125    1
   167   101   102    1
   168   101    98    1
   169   126   127    2
   170   126   125    1
   171   114   113    1
   172   109   108    1
   173    94    95    1
   174   135   138    1
   175    98    99    1
   176   125   128    1
   177   195   194    1
   178   138   139    1
   179   108   105    1
   180   141   142    1
   181   141   140    1
   182   194   191    1
   183    99   100    2
   184   139   140    1
   185   128   129    1
   186   105   104    1
   187   105   106    1
   188   190   191    1
   189   191   192    1
   190   107   106    2
   191   193   192    2
