@<TRIPOS>MOLECULE
tmp/4pxbB00.pdb
 99 96 0 0 0
SMALL
GASTEIGER

@<TRIPOS>ATOM
      1  N        -18.2440   65.6100  144.4830 N.3    85  HIS85      -0.1241
      2  CA       -18.5160   66.0020  143.1010 C.3    85  HIS85       0.1621
      3  C        -18.7520   64.7590  142.2630 C.2    85  HIS85       0.2264
      4  O        -18.4010   63.6590  142.6740 O.2    85  HIS85      -0.2867
      5  CB       -17.2930   66.7150  142.5360 C.3    85  HIS85       0.0745
      6  CG       -16.0830   65.8360  142.4880 C.ar   85  HIS85       0.0817
      7  ND1      -15.6430   65.2420  141.3210 N.ar   85  HIS85      -0.2268
      8  CD2      -15.2540   65.4020  143.4640 C.ar   85  HIS85       0.1154
      9  CE1      -14.5770   64.4980  141.5820 C.ar   85  HIS85       0.1986
     10  NE2      -14.3240   64.5840  142.8760 N.ar   85  HIS85      -0.2212
     11  N        -13.8410   58.2610  142.2440 N.3    96  ASP96      -0.1239
     12  CA       -13.4410   59.6080  142.6150 C.3    96  ASP96       0.1674
     13  C        -14.6590   60.5290  142.6350 C.2    96  ASP96       0.2266
     14  O        -15.3660   60.6580  141.6260 O.2    96  ASP96      -0.2867
     15  CB       -12.4300   60.0910  141.5730 C.3    96  ASP96       0.1410
     16  CG       -11.8960   61.4540  141.8650 C.2    96  ASP96       0.3668
     17  OD1      -12.1660   61.9990  142.9410 O.co2  96  ASP96      -0.2456
     18  OD2      -11.1780   61.9710  141.0130 O.co2  96  ASP96      -0.2456
     19  N        -15.7040   69.7670  140.6470 N.3   130  ALA130     -0.1231
     20  CA       -14.4700   69.8780  141.4190 C.3   130  ALA130      0.1694
     21  C        -13.2460   69.8940  140.5080 C.2   130  ALA130      0.2591
     22  O        -12.2030   70.4280  140.8820 O.2   130  ALA130     -0.2718
     23  CB       -14.3530   68.7380  142.4310 C.3   130  ALA130      0.0304
     24  N        -13.3600   69.2970  139.3230 N.am  131  GLU131     -0.1979
     25  CA       -12.1970   69.1510  138.4460 C.3   131  GLU131      0.1602
     26  C        -11.9860   70.3840  137.5660 C.2   131  GLU131      0.2287
     27  O        -12.9480   71.0180  137.1380 O.2   131  GLU131     -0.2864
     28  CB       -12.3500   67.9190  137.5550 C.3   131  GLU131      0.0415
     29  CG       -12.5550   66.6180  138.3260 C.3   131  GLU131      0.1163
     30  CD       -11.3320   66.1660  139.1150 C.2   131  GLU131      0.3649
     31  OE1      -10.2990   66.8800  139.2210 O.co2 131  GLU131     -0.2457
     32  OE2      -11.4110   65.0520  139.6450 O.co2 131  GLU131     -0.2457
     33  N        -14.5280   60.1440  150.7570 N.3   201  HIS201     -0.1241
     34  CA       -13.7580   60.0860  149.5120 C.3   201  HIS201      0.1621
     35  C        -12.7950   58.8980  149.5100 C.2   201  HIS201      0.2264
     36  O        -12.2950   58.5050  150.5600 O.2   201  HIS201     -0.2867
     37  CB       -12.9690   61.3900  149.3400 C.3   201  HIS201      0.0745
     38  CG       -12.6310   61.7090  147.9190 C.ar  201  HIS201      0.0817
     39  ND1      -11.6770   61.0060  147.2140 N.ar  201  HIS201     -0.2268
     40  CD2      -13.1310   62.6310  147.0740 C.ar  201  HIS201      0.1154
     41  CE1      -11.5970   61.4980  145.9840 C.ar  201  HIS201      0.1986
     42  NE2      -12.4710   62.4790  145.8770 N.ar  201  HIS201     -0.2212
     43  N         -7.2310   57.7350  147.2900 N.3   204  GLN204     -0.1245
     44  CA        -6.3910   58.0600  146.1360 C.3   204  GLN204      0.1566
     45  C         -4.9090   57.8720  146.4520 C.2   204  GLN204      0.2260
     46  O         -4.0410   58.5130  145.8510 O.2   204  GLN204     -0.2867
     47  CB        -6.6780   59.4740  145.6020 C.3   204  GLN204      0.0367
     48  CG        -8.1550   59.7060  145.3040 C.3   204  GLN204      0.0905
     49  CD        -8.4490   61.1120  144.8510 C.2   204  GLN204      0.2608
     50  OE1       -8.2750   62.0810  145.6080 O.2   204  GLN204     -0.2717
     51  NE2       -8.9080   61.2440  143.6090 N.am  204  GLN204     -0.0878
     52  N          2.2620   70.8470  144.2520 N.3   300  ARG300     -0.1245
     53  CA         1.6330   70.8530  145.5680 C.3   300  ARG300      0.1563
     54  C          2.6260   70.4340  146.6330 C.2   300  ARG300      0.2260
     55  O          3.6210   69.7650  146.3380 O.2   300  ARG300     -0.2867
     56  CB         0.4740   69.8540  145.6170 C.3   300  ARG300      0.0307
     57  CG        -0.4110   69.8290  144.3810 C.3   300  ARG300      0.0489
     58  CD        -1.4720   68.7910  144.4860 C.3   300  ARG300      0.2205
     59  NE        -2.0840   68.5330  143.1830 N.pl3 300  ARG300     -0.0865
     60  CZ        -3.2560   67.9290  143.0340 C.cat 300  ARG300      0.5346
     61  NH1       -3.9340   67.5310  144.1120 N.pl3 300  ARG300      0.1354
     62  NH2       -3.7510   67.7250  141.8190 N.pl3 300  ARG300      0.1354
     63  N         -4.4030   64.9110  147.6610 N.3   369  ALA369     -0.1231
     64  CA        -5.2820   65.5140  146.6670 C.3   369  ALA369      0.1694
     65  C         -6.0460   66.6720  147.3020 C.2   369  ALA369      0.2592
     66  O         -6.1290   66.7640  148.5330 O.2   369  ALA369     -0.2718
     67  CB        -6.2630   64.4820  146.1480 C.3   369  ALA369      0.0304
     68  N         -6.5920   67.5620  146.4770 N.am  370  TYR370     -0.1962
     69  CA        -7.4960   68.5930  147.0000 C.3   370  TYR370      0.1771
     70  C         -8.9360   68.1540  146.7730 C.2   370  TYR370      0.2619
     71  O         -9.2140   67.2350  145.9930 O.2   370  TYR370     -0.2715
     72  CB        -7.2460   69.9820  146.3810 C.3   370  TYR370      0.0574
     73  CG        -7.3140   70.0180  144.8670 C.ar  370  TYR370     -0.0198
     74  CD1       -6.1530   70.0460  144.0990 C.ar  370  TYR370     -0.0009
     75  CD2       -8.5370   70.0220  144.2020 C.ar  370  TYR370     -0.0009
     76  CE1       -6.2120   70.0820  142.7080 C.ar  370  TYR370      0.0417
     77  CE2       -8.6070   70.0520  142.8060 C.ar  370  TYR370      0.0417
     78  CZ        -7.4420   70.0820  142.0700 C.ar  370  TYR370      0.1957
     79  OH        -7.5080   70.1060  140.6940 O.3   370  TYR370     -0.2866
     80  N         -9.8520   68.8170  147.4600 N.am  371  HIS371     -0.1973
     81  CA       -11.2520   68.4180  147.4570 C.3   371  HIS371      0.1656
     82  C        -12.0730   69.6510  147.7090 C.2   371  HIS371      0.2291
     83  O        -11.5380   70.6870  148.1360 O.2   371  HIS371     -0.2864
     84  CB       -11.5220   67.4400  148.6070 C.3   371  HIS371      0.0771
     85  CG       -10.6530   66.2180  148.5750 C.ar  371  HIS371      0.0820
     86  ND1      -10.8860   65.1560  147.7340 N.ar  371  HIS371     -0.2267
     87  CD2       -9.5370   65.9170  149.2790 C.ar  371  HIS371      0.1154
     88  CE1       -9.9560   64.2370  147.9250 C.ar  371  HIS371      0.1986
     89  NE2       -9.1310   64.6670  148.8610 N.ar  371  HIS371     -0.2212
     90  N         -7.6930   58.6950  139.0840 N.3   395  HIS395     -0.1241
     91  CA        -7.5460   59.4080  137.8040 C.3   395  HIS395      0.1621
     92  C         -7.1350   58.4680  136.6880 C.2   395  HIS395      0.2264
     93  O         -6.3830   58.8460  135.7820 O.2   395  HIS395     -0.2867
     94  CB        -6.5690   60.5810  137.9030 C.3   395  HIS395      0.0745
     95  CG        -7.1130   61.7340  138.6790 C.ar  395  HIS395      0.0817
     96  ND1       -6.4150   62.9140  138.8610 N.ar  395  HIS395     -0.2268
     97  CD2       -8.2910   61.8940  139.3230 C.ar  395  HIS395      0.1154
     98  CE1       -7.1430   63.7470  139.5830 C.ar  395  HIS395      0.1986
     99  NE2       -8.2890   63.1510  139.8720 N.ar  395  HIS395     -0.2212
@<TRIPOS>BOND
     1    93    92    2
     2    92    91    1
     3    27    26    2
     4    28    29    1
     5    28    25    1
     6    26    25    1
     7    91    94    1
     8    91    90    1
     9    94    95    1
    10    29    30    1
    11    25    24    1
    12    95    96   ar
    13    95    97   ar
    14    96    98   ar
    15    30    31   ar
    16    30    32   ar
    17    24    21   am
    18    97    99   ar
    19    98    99   ar
    20    21    22    2
    21    21    20    1
    22    19    20    1
    23    79    78    1
    24    18    16   ar
    25     7     9   ar
    26     7     6   ar
    27    20    23    1
    28    15    16    1
    29    15    12    1
    30     9    10   ar
    31    14    13    2
    32    62    60    1
    33    16    17   ar
    34    78    76   ar
    35    78    77   ar
    36    11    12    1
    37     3     4    2
    38     3     2    1
    39     6     5    1
    40     6     8   ar
    41     5     2    1
    42    12    13    1
    43    76    74   ar
    44    77    75   ar
    45    10     8   ar
    46    60    59    2
    47    60    61    1
    48     2     1    1
    49    59    58    1
    50    51    49   am
    51    74    73   ar
    52    75    73   ar
    53    52    53    1
    54    57    58    1
    55    57    56    1
    56    49    48    1
    57    49    50    2
    58    73    72    1
    59    48    47    1
    60    53    56    1
    61    53    54    1
    62    47    44    1
    63    46    45    2
    64    42    41   ar
    65    42    40   ar
    66    41    39   ar
    67    71    70    2
    68    44    45    1
    69    44    43    1
    70    67    64    1
    71    55    54    2
    72    72    69    1
    73    68    69    1
    74    68    65   am
    75    64    65    1
    76    64    63    1
    77    70    69    1
    78    70    80   am
    79    40    38   ar
    80    39    38   ar
    81    65    66    2
    82    81    80    1
    83    81    82    1
    84    81    84    1
    85    82    83    2
    86    86    88   ar
    87    86    85   ar
    88    38    37    1
    89    88    89   ar
    90    85    84    1
    91    85    87   ar
    92    89    87   ar
    93    37    34    1
    94    35    34    1
    95    35    36    2
    96    34    33    1
