@<TRIPOS>MOLECULE
tmp/4pxdB00.pdb
 137 130 0 0 0
SMALL
GASTEIGER

@<TRIPOS>ATOM
      1  N         20.7690   15.5470    6.9860 N.3    81  HIS81      -0.1241
      2  CA        19.4740   14.8700    6.8760 C.3    81  HIS81       0.1621
      3  C         19.2840   14.1700    5.5080 C.2    81  HIS81       0.2264
      4  O         19.7490   14.6760    4.4840 O.2    81  HIS81      -0.2867
      5  CB        18.3420   15.8720    7.1680 C.3    81  HIS81       0.0745
      6  CG        18.2740   17.0150    6.2020 C.ar   81  HIS81       0.0817
      7  ND1       19.0200   18.1670    6.3510 N.ar   81  HIS81      -0.2268
      8  CD2       17.5450   17.1820    5.0720 C.ar   81  HIS81       0.1154
      9  CE1       18.7550   18.9940    5.3550 C.ar   81  HIS81       0.1986
     10  NE2       17.8600   18.4230    4.5660 N.ar   81  HIS81      -0.2212
     11  N         20.5610   19.2540   -1.1800 N.3    92  ASP92      -0.1239
     12  CA        20.0320   19.5990    0.1350 C.3    92  ASP92       0.1674
     13  C         19.9140   18.3590    1.0110 C.2    92  ASP92       0.2266
     14  O         19.2320   17.3960    0.6550 O.2    92  ASP92      -0.2867
     15  CB        18.6570   20.2820   -0.0300 C.3    92  ASP92       0.1410
     16  CG        17.9990   20.6790    1.3030 C.2    92  ASP92       0.3668
     17  OD1       16.8920   21.2620    1.2390 O.co2  92  ASP92      -0.2456
     18  OD2       18.5570   20.4260    2.4030 O.co2  92  ASP92      -0.2456
     19  N         14.8400   16.5450    8.8310 N.3   126  ALA126     -0.1231
     20  CA        15.0450   17.9060    9.2570 C.3   126  ALA126      0.1694
     21  C         14.2210   18.8350    8.3630 C.2   126  ALA126      0.2591
     22  O         14.2270   20.0470    8.5530 O.2   126  ALA126     -0.2718
     23  CB        16.5360   18.2720    9.2050 C.3   126  ALA126      0.0304
     24  N         13.4990   18.2730    7.3980 N.am  127  GLU127     -0.1979
     25  CA        12.7050   19.1110    6.5160 C.3   127  GLU127      0.1602
     26  C         11.3470   19.5330    7.0820 C.2   127  GLU127      0.2287
     27  O         10.7900   20.5570    6.6720 O.2   127  GLU127     -0.2864
     28  CB        12.5420   18.4600    5.1400 C.3   127  GLU127      0.0415
     29  CG        13.8440   18.3650    4.3470 C.3   127  GLU127      0.1163
     30  CD        14.3650   19.7340    3.8930 C.2   127  GLU127      0.3649
     31  OE1       13.7400   20.7840    4.2000 O.co2 127  GLU127     -0.2457
     32  OE2       15.4000   19.7560    3.2070 O.co2 127  GLU127     -0.2457
     33  N          9.4240   18.9250   13.2760 N.3   134  VAL134     -0.1231
     34  CA        10.7300   19.0980   12.6280 C.3   134  VAL134      0.1692
     35  C         11.8500   18.5110   13.4540 C.2   134  VAL134      0.2592
     36  O         11.7530   18.4610   14.6750 O.2   134  VAL134     -0.2718
     37  CB        11.1380   20.5740   12.4980 C.3   134  VAL134      0.0266
     38  CG1       11.8830   20.8140   11.1700 C.3   134  VAL134      0.0020
     39  CG2        9.9560   21.4710   12.6540 C.3   134  VAL134      0.0020
     40  N         12.9300   18.1260   12.7830 N.am  135  PHE135     -0.1976
     41  CA        14.1300   17.6210   13.4470 C.3   135  PHE135      0.1639
     42  C         13.8450   16.3780   14.3040 C.2   135  PHE135      0.2290
     43  O         14.4880   16.1850   15.3310 O.2   135  PHE135     -0.2864
     44  CB        14.7840   18.6980   14.3360 C.3   135  PHE135      0.0560
     45  CG        15.2830   19.9200   13.5890 C.ar  135  PHE135     -0.0200
     46  CD1       14.9110   21.1950   13.9980 C.ar  135  PHE135     -0.0042
     47  CD2       16.1380   19.8000   12.5120 C.ar  135  PHE135     -0.0042
     48  CE1       15.3680   22.3150   13.3370 C.ar  135  PHE135     -0.0003
     49  CE2       16.6050   20.9260   11.8430 C.ar  135  PHE135     -0.0003
     50  CZ        16.2190   22.1840   12.2610 C.ar  135  PHE135     -0.0000
     51  N         27.2140   21.3200    3.8220 N.3   190  HIS190     -0.1241
     52  CA        25.9090   21.6010    3.2210 C.3   190  HIS190      0.1621
     53  C         26.0160   22.6730    2.1540 C.2   190  HIS190      0.2264
     54  O         26.8860   23.5540    2.2260 O.2   190  HIS190     -0.2867
     55  CB        24.9410   22.0930    4.2940 C.3   190  HIS190      0.0745
     56  CG        23.5010   21.7970    3.9980 C.ar  190  HIS190      0.0817
     57  ND1       22.7580   22.5280    3.0960 N.ar  190  HIS190     -0.2268
     58  CD2       22.6660   20.8540    4.4990 C.ar  190  HIS190      0.1154
     59  CE1       21.5280   22.0470    3.0490 C.ar  190  HIS190      0.1986
     60  NE2       21.4450   21.0330    3.8910 N.ar  190  HIS190     -0.2212
     61  N         22.3990   27.1270   -0.3750 N.3   193  GLN193     -0.1245
     62  CA        20.9850   27.2520   -0.7710 C.3   193  GLN193      0.1566
     63  C         20.6240   28.6410   -1.3060 C.2   193  GLN193      0.2260
     64  O         19.8550   28.7700   -2.2650 O.2   193  GLN193     -0.2867
     65  CB        20.0150   26.7280    0.3090 C.3   193  GLN193      0.0367
     66  CG        20.1490   25.1990    0.4720 C.3   193  GLN193      0.0905
     67  CD        19.3360   24.6040    1.6180 C.2   193  GLN193      0.2608
     68  OE1       19.6160   24.8580    2.7910 O.2   193  GLN193     -0.2717
     69  NE2       18.3420   23.7780    1.2790 N.am  193  GLN193     -0.0878
     70  N         13.4380   30.3380   13.5930 N.3   213  GLN213     -0.1245
     71  CA        12.4530   29.9010   12.6130 C.3   213  GLN213      0.1566
     72  C         11.1530   29.4890   13.2940 C.2   213  GLN213      0.2260
     73  O         11.1730   28.7420   14.2790 O.2   213  GLN213     -0.2867
     74  CB        13.0210   28.7270   11.7930 C.3   213  GLN213      0.0367
     75  CG        11.9980   28.0390   10.8860 C.3   213  GLN213      0.0905
     76  CD        12.6340   27.0480    9.9340 C.2   213  GLN213      0.2608
     77  OE1       11.9430   26.3720    9.1720 O.2   213  GLN213     -0.2717
     78  NE2       13.9560   26.9530    9.9760 N.am  213  GLN213     -0.0878
     79  N          7.1410   27.8980   12.4180 N.3   215  ARG215     -0.1245
     80  CA         6.2060   27.3120   11.4700 C.3   215  ARG215      0.1563
     81  C          4.8690   27.1410   12.1500 C.2   215  ARG215      0.2260
     82  O          4.7930   26.5490   13.2300 O.2   215  ARG215     -0.2867
     83  CB         6.7070   25.9580   10.9350 C.3   215  ARG215      0.0307
     84  CG         8.0530   26.0230   10.1960 C.3   215  ARG215      0.0489
     85  CD         8.3360   24.7400    9.3950 C.3   215  ARG215      0.2205
     86  NE         9.6980   24.7640    8.8660 N.pl3 215  ARG215     -0.0865
     87  CZ        10.2560   23.7790    8.1730 C.cat 215  ARG215      0.5346
     88  NH1        9.5600   22.6690    7.9080 N.pl3 215  ARG215      0.1354
     89  NH2       11.5160   23.8990    7.7480 N.pl3 215  ARG215      0.1354
     90  N         11.2470   33.5130    9.4220 N.3   288  ARG288     -0.1245
     91  CA        12.5820   33.3890    9.9910 C.3   288  ARG288      0.1563
     92  C         13.2950   34.7340   10.1100 C.2   288  ARG288      0.2260
     93  O         12.9800   35.6900    9.3890 O.2   288  ARG288     -0.2867
     94  CB        13.4250   32.4440    9.1370 C.3   288  ARG288      0.0307
     95  CG        12.6240   31.2580    8.5850 C.3   288  ARG288      0.0489
     96  CD        13.5160   30.2190    7.9290 C.3   288  ARG288      0.2205
     97  NE        12.7210   29.2300    7.2190 N.pl3 288  ARG288     -0.0865
     98  CZ        13.2110   28.1120    6.6940 C.cat 288  ARG288      0.5346
     99  NH1       14.5180   27.8180    6.7990 N.pl3 288  ARG288      0.1354
    100  NH2       12.3890   27.2850    6.0640 N.pl3 288  ARG288      0.1354
    101  N          6.5530   24.7150   15.1480 N.3   323  MET323     -0.1245
    102  CA         7.9980   24.8480   15.2230 C.3   323  MET323      0.1570
    103  C          8.3130   26.2420   15.7470 C.2   323  MET323      0.2261
    104  O          7.8440   27.2360   15.2020 O.2   323  MET323     -0.2867
    105  CB         8.6450   24.6180   13.8560 C.3   323  MET323      0.0387
    106  CG        10.1520   24.8360   13.8380 C.3   323  MET323      0.0595
    107  SD        10.8440   24.8820   12.1680 S.3   323  MET323     -0.1393
    108  CE        12.5890   24.7680   12.5300 C.3   323  MET323      0.0692
    109  N         18.8790   28.9220    6.3600 N.3   356  ALA356     -0.1231
    110  CA        18.1150   27.6720    6.4030 C.3   356  ALA356      0.1694
    111  C         18.3540   27.0010    7.7400 C.2   356  ALA356      0.2593
    112  O         19.3520   27.2780    8.4070 O.2   356  ALA356     -0.2718
    113  CB        18.5190   26.7420    5.2710 C.3   356  ALA356      0.0304
    114  N         17.4440   26.1250    8.1410 N.am  357  GLY357     -0.1942
    115  CA        17.6310   25.3650    9.3600 C.3   357  GLY357      0.2014
    116  C         18.4230   24.1080    9.0740 C.2   357  GLY357      0.2638
    117  O         18.4210   23.6250    7.9390 O.2   357  GLY357     -0.2714
    118  N         19.1010   23.5880   10.0970 N.am  358  HIS358     -0.1973
    119  CA        19.9600   22.4150    9.9550 C.3   358  HIS358      0.1656
    120  C         19.9610   21.6190   11.2470 C.2   358  HIS358      0.2291
    121  O         19.7100   22.1690   12.3190 O.2   358  HIS358     -0.2864
    122  CB        21.4000   22.8260    9.6140 C.3   358  HIS358      0.0771
    123  CG        21.5370   23.5140    8.2920 C.ar  358  HIS358      0.0820
    124  ND1       21.5990   22.8250    7.1000 N.ar  358  HIS358     -0.2267
    125  CD2       21.6090   24.8280    7.9730 C.ar  358  HIS358      0.1154
    126  CE1       21.7060   23.6860    6.1020 C.ar  358  HIS358      0.1986
    127  NE2       21.7110   24.9070    6.6030 N.ar  358  HIS358     -0.2212
    128  N         15.2460   23.8390   -2.7930 N.3   382  HIS382     -0.1241
    129  CA        13.8750   23.3740   -2.6610 C.3   382  HIS382      0.1621
    130  C         13.1850   23.4340   -4.0290 C.2   382  HIS382      0.2264
    131  O         12.0300   23.8410   -4.1530 O.2   382  HIS382     -0.2867
    132  CB        13.1270   24.2040   -1.5960 C.3   382  HIS382      0.0745
    133  CG        13.5030   23.8500   -0.1840 C.ar  382  HIS382      0.0817
    134  ND1       12.8780   24.3970    0.9190 N.ar  382  HIS382     -0.2268
    135  CD2       14.4320   22.9900    0.3010 C.ar  382  HIS382      0.1154
    136  CE1       13.4020   23.8870    2.0200 C.ar  382  HIS382      0.1986
    137  NE2       14.3540   23.0360    1.6750 N.ar  382  HIS382     -0.2212
@<TRIPOS>BOND
     1   131   130    2
     2   130   129    1
     3   128   129    1
     4   129   132    1
     5    64    63    2
     6   132   133    1
     7    63    62    1
     8    11    12    1
     9    62    61    1
    10    62    65    1
    11   133   135   ar
    12   133   134   ar
    13    15    12    1
    14    15    16    1
    15    12    13    1
    16   135   137   ar
    17    65    66    1
    18    66    67    1
    19    14    13    2
    20   134   136   ar
    21    17    16   ar
    22    69    67   am
    23    16    18   ar
    24    67    68    2
    25   137   136   ar
    26    53    54    2
    27    53    52    1
    28    59    57   ar
    29    59    60   ar
    30    57    56   ar
    31    32    30   ar
    32    52    51    1
    33    52    55    1
    34    60    58   ar
    35    30    31   ar
    36    30    29    1
    37    56    55    1
    38    56    58   ar
    39    29    28    1
    40     4     3    2
    41    10     8   ar
    42    10     9   ar
    43     8     6   ar
    44    28    25    1
    45   113   110    1
    46     9     7   ar
    47     3     2    1
    48   100    98    1
    49   126   127   ar
    50   126   124   ar
    51     6     7   ar
    52     6     5    1
    53   109   110    1
    54   110   111    1
    55    25    26    1
    56    25    24    1
    57   127   125   ar
    58    27    26    2
    59    98    99    1
    60    98    97    2
    61     2     1    1
    62     2     5    1
    63   124   123   ar
    64    97    96    1
    65    24    21   am
    66   111   114   am
    67   111   112    2
    68    89    87    1
    69    88    87    1
    70    96    95    1
    71   117   116    2
    72   125   123   ar
    73   114   115    1
    74    87    86    2
    75   123   122    1
    76    21    22    2
    77    21    20    1
    78    95    94    1
    79    19    20    1
    80    86    85    1
    81   116   115    1
    82   116   118   am
    83    94    91    1
    84    77    76    2
    85    23    20    1
    86    93    92    2
    87    85    84    1
    88    90    91    1
    89   122   119    1
    90    76    78   am
    91    76    75    1
    92   119   118    1
    93   119   120    1
    94    91    92    1
    95    84    83    1
    96    75    74    1
    97    83    80    1
    98    38    37    1
    99   120   121    2
   100    80    81    1
   101    80    79    1
   102    74    71    1
   103    49    50   ar
   104    49    47   ar
   105    81    82    2
   106   107   108    1
   107   107   106    1
   108    50    48   ar
   109    37    34    1
   110    37    39    1
   111    47    45   ar
   112    71    72    1
   113    71    70    1
   114    34    33    1
   115    34    35    1
   116    40    41    1
   117    40    35   am
   118    72    73    2
   119    48    46   ar
   120    41    42    1
   121    41    44    1
   122    35    36    2
   123    45    46   ar
   124    45    44    1
   125   106   105    1
   126   105   102    1
   127    42    43    2
   128   101   102    1
   129   104   103    2
   130   102   103    1
