@<TRIPOS>MOLECULE
tmp/4pxfA00.pdb
 171 158 0 0 0
SMALL
GASTEIGER

@<TRIPOS>ATOM
      1  N        130.4570  228.3740   31.9000 N.3    71  LEU71      -0.1231
      2  CA       129.6320  229.3260   32.6460 C.3    71  LEU71       0.1693
      3  C        130.4390  230.1140   33.7240 C.2    71  LEU71       0.2592
      4  O        129.9970  231.1630   34.2260 O.2    71  LEU71      -0.2718
      5  CB       128.4400  228.5920   33.2720 C.3    71  LEU71       0.0284
      6  CG       127.1610  229.4140   33.4560 C.3    71  LEU71       0.0019
      7  CD1      125.9440  228.5200   33.3320 C.3    71  LEU71       0.0001
      8  CD2      127.1570  230.1350   34.8000 C.3    71  LEU71       0.0001
      9  N        131.6110  229.6020   34.0890 N.am   72  ASN72      -0.1974
     10  CA       132.5260  230.3550   34.9180 C.3    72  ASN72       0.1688
     11  C        133.4970  231.2920   34.1970 C.2    72  ASN72       0.2292
     12  O        134.0830  232.1820   34.8470 O.2    72  ASN72      -0.2864
     13  CB       133.3020  229.3910   35.7960 C.3    72  ASN72       0.1181
     14  CG       132.4390  228.7730   36.8930 C.2    72  ASN72       0.2629
     15  OD1      131.2920  229.1750   37.1390 O.2    72  ASN72      -0.2716
     16  ND2      133.0010  227.8000   37.5600 N.am   72  ASN72      -0.0877
     17  N        133.1420  234.7920   35.1630 N.3    75  LEU75      -0.1245
     18  CA       133.5650  235.1050   36.5130 C.3    75  LEU75       0.1561
     19  C        135.0880  235.2170   36.6360 C.2    75  LEU75       0.2260
     20  O        135.6070  235.9090   37.5310 O.2    75  LEU75      -0.2867
     21  CB       133.0690  234.0550   37.5080 C.3    75  LEU75       0.0270
     22  CG       131.5550  233.8920   37.5820 C.3    75  LEU75       0.0019
     23  CD1      131.2320  232.6060   38.2900 C.3    75  LEU75       0.0001
     24  CD2      130.9310  235.0770   38.2720 C.3    75  LEU75       0.0001
     25  N        126.9410  237.9650   32.4110 N.3   130  LEU130     -0.1245
     26  CA       126.6010  236.8290   33.3140 C.3   130  LEU130      0.1561
     27  C        125.1010  236.6840   33.4640 C.2   130  LEU130      0.2260
     28  O        124.5610  235.6060   33.2690 O.2   130  LEU130     -0.2867
     29  CB       127.2380  236.9900   34.6800 C.3   130  LEU130      0.0270
     30  CG       126.8840  235.9450   35.7690 C.3   130  LEU130      0.0019
     31  CD1      127.1210  234.5260   35.2760 C.3   130  LEU130      0.0001
     32  CD2      127.6770  236.1990   37.0590 C.3   130  LEU130      0.0001
     33  N        122.9150  233.5860   32.3240 N.3   134  ARG134     -0.1245
     34  CA       122.0060  232.9590   33.2830 C.3   134  ARG134      0.1563
     35  C        120.5780  232.9590   32.7560 C.2   134  ARG134      0.2260
     36  O        119.9230  231.9230   32.6970 O.2   134  ARG134     -0.2867
     37  CB       122.0660  233.6910   34.6260 C.3   134  ARG134      0.0307
     38  CG       123.1430  233.1720   35.5760 C.3   134  ARG134      0.0489
     39  CD       123.5740  234.2320   36.5650 C.3   134  ARG134      0.2205
     40  NE       124.6330  233.7300   37.4380 N.pl3 134  ARG134     -0.0865
     41  CZ       124.8930  234.1870   38.6740 C.cat 134  ARG134      0.5346
     42  NH1      124.2060  235.1970   39.1930 N.pl3 134  ARG134      0.1354
     43  NH2      125.8470  233.6360   39.3730 N.pl3 134  ARG134      0.1354
     44  N        120.0460  230.2420   29.9010 N.3   137  VAL137     -0.1231
     45  CA       119.9660  228.8430   30.3670 C.3   137  VAL137      0.1692
     46  C        118.7460  228.5580   31.2570 C.2   137  VAL137      0.2591
     47  O        118.1210  227.5040   31.1360 O.2   137  VAL137     -0.2718
     48  CB       121.2500  228.3920   31.0980 C.3   137  VAL137      0.0266
     49  CG1      121.0850  226.9790   31.6330 C.3   137  VAL137      0.0020
     50  CG2      122.4200  228.4220   30.1390 C.3   137  VAL137      0.0020
     51  N        118.4030  229.4870   32.1400 N.am  138  VAL138     -0.1980
     52  CA       117.2630  229.2790   33.0380 C.3   138  VAL138      0.1595
     53  C        115.9190  229.5430   32.3710 C.2   138  VAL138      0.2287
     54  O        115.0200  228.7180   32.4280 O.2   138  VAL138     -0.2864
     55  CB       117.3720  230.1360   34.3210 C.3   138  VAL138      0.0276
     56  CG1      116.1620  229.9220   35.2310 C.3   138  VAL138      0.0022
     57  CG2      118.6370  229.7800   35.0830 C.3   138  VAL138      0.0022
     58  N        115.2520  229.8600   29.1880 N.3   140  LYS140     -0.1245
     59  CA       115.1560  229.1580   27.8900 C.3   140  LYS140      0.1561
     60  C        114.3700  229.9320   26.8420 C.2   140  LYS140      0.2260
     61  O        113.3750  229.4360   26.3190 O.2   140  LYS140     -0.2867
     62  CB       114.5640  227.7510   28.0700 C.3   140  LYS140      0.0271
     63  CG       115.6010  226.6380   27.9670 C.3   140  LYS140      0.0035
     64  CD       115.3820  225.5450   29.0030 C.3   140  LYS140      0.0206
     65  CE       116.6270  224.6850   29.1760 C.3   140  LYS140      0.1093
     66  NZ       116.9310  224.4350   30.6130 N.3   140  LYS140     -0.1314
     67  N        117.3690  239.3150   35.1280 N.3   222  TYR222     -0.1241
     68  CA       117.0880  238.7680   36.4680 C.3   222  TYR222      0.1605
     69  C        115.5860  238.8280   36.8050 C.2   222  TYR222      0.2264
     70  O        115.0610  237.9430   37.4650 O.2   222  TYR222     -0.2867
     71  CB       117.9500  239.4320   37.5700 C.3   222  TYR222      0.0534
     72  CG       119.4160  238.9850   37.5540 C.ar  222  TYR222     -0.0201
     73  CD1      119.7570  237.6390   37.4360 C.ar  222  TYR222     -0.0009
     74  CD2      120.4560  239.9070   37.6510 C.ar  222  TYR222     -0.0009
     75  CE1      121.0880  237.2270   37.4030 C.ar  222  TYR222      0.0417
     76  CE2      121.7880  239.4960   37.6250 C.ar  222  TYR222      0.0417
     77  CZ       122.1030  238.1560   37.5020 C.ar  222  TYR222      0.1957
     78  OH       123.4380  237.7640   37.4760 O.3   222  TYR222     -0.2866
     79  N        114.2010  235.7950   35.2220 N.3   225  LEU225     -0.1245
     80  CA       114.7420  234.6230   35.9190 C.3   225  LEU225      0.1561
     81  C        113.9430  234.3840   37.1950 C.2   225  LEU225      0.2260
     82  O        113.4290  233.2870   37.4170 O.2   225  LEU225     -0.2867
     83  CB       116.2350  234.8050   36.2400 C.3   225  LEU225      0.0270
     84  CG       117.0030  233.5490   36.6730 C.3   225  LEU225      0.0019
     85  CD1      118.3730  233.4900   36.0200 C.3   225  LEU225      0.0001
     86  CD2      117.1510  233.4770   38.1860 C.3   225  LEU225      0.0001
     87  N        111.5810  231.0590   38.0140 N.3   229  VAL229     -0.1245
     88  CA       111.8380  230.2240   39.1970 C.3   229  VAL229      0.1561
     89  C        110.6310  230.2150   40.1490 C.2   229  VAL229      0.2260
     90  O        110.1990  229.1540   40.6100 O.2   229  VAL229     -0.2867
     91  CB       113.1290  230.6800   39.9110 C.3   229  VAL229      0.0252
     92  CG1      113.2740  230.0250   41.2780 C.3   229  VAL229      0.0019
     93  CG2      114.3390  230.3530   39.0470 C.3   229  VAL229      0.0019
     94  N        115.3340  226.4430   46.7890 N.3   245  ALA245     -0.1245
     95  CA       116.0300  226.9590   45.6070 C.3   245  ALA245      0.1562
     96  C        115.4630  228.2940   45.1560 C.2   245  ALA245      0.2260
     97  O        116.2070  229.1930   44.7690 O.2   245  ALA245     -0.2867
     98  CB       115.9580  225.9550   44.4590 C.3   245  ALA245      0.0290
     99  N        116.3620  231.1700   47.7110 N.3   248  GLU248     -0.1231
    100  CA       117.7950  231.4740   47.6350 C.3   248  GLU248      0.1699
    101  C        118.1660  232.1630   46.3080 C.2   248  GLU248      0.2592
    102  O        118.9970  233.0650   46.2640 O.2   248  GLU248     -0.2718
    103  CB       118.6250  230.1960   47.8310 C.3   248  GLU248      0.0402
    104  CG       120.0860  230.4510   48.1960 C.3   248  GLU248      0.1161
    105  CD       120.2960  230.7780   49.6680 C.2   248  GLU248      0.3649
    106  OE1      119.6130  230.1650   50.5200 O.co2 248  GLU248     -0.2457
    107  OE2      121.1540  231.6440   49.9800 O.co2 248  GLU248     -0.2457
    108  N        117.5450  231.7410   45.2240 N.am  249  VAL249     -0.1980
    109  CA       117.7800  232.3950   43.9330 C.3   249  VAL249      0.1595
    110  C        117.2660  233.8310   43.9560 C.2   249  VAL249      0.2287
    111  O        117.8430  234.7330   43.3330 O.2   249  VAL249     -0.2864
    112  CB       117.0990  231.6330   42.8050 C.3   249  VAL249      0.0276
    113  CG1      117.0340  232.4830   41.5300 C.3   249  VAL249      0.0022
    114  CG2      117.8580  230.3460   42.5430 C.3   249  VAL249      0.0022
    115  N        119.7280  236.0810   46.1270 N.3   252  MET252     -0.1230
    116  CA       120.9470  236.4230   45.3980 C.3   252  MET252      0.1702
    117  C        120.7100  237.5200   44.3830 C.2   252  MET252      0.2592
    118  O        121.5440  238.3990   44.1780 O.2   252  MET252     -0.2718
    119  CB       121.4930  235.2000   44.6790 C.3   252  MET252      0.0401
    120  CG       122.3780  234.3460   45.5730 C.3   252  MET252      0.0596
    121  SD       123.6280  235.3110   46.4610 S.3   252  MET252     -0.1393
    122  CE       125.0820  234.9410   45.4760 C.3   252  MET252      0.0692
    123  N        119.5840  237.4480   43.7130 N.am  253  VAL253     -0.1980
    124  CA       119.2500  238.4700   42.7360 C.3   253  VAL253      0.1595
    125  C        119.0920  239.8450   43.3940 C.2   253  VAL253      0.2287
    126  O        119.6480  240.8490   42.9340 O.2   253  VAL253     -0.2864
    127  CB       117.9970  238.0820   41.9200 C.3   253  VAL253      0.0276
    128  CG1      117.4570  239.2740   41.1390 C.3   253  VAL253      0.0022
    129  CG2      118.3460  236.9500   40.9650 C.3   253  VAL253      0.0022
    130  N        122.5380  241.0040   44.1710 N.3   256  MET256     -0.1245
    131  CA       123.3080  241.3560   42.9600 C.3   256  MET256      0.1570
    132  C        122.8800  242.6990   42.4020 C.2   256  MET256      0.2261
    133  O        123.7140  243.5640   42.0670 O.2   256  MET256     -0.2867
    134  CB       123.1240  240.2990   41.8910 C.3   256  MET256      0.0387
    135  CG       123.9830  239.0680   42.0950 C.3   256  MET256      0.0595
    136  SD       123.9130  238.0710   40.5900 S.3   256  MET256     -0.1393
    137  CE       122.2060  237.5230   40.6200 C.3   256  MET256      0.0692
    138  N        130.5180  233.8300   47.3890 N.3   308  MET308     -0.1230
    139  CA       129.1670  233.3590   47.7210 C.3   308  MET308      0.1702
    140  C        128.6910  232.3410   46.7060 C.2   308  MET308      0.2592
    141  O        127.5170  232.0270   46.6290 O.2   308  MET308     -0.2718
    142  CB       128.1850  234.5240   47.7670 C.3   308  MET308      0.0401
    143  CG       128.2210  235.2940   49.0660 C.3   308  MET308      0.0596
    144  SD       126.9550  236.5700   49.0940 S.3   308  MET308     -0.1393
    145  CE       126.7110  236.6670   50.8930 C.3   308  MET308      0.0692
    146  N        129.6100  231.8710   45.8880 N.am  309  ASN309     -0.1960
    147  CA       129.3400  230.7800   44.9690 C.3   309  ASN309      0.1819
    148  C        129.8390  229.4920   45.6300 C.2   309  ASN309      0.2621
    149  O        131.0360  229.3130   45.8650 O.2   309  ASN309     -0.2715
    150  CB       130.0350  231.0460   43.6360 C.3   309  ASN309      0.1195
    151  CG       129.8860  229.9100   42.6590 C.2   309  ASN309      0.2630
    152  OD1      129.9460  228.7300   43.0540 O.2   309  ASN309     -0.2716
    153  ND2      129.7200  230.2450   41.3620 N.am  309  ASN309     -0.0877
    154  N        128.9100  228.6120   45.9650 N.am  310  LYS310     -0.1963
    155  CA       129.2410  227.3940   46.6850 C.3   310  LYS310      0.1728
    156  C        130.4180  226.6410   46.0700 C.2   310  LYS310      0.2616
    157  O        131.2850  226.1490   46.7860 O.2   310  LYS310     -0.2715
    158  CB       128.0250  226.4910   46.7390 C.3   310  LYS310      0.0311
    159  CG       128.3220  225.0900   47.2290 C.3   310  LYS310      0.0038
    160  CD       127.1270  224.1710   47.0230 C.3   310  LYS310      0.0206
    161  CE       126.1860  224.2130   48.2160 C.3   310  LYS310      0.1093
    162  NZ       126.6500  223.3460   49.3380 N.3   310  LYS310     -0.1314
    163  N        130.4500  226.5430   44.7460 N.am  311  GLN311     -0.1977
    164  CA       131.5030  225.7780   44.0850 C.3   311  GLN311      0.1601
    165  C        132.8820  226.4330   44.2970 C.2   311  GLN311      0.2287
    166  O        133.7670  225.8320   44.9160 O.2   311  GLN311     -0.2864
    167  CB       131.1850  225.5800   42.6060 C.3   311  GLN311      0.0394
    168  CG       132.2330  224.7680   41.8680 C.3   311  GLN311      0.0908
    169  CD       131.6710  224.0270   40.6640 C.2   311  GLN311      0.2608
    170  OE1      131.2970  224.6340   39.6490 O.2   311  GLN311     -0.2717
    171  NE2      131.6190  222.6980   40.7670 N.am  311  GLN311     -0.0878
@<TRIPOS>BOND
     1    61    60    2
     2    60    59    1
     3    59    62    1
     4    59    58    1
     5    63    62    1
     6    63    64    1
     7    64    65    1
     8    65    66    1
     9    44    45    1
    10    50    48    1
    11    45    48    1
    12    45    46    1
    13    48    49    1
    14    47    46    2
    15    46    51   am
    16     1     2    1
    17    51    52    1
    18    33    34    1
    19    53    54    2
    20    53    52    1
    21    25    26    1
    22     2     5    1
    23     2     3    1
    24    36    35    2
    25    35    34    1
    26    52    55    1
    27    28    27    2
    28     5     6    1
    29    34    37    1
    30    26    27    1
    31    26    29    1
    32     7     6    1
    33     6     8    1
    34     3     9   am
    35     3     4    2
    36     9    10    1
    37    11    12    2
    38    11    10    1
    39    55    57    1
    40    55    56    1
    41    37    38    1
    42    29    30    1
    43    10    13    1
    44    67    68    1
    45    17    18    1
    46    79    80    1
    47    31    30    1
    48    38    39    1
    49    30    32    1
    50    13    14    1
    51    80    83    1
    52    80    81    1
    53    85    84    1
    54    83    84    1
    55    68    69    1
    56    68    71    1
    57    18    19    1
    58    18    21    1
    59    39    40    1
    60    19    20    2
    61    84    86    1
    62    69    70    2
    63    14    15    2
    64    14    16   am
    65    81    82    2
    66    75    73   ar
    67    75    77   ar
    68    73    72   ar
    69    40    41    2
    70    78    77    1
    71    77    76   ar
    72    21    22    1
    73    72    71    1
    74    72    74   ar
    75    22    24    1
    76    22    23    1
    77    76    74   ar
    78    87    88    1
    79    41    42    1
    80    41    43    1
    81    93    91    1
    82    88    91    1
    83    88    89    1
    84   170   169    2
    85    91    92    1
    86    89    90    2
    87   136   137    1
    88   136   135    1
    89   169   171   am
    90   169   168    1
    91   129   127    1
    92   128   127    1
    93   153   151   am
    94   113   112    1
    95   168   167    1
    96   134   135    1
    97   134   131    1
    98   127   124    1
    99   133   132    2
   100   132   131    1
   101   114   112    1
   102   167   164    1
   103   151   152    2
   104   151   150    1
   105   124   125    1
   106   124   123    1
   107   112   109    1
   108   126   125    2
   109   131   130    1
   110   111   110    2
   111   150   147    1
   112   123   117   am
   113   109   110    1
   114   109   108    1
   115   164   165    1
   116   164   163    1
   117   118   117    2
   118   165   166    2
   119   117   116    1
   120    98    95    1
   121   119   116    1
   122   119   120    1
   123   163   156   am
   124    97    96    2
   125   147   148    1
   126   147   146    1
   127    96    95    1
   128   108   101   am
   129   116   115    1
   130   122   121    1
   131   120   121    1
   132    95    94    1
   133   148   149    2
   134   148   154   am
   135   146   140   am
   136   154   155    1
   137   156   155    1
   138   156   157    2
   139   102   101    2
   140   101   100    1
   141   141   140    2
   142   155   158    1
   143   140   139    1
   144   158   159    1
   145   160   159    1
   146   160   161    1
   147   138   139    1
   148   100    99    1
   149   100   103    1
   150   139   142    1
   151   142   143    1
   152   103   104    1
   153   104   105    1
   154   161   162    1
   155   143   144    1
   156   144   145    1
   157   105   107   ar
   158   105   106   ar
