@<TRIPOS>MOLECULE
tmp/4pxfA04.pdb
 96 92 0 0 0
SMALL
GASTEIGER

@<TRIPOS>ATOM
      1  N        144.2030  271.8460   48.4500 N.3    30  LEU30      -0.1231
      2  CA       142.9550  271.1000   48.1780 C.3    30  LEU30       0.1693
      3  C        142.4690  270.3580   49.4120 C.2    30  LEU30       0.2592
      4  O        141.2730  270.1970   49.6160 O.2    30  LEU30      -0.2718
      5  CB       143.1700  270.0400   47.0980 C.3    30  LEU30       0.0284
      6  CG       142.9410  270.4460   45.6600 C.3    30  LEU30       0.0019
      7  CD1      143.2000  269.2730   44.7300 C.3    30  LEU30       0.0001
      8  CD2      141.5190  270.9260   45.4830 C.3    30  LEU30       0.0001
      9  N        143.4160  269.8450   50.1910 N.am   31  ALA31      -0.1966
     10  CA       143.1100  268.9660   51.3090 C.3    31  ALA31       0.1728
     11  C        144.3200  268.8340   52.2090 C.2    31  ALA31       0.2616
     12  O        145.4540  268.9490   51.7530 O.2    31  ALA31      -0.2715
     13  CB       142.7020  267.5980   50.7950 C.3    31  ALA31       0.0334
     14  N        144.0780  268.5640   53.4850 N.am   32  GLU32      -0.1977
     15  CA       145.1660  268.4550   54.4500 C.3    32  GLU32       0.1602
     16  C        146.0490  267.2520   54.1050 C.2    32  GLU32       0.2287
     17  O        145.5880  266.3030   53.4820 O.2    32  GLU32      -0.2864
     18  CB       144.5980  268.2780   55.8580 C.3    32  GLU32       0.0415
     19  CG       143.6670  269.3860   56.3260 C.3    32  GLU32       0.1163
     20  CD       144.4020  270.5350   56.9610 C.2    32  GLU32       0.3649
     21  OE1      145.4500  270.9410   56.4190 O.co2  32  GLU32      -0.2457
     22  OE2      143.9240  271.0370   58.0050 O.co2  32  GLU32      -0.2457
     23  N        146.8770  264.9110   55.9970 N.3    34  TRP34      -0.1227
     24  CA       146.3980  263.6790   56.6300 C.3    34  TRP34       0.1737
     25  C        145.3000  263.0480   55.7880 C.2    34  TRP34       0.2595
     26  O        145.1980  261.8320   55.6800 O.2    34  TRP34      -0.2718
     27  CB       145.9330  263.9070   58.0540 C.3    34  TRP34       0.0564
     28  CG       144.7030  264.6920   58.1800 C.ar   34  TRP34       0.0003
     29  CD1      144.6180  266.0130   58.4500 C.ar   34  TRP34       0.0946
     30  CD2      143.3590  264.2080   58.1050 C.ar   34  TRP34       0.0152
     31  NE1      143.3010  266.3990   58.5310 N.ar   34  TRP34      -0.2442
     32  CE2      142.5090  265.3050   58.3240 C.ar   34  TRP34       0.0810
     33  CE3      142.7910  262.9550   57.8660 C.ar   34  TRP34       0.0012
     34  CZ2      141.1250  265.1910   58.3140 C.ar   34  TRP34       0.0191
     35  CZ3      141.4080  262.8420   57.8590 C.ar   34  TRP34       0.0001
     36  CH2      140.5940  263.9550   58.0810 C.ar   34  TRP34       0.0015
     37  N        144.4910  263.8800   55.1650 N.am   35  GLN35      -0.1979
     38  CA       143.4510  263.3820   54.2840 C.3    35  GLN35       0.1601
     39  C        144.0490  262.6660   53.0610 C.2    35  GLN35       0.2287
     40  O        143.4420  261.7500   52.4920 O.2    35  GLN35      -0.2864
     41  CB       142.6020  264.5440   53.8020 C.3    35  GLN35       0.0394
     42  CG       141.8240  265.2790   54.8810 C.3    35  GLN35       0.0908
     43  CD       141.0370  266.4450   54.2990 C.2    35  GLN35       0.2608
     44  OE1      141.6020  267.4170   53.7820 O.2    35  GLN35      -0.2717
     45  NE2      139.7330  266.3400   54.3530 N.am   35  GLN35      -0.0878
     46  N        145.0330  259.2680   54.5390 N.3    38  MET38      -0.1230
     47  CA       143.8150  258.4380   54.6240 C.3    38  MET38       0.1702
     48  C        143.3280  257.9020   53.2890 C.2    38  MET38       0.2592
     49  O        142.7160  256.8080   53.2670 O.2    38  MET38      -0.2718
     50  CB       142.6620  259.1900   55.2740 C.3    38  MET38       0.0401
     51  CG       142.8060  259.3740   56.7870 C.3    38  MET38       0.0596
     52  SD       143.2580  257.9030   57.7450 S.3    38  MET38      -0.1393
     53  CE       142.1600  256.6800   57.0440 C.3    38  MET38       0.0692
     54  N        143.5240  258.6750   52.2050 N.am   39  LEU39      -0.1980
     55  CA       143.3300  258.1640   50.8780 C.3    39  LEU39       0.1596
     56  C        144.2430  256.9790   50.6940 C.2    39  LEU39       0.2287
     57  O        143.7720  255.8920   50.4060 O.2    39  LEU39      -0.2864
     58  CB       143.6350  259.2410   49.8210 C.3    39  LEU39       0.0297
     59  CG       143.7900  258.8160   48.3600 C.3    39  LEU39       0.0022
     60  CD1      142.5480  258.0990   47.9110 C.3    39  LEU39       0.0001
     61  CD2      144.0400  260.0240   47.4940 C.3    39  LEU39       0.0001
     62  N        142.9790  254.0280   52.4990 N.3    42  TYR42      -0.1241
     63  CA       141.9380  253.3580   51.6880 C.3    42  TYR42       0.1605
     64  C        142.4300  252.6030   50.4130 C.2    42  TYR42       0.2264
     65  O        141.9770  251.5080   50.1130 O.2    42  TYR42      -0.2867
     66  CB       140.8420  254.3210   51.2620 C.3    42  TYR42       0.0534
     67  CG       139.5850  253.5720   50.9480 C.ar   42  TYR42      -0.0201
     68  CD1      138.8610  252.9530   51.9710 C.ar   42  TYR42      -0.0009
     69  CD2      139.1380  253.4290   49.6320 C.ar   42  TYR42      -0.0009
     70  CE1      137.7170  252.2300   51.7070 C.ar   42  TYR42       0.0417
     71  CE2      137.9820  252.7130   49.3510 C.ar   42  TYR42       0.0417
     72  CZ       137.2760  252.1110   50.4000 C.ar   42  TYR42       0.1957
     73  OH       136.1230  251.3860   50.1530 O.3    42  TYR42      -0.2866
     74  N        141.1330  264.7380   44.5010 N.3   182  MET182     -0.1245
     75  CA       142.3560  265.2140   45.1150 C.3   182  MET182      0.1570
     76  C        143.5480  265.1060   44.1640 C.2   182  MET182      0.2261
     77  O        144.6970  265.2820   44.5640 O.2   182  MET182     -0.2867
     78  CB       142.6110  264.4540   46.4220 C.3   182  MET182      0.0387
     79  CG       141.4530  264.5750   47.3980 C.3   182  MET182      0.0595
     80  SD       141.4680  263.3040   48.6750 S.3   182  MET182     -0.1393
     81  CE       142.5930  264.0350   49.8750 C.3   182  MET182      0.0692
     82  N        136.6960  266.4370   47.5870 N.3   285  ILE285     -0.1245
     83  CA       136.2270  265.3180   48.4230 C.3   285  ILE285      0.1561
     84  C        134.8540  264.8370   47.9630 C.2   285  ILE285      0.2260
     85  O        134.4970  263.6700   48.1590 O.2   285  ILE285     -0.2867
     86  CB       136.1260  265.7130   49.9250 C.3   285  ILE285      0.0252
     87  CG1      137.4650  266.2460   50.4550 C.3   285  ILE285      0.0019
     88  CG2      135.6700  264.5300   50.7860 C.3   285  ILE285      0.0019
     89  CD1      138.6350  265.2940   50.2960 C.3   285  ILE285      0.0001
     90  N        135.3860  262.5480   44.8480 N.3   288  THR288     -0.1218
     91  CA       135.8990  261.2120   45.2070 C.3   288  THR288      0.1862
     92  C        134.7910  260.2320   45.6740 C.2   288  THR288      0.2287
     93  O        135.0040  259.0220   45.6520 O.2   288  THR288     -0.2866
     94  CB       137.0330  261.2680   46.2850 C.3   288  THR288      0.1770
     95  OG1      136.6000  262.0400   47.4020 O.3   288  THR288     -0.2211
     96  CG2      138.3430  261.8790   45.7360 C.3   288  THR288      0.0375
@<TRIPOS>BOND
     1    76    77    2
     2    76    75    1
     3    74    75    1
     4     7     6    1
     5    90    91    1
     6    75    78    1
     7    91    92    1
     8    91    94    1
     9     8     6    1
    10    93    92    2
    11     6     5    1
    12    96    94    1
    13    94    95    1
    14    78    79    1
    15     5     2    1
    16    79    80    1
    17    61    59    1
    18    82    83    1
    19    60    59    1
    20    84    85    2
    21    84    83    1
    22     2     1    1
    23     2     3    1
    24    59    58    1
    25    83    86    1
    26    80    81    1
    27    71    69   ar
    28    71    72   ar
    29     3     4    2
    30     3     9   am
    31    69    67   ar
    32    58    55    1
    33    86    87    1
    34    86    88    1
    35    65    64    2
    36    73    72    1
    37     9    10    1
    38    89    87    1
    39    72    70   ar
    40    57    56    2
    41    64    63    1
    42    56    55    1
    43    13    10    1
    44    55    54    1
    45    67    66    1
    46    67    68   ar
    47    66    63    1
    48    10    11    1
    49    63    62    1
    50    70    68   ar
    51    12    11    2
    52    54    48   am
    53    11    14   am
    54    40    39    2
    55    39    38    1
    56    49    48    2
    57    48    47    1
    58    17    16    2
    59    14    15    1
    60    44    43    2
    61    41    38    1
    62    41    42    1
    63    16    15    1
    64    38    37    1
    65    43    45   am
    66    43    42    1
    67    15    18    1
    68    46    47    1
    69    47    50    1
    70    37    25   am
    71    50    51    1
    72    26    25    2
    73    25    24    1
    74    18    19    1
    75    23    24    1
    76    19    20    1
    77    21    20   ar
    78    24    27    1
    79    51    52    1
    80    20    22   ar
    81    53    52    1
    82    35    33   ar
    83    35    36   ar
    84    33    30   ar
    85    27    28    1
    86    36    34   ar
    87    30    28   ar
    88    30    32   ar
    89    28    29   ar
    90    34    32   ar
    91    32    31   ar
    92    29    31   ar
