@<TRIPOS>MOLECULE
tmp/4pxlA01.pdb
 120 114 0 0 0
SMALL
GASTEIGER

@<TRIPOS>ATOM
      1  N        -30.8480    5.6440   59.3750 N.3   101  VAL101     -0.1245
      2  CA       -31.4910    5.4880   58.0650 C.3   101  VAL101      0.1561
      3  C        -32.4480    4.2850   58.0780 C.2   101  VAL101      0.2260
      4  O        -33.5020    4.3190   57.4360 O.2   101  VAL101     -0.2867
      5  CB       -30.4820    5.4880   56.8920 C.3   101  VAL101      0.0252
      6  CG1      -31.1800    5.2600   55.5490 C.3   101  VAL101      0.0019
      7  CG2      -29.7100    6.7900   56.8610 C.3   101  VAL101      0.0019
      8  N        -35.9560    5.6440   57.1750 N.3   105  ARG105     -0.1231
      9  CA       -36.2230    5.3200   55.7750 C.3   105  ARG105      0.1694
     10  C        -36.4390    3.8460   55.4280 C.2   105  ARG105      0.2592
     11  O        -37.4870    3.5230   54.9100 O.2   105  ARG105     -0.2718
     12  CB       -35.0800    5.9080   54.9190 C.3   105  ARG105      0.0321
     13  CG       -35.4490    6.3000   53.5040 C.3   105  ARG105      0.0489
     14  CD       -35.0960    7.7570   53.2320 C.3   105  ARG105      0.2205
     15  NE       -35.9650    8.6970   53.9530 N.pl3 105  ARG105     -0.0865
     16  CZ       -37.0900    9.2170   53.4680 C.cat 105  ARG105      0.5346
     17  NH1      -37.5090    8.8960   52.2490 N.pl3 105  ARG105      0.1354
     18  NH2      -37.8050   10.0610   54.1990 N.pl3 105  ARG105      0.1354
     19  N        -35.4350    2.9720   55.6480 N.am  106  ASP106     -0.1974
     20  CA       -35.4720    1.5630   55.2290 C.3   106  ASP106      0.1709
     21  C        -36.6440    0.7160   55.7420 C.2   106  ASP106      0.2293
     22  O        -37.4090    0.1900   54.9330 O.2   106  ASP106     -0.2864
     23  CB       -34.1070    0.8630   55.4510 C.3   106  ASP106      0.1436
     24  CG       -32.8740    1.5800   54.8950 C.2   106  ASP106      0.3671
     25  OD1      -33.0210    2.3650   53.9170 O.co2 106  ASP106     -0.2456
     26  OD2      -31.7510    1.3120   55.4010 O.co2 106  ASP106     -0.2456
     27  N        -29.6850   -4.6200   51.1660 N.3   155  TYR155     -0.1241
     28  CA       -30.8820   -3.9760   51.7240 C.3   155  TYR155      0.1605
     29  C        -31.7800   -5.1490   52.1820 C.2   155  TYR155      0.2264
     30  O        -32.6390   -5.5860   51.4250 O.2   155  TYR155     -0.2867
     31  CB       -31.5140   -3.0570   50.6630 C.3   155  TYR155      0.0534
     32  CG       -30.8980   -1.6700   50.6550 C.ar  155  TYR155     -0.0201
     33  CD1      -29.7120   -1.4150   49.9670 C.ar  155  TYR155     -0.0009
     34  CD2      -31.4740   -0.6250   51.3730 C.ar  155  TYR155     -0.0009
     35  CE1      -29.1180   -0.1500   49.9910 C.ar  155  TYR155      0.0417
     36  CE2      -30.9000    0.6470   51.3870 C.ar  155  TYR155      0.0417
     37  CZ       -29.7120    0.8760   50.7070 C.ar  155  TYR155      0.1957
     38  OH       -29.1420    2.1280   50.7150 O.3   155  TYR155     -0.2866
     39  N        -35.7020   -4.2550   52.5750 N.3   158  THR158     -0.1203
     40  CA       -36.1900   -3.7420   51.2820 C.3   158  THR158      0.1994
     41  C        -36.3410   -4.8470   50.2230 C.2   158  THR158      0.2617
     42  O        -37.3930   -4.9690   49.6090 O.2   158  THR158     -0.2717
     43  CB       -35.2730   -2.6170   50.7810 C.3   158  THR158      0.1784
     44  OG1      -34.9940   -1.7410   51.8600 O.3   158  THR158     -0.2211
     45  CG2      -35.8880   -1.8350   49.6460 C.3   158  THR158      0.0376
     46  N        -35.2940   -5.6440   50.0300 N.am  159  MET159     -0.1979
     47  CA       -35.2680   -6.7480   49.0700 C.3   159  MET159      0.1605
     48  C        -36.3110   -7.7930   49.4090 C.2   159  MET159      0.2287
     49  O        -36.9810   -8.2780   48.5120 O.2   159  MET159     -0.2864
     50  CB       -33.8870   -7.4020   49.0170 C.3   159  MET159      0.0413
     51  CG       -32.7980   -6.4970   48.5140 C.3   159  MET159      0.0598
     52  SD       -33.0780   -6.1130   46.8030 S.3   159  MET159     -0.1393
     53  CE       -33.2990   -4.3630   46.9370 C.3   159  MET159      0.0692
     54  N        -39.7330   -6.2730   48.4320 N.3   162  PHE162     -0.1241
     55  CA       -39.8700   -6.1330   46.9660 C.3   162  PHE162      0.1605
     56  C        -40.4300   -7.4210   46.3850 C.2   162  PHE162      0.2264
     57  O        -41.1350   -7.4010   45.3900 O.2   162  PHE162     -0.2867
     58  CB       -38.4810   -5.9880   46.3070 C.3   162  PHE162      0.0534
     59  CG       -37.8620   -4.6180   46.2240 C.ar  162  PHE162     -0.0203
     60  CD1      -38.4020   -3.5460   46.9290 C.ar  162  PHE162     -0.0042
     61  CD2      -36.7460   -4.3940   45.4250 C.ar  162  PHE162     -0.0042
     62  CE1      -37.8300   -2.2750   46.8400 C.ar  162  PHE162     -0.0003
     63  CE2      -36.1960   -3.1140   45.3110 C.ar  162  PHE162     -0.0003
     64  CZ       -36.7290   -2.0690   46.0390 C.ar  162  PHE162     -0.0000
     65  N        -23.9730   11.6700   47.4430 N.3   277  PHE277     -0.1241
     66  CA       -25.1060   10.8660   47.8940 C.3   277  PHE277      0.1605
     67  C        -25.2430    9.5850   47.0510 C.2   277  PHE277      0.2264
     68  O        -25.3630    8.4970   47.5980 O.2   277  PHE277     -0.2867
     69  CB       -26.3600   11.7370   47.8530 C.3   277  PHE277      0.0534
     70  CG       -27.7120   11.0930   48.0560 C.ar  277  PHE277     -0.0203
     71  CD1      -28.0580   10.5400   49.2870 C.ar  277  PHE277     -0.0042
     72  CD2      -28.6960   11.1740   47.0660 C.ar  277  PHE277     -0.0042
     73  CE1      -29.3350   10.0200   49.5040 C.ar  277  PHE277     -0.0003
     74  CE2      -29.9750   10.6720   47.2930 C.ar  277  PHE277     -0.0003
     75  CZ       -30.2780   10.0870   48.5050 C.ar  277  PHE277     -0.0000
     76  N        -23.7450    6.3570   49.5120 N.3   281  THR281     -0.1218
     77  CA       -24.8770    5.8510   50.2920 C.3   281  THR281      0.1862
     78  C        -24.6540    4.3430   50.4670 C.2   281  THR281      0.2287
     79  O        -24.2310    3.6770   49.5220 O.2   281  THR281     -0.2866
     80  CB       -26.2130    6.2490   49.6330 C.3   281  THR281      0.1770
     81  OG1      -26.3840    7.6590   49.8200 O.3   281  THR281     -0.2211
     82  CG2      -27.4300    5.4970   50.1980 C.3   281  THR281      0.0375
     83  N        -24.8060   -0.8370   46.7110 N.3   286  ILE286     -0.1245
     84  CA       -26.1010   -0.6640   46.0600 C.3   286  ILE286      0.1561
     85  C        -25.9220   -0.9620   44.5930 C.2   286  ILE286      0.2260
     86  O        -24.9600   -0.4950   43.9860 O.2   286  ILE286     -0.2867
     87  CB       -26.7000    0.7780   46.2430 C.3   286  ILE286      0.0252
     88  CG1      -26.2420    1.4710   47.5490 C.3   286  ILE286      0.0019
     89  CG2      -28.2570    0.7650   46.0920 C.3   286  ILE286      0.0019
     90  CD1      -26.3920    2.9330   47.5450 C.3   286  ILE286      0.0001
     91  N        -31.7250    7.7990   43.4800 N.3   441  PHE441     -0.1241
     92  CA       -32.4020    6.7530   44.2580 C.3   441  PHE441      0.1605
     93  C        -33.8740    7.1200   44.4200 C.2   441  PHE441      0.2264
     94  O        -34.4300    6.9750   45.5180 O.2   441  PHE441     -0.2867
     95  CB       -31.7780    6.5660   45.6620 C.3   441  PHE441      0.0534
     96  CG       -30.2950    6.3180   45.7330 C.ar  441  PHE441     -0.0203
     97  CD1      -29.7310    5.1890   45.1430 C.ar  441  PHE441     -0.0042
     98  CD2      -29.4600    7.1920   46.4310 C.ar  441  PHE441     -0.0042
     99  CE1      -28.3590    4.9680   45.2070 C.ar  441  PHE441     -0.0003
    100  CE2      -28.0880    6.9540   46.5050 C.ar  441  PHE441     -0.0003
    101  CZ       -27.5490    5.8570   45.8790 C.ar  441  PHE441     -0.0000
    102  N        -36.6380    5.8290   44.0980 N.3   443  PHE443     -0.1241
    103  CA       -37.4690    4.6260   44.1240 C.3   443  PHE443      0.1605
    104  C        -38.8010    5.0390   44.6980 C.2   443  PHE443      0.2264
    105  O        -38.8660    5.9440   45.5160 O.2   443  PHE443     -0.2867
    106  CB       -36.8700    3.5350   45.0360 C.3   443  PHE443      0.0534
    107  CG       -35.5660    2.9680   44.5560 C.ar  443  PHE443     -0.0203
    108  CD1      -35.5330    2.0180   43.5390 C.ar  443  PHE443     -0.0042
    109  CD2      -34.3670    3.3550   45.1390 C.ar  443  PHE443     -0.0042
    110  CE1      -34.3140    1.4870   43.0970 C.ar  443  PHE443     -0.0003
    111  CE2      -33.1460    2.8250   44.6880 C.ar  443  PHE443     -0.0003
    112  CZ       -33.1300    1.8930   43.6760 C.ar  443  PHE443     -0.0000
    113  N        -41.1560   -3.4440   42.3180 N.3   461  MET461     -0.1245
    114  CA       -41.8910   -2.1840   42.5500 C.3   461  MET461      0.1570
    115  C        -42.8810   -1.8820   41.4070 C.2   461  MET461      0.2261
    116  O        -42.7990   -2.4670   40.3170 O.2   461  MET461     -0.2867
    117  CB       -40.9640   -0.9940   42.8740 C.3   461  MET461      0.0387
    118  CG       -40.0460   -1.2690   44.0400 C.3   461  MET461      0.0595
    119  SD       -38.9210    0.0940   44.4110 S.3   461  MET461     -0.1393
    120  CE       -39.7740    0.7920   45.8540 C.3   461  MET461      0.0692
@<TRIPOS>BOND
     1   116   115    2
     2   115   114    1
     3   113   114    1
     4   114   117    1
     5   117   118    1
     6   110   108   ar
     7   110   112   ar
     8    91    92    1
     9   108   107   ar
    10   112   111   ar
    11    86    85    2
    12   118   119    1
    13   102   103    1
    14   103   104    1
    15   103   106    1
    16    92    93    1
    17    92    95    1
    18   119   120    1
    19    93    94    2
    20   107   106    1
    21   107   109   ar
    22    85    84    1
    23   111   109   ar
    24   104   105    2
    25    97    99   ar
    26    97    96   ar
    27    99   101   ar
    28    63    61   ar
    29    63    64   ar
    30    57    56    2
    31    61    59   ar
    32    95    96    1
    33    96    98   ar
    34   101   100   ar
    35    64    62   ar
    36    84    87    1
    37    84    83    1
    38    89    87    1
    39    59    58    1
    40    59    60   ar
    41    87    88    1
    42    58    55    1
    43    56    55    1
    44    98   100   ar
    45    52    53    1
    46    52    51    1
    47    62    60   ar
    48    55    54    1
    49    67    68    2
    50    67    66    1
    51    72    74   ar
    52    72    70   ar
    53    74    75   ar
    54    65    66    1
    55    90    88    1
    56    69    66    1
    57    69    70    1
    58    70    71   ar
    59    75    73   ar
    60    49    48    2
    61    51    50    1
    62    50    47    1
    63    47    48    1
    64    47    46    1
    65    71    73   ar
    66    76    77    1
    67    79    78    2
    68    42    41    2
    69    80    81    1
    70    80    82    1
    71    80    77    1
    72    45    43    1
    73    33    35   ar
    74    33    32   ar
    75    35    37   ar
    76    46    41   am
    77    41    40    1
    78    77    78    1
    79    32    31    1
    80    32    34   ar
    81    31    28    1
    82    37    38    1
    83    37    36   ar
    84    43    40    1
    85    43    44    1
    86    27    28    1
    87    40    39    1
    88    34    36   ar
    89    30    29    2
    90    28    29    1
    91    17    16    1
    92    14    13    1
    93    14    15    1
    94    16    15    2
    95    16    18    1
    96    13    12    1
    97    25    24   ar
    98    24    26   ar
    99    24    23    1
   100    11    10    2
   101    12     9    1
   102    22    21    2
   103    20    23    1
   104    20    19    1
   105    20    21    1
   106    10    19   am
   107    10     9    1
   108     6     5    1
   109     9     8    1
   110     7     5    1
   111     5     2    1
   112     4     3    2
   113     2     3    1
   114     2     1    1
