@<TRIPOS>MOLECULE
tmp/4pxoB01.pdb
 156 152 0 0 0
SMALL
GASTEIGER

@<TRIPOS>ATOM
      1  N         10.4950   48.9090    4.4290 N.3     9  SER9       -0.1202
      2  CA        10.6930   47.5240    3.9410 C.3     9  SER9        0.2020
      3  C         10.6420   46.4510    5.0130 C.2     9  SER9        0.2619
      4  O         11.4610   46.4340    5.9410 O.2     9  SER9       -0.2717
      5  CB        12.0230   47.4040    3.1750 C.3     9  SER9        0.2103
      6  OG        12.3920   46.0380    2.9520 O.3     9  SER9       -0.2182
      7  N          9.6940   45.5290    4.8700 N.am   10  ALA10      -0.1965
      8  CA         9.6360   44.3670    5.7570 C.3    10  ALA10       0.1728
      9  C         10.8610   43.4780    5.6400 C.2    10  ALA10       0.2616
     10  O         11.3690   42.9640    6.6550 O.2    10  ALA10      -0.2715
     11  CB         8.3720   43.5530    5.5060 C.3    10  ALA10       0.0334
     12  N         11.3510   43.2720    4.4170 N.am   11  ALA11      -0.1977
     13  CA        12.4990   42.3920    4.2400 C.3    11  ALA11       0.1597
     14  C         13.7660   42.9880    4.8810 C.2    11  ALA11       0.2287
     15  O         14.5350   42.2770    5.5330 O.2    11  ALA11      -0.2864
     16  CB        12.7100   42.0890    2.7740 C.3    11  ALA11       0.0319
     17  N         13.7280   42.5440    8.6950 N.3    14  ARG14      -0.1245
     18  CA        14.1630   41.2130    9.1430 C.3    14  ARG14       0.1563
     19  C         15.6610   41.1440    9.3860 C.2    14  ARG14       0.2260
     20  O         16.1100   40.6310   10.4120 O.2    14  ARG14      -0.2867
     21  CB        13.7890   40.1330    8.1370 C.3    14  ARG14       0.0307
     22  CG        12.2960   39.9830    7.8920 C.3    14  ARG14       0.0489
     23  CD        12.0790   39.1420    6.6530 C.3    14  ARG14       0.2205
     24  NE        10.7350   39.3040    6.1410 N.pl3  14  ARG14      -0.0865
     25  CZ        10.3580   39.0690    4.8880 C.cat  14  ARG14       0.5346
     26  NH1       11.2230   38.6660    3.9760 N.pl3  14  ARG14       0.1354
     27  NH2        9.0930   39.2730    4.5390 N.pl3  14  ARG14       0.1354
     28  N         11.7810   53.9310   -2.3040 N.3    33  LEU33      -0.1245
     29  CA        11.1130   52.9830   -3.1880 C.3    33  LEU33       0.1561
     30  C          9.8720   53.5560   -3.9020 C.2    33  LEU33       0.2260
     31  O          9.3970   52.9620   -4.8650 O.2    33  LEU33      -0.2867
     32  CB        10.7240   51.7260   -2.4180 C.3    33  LEU33       0.0270
     33  CG        11.8620   50.9860   -1.7190 C.3    33  LEU33       0.0019
     34  CD1       11.3160   49.7420   -1.0410 C.3    33  LEU33       0.0001
     35  CD2       12.9760   50.6160   -2.6880 C.3    33  LEU33       0.0001
     36  N         15.2620   52.0640   -6.5970 N.3    38  GLN38      -0.1231
     37  CA        15.5480   50.6460   -6.8100 C.3    38  GLN38       0.1698
     38  C         15.5880   50.2420   -8.2830 C.2    38  GLN38       0.2592
     39  O         16.0560   49.1490   -8.5970 O.2    38  GLN38      -0.2718
     40  CB        14.5560   49.7640   -6.0350 C.3    38  GLN38       0.0381
     41  CG        13.1450   49.6700   -6.6110 C.3    38  GLN38       0.0905
     42  CD        12.2190   50.8030   -6.1960 C.2    38  GLN38       0.2608
     43  OE1       12.6470   51.9440   -5.9820 O.2    38  GLN38      -0.2717
     44  NE2       10.9260   50.4920   -6.0990 N.am   38  GLN38      -0.0878
     45  N         15.0890   51.1140   -9.1670 N.am   39  HIS39      -0.1976
     46  CA        15.0840   50.8830  -10.6130 C.3    39  HIS39       0.1656
     47  C         16.2260   51.6200  -11.3020 C.2    39  HIS39       0.2291
     48  O         16.3540   51.5380  -12.5180 O.2    39  HIS39      -0.2864
     49  CB        13.7700   51.3810  -11.2430 C.3    39  HIS39       0.0771
     50  CG        12.5360   50.7780  -10.6470 C.ar   39  HIS39       0.0820
     51  ND1       12.3340   49.4170  -10.5710 N.ar   39  HIS39      -0.2267
     52  CD2       11.4300   51.3520  -10.1180 C.ar   39  HIS39       0.1154
     53  CE1       11.1650   49.1780  -10.0040 C.ar   39  HIS39       0.1986
     54  NE2       10.5940   50.3360   -9.7230 N.ar   39  HIS39      -0.2212
     55  N         17.4280   42.4440   -9.4310 N.3    49  GLN49      -0.1231
     56  CA        16.0320   42.3710   -9.0040 C.3    49  GLN49       0.1698
     57  C         15.3900   43.7080   -8.7250 C.2    49  GLN49       0.2593
     58  O         14.1650   43.8070   -8.7320 O.2    49  GLN49      -0.2718
     59  CB        15.9040   41.5180   -7.7390 C.3    49  GLN49       0.0381
     60  CG        15.1290   40.2710   -7.9660 C.3    49  GLN49       0.0905
     61  CD        14.8480   39.5230   -6.6950 C.2    49  GLN49       0.2608
     62  OE1       15.7650   39.1790   -5.9240 O.2    49  GLN49      -0.2717
     63  NE2       13.5740   39.2710   -6.4500 N.am   49  GLN49      -0.0878
     64  N         16.2030   44.7230   -8.4250 N.am   50  GLY50      -0.1942
     65  CA        15.6670   46.0310   -8.0660 C.3    50  GLY50       0.2014
     66  C         14.8840   45.9680   -6.7700 C.2    50  GLY50       0.2639
     67  O         13.7890   46.5290   -6.6700 O.2    50  GLY50      -0.2714
     68  N         15.4420   45.2890   -5.7680 N.am   51  ALA51      -0.1963
     69  CA        14.7860   45.1640   -4.4730 C.3    51  ALA51       0.1728
     70  C         15.8000   45.2510   -3.3320 C.2    51  ALA51       0.2616
     71  O         17.0020   45.0580   -3.5340 O.2    51  ALA51      -0.2715
     72  CB        14.0070   43.8540   -4.3840 C.3    51  ALA51       0.0334
     73  N         15.2840   45.5430   -2.1430 N.am   52  VAL52      -0.1964
     74  CA        16.0710   45.5310   -0.9180 C.3    52  VAL52       0.1712
     75  C         15.5630   44.4300    0.0110 C.2    52  VAL52       0.2458
     76  O         14.3840   44.0700   -0.0250 O.2    52  VAL52      -0.2730
     77  CB        16.0480   46.9150   -0.2110 C.3    52  VAL52       0.0289
     78  CG1       16.6000   47.9730   -1.1330 C.3    52  VAL52       0.0023
     79  CG2       14.6550   47.2940    0.2650 C.3    52  VAL52       0.0023
     80  N         16.4360   43.9100    0.8900 N.am   53  PRO53      -0.2727
     81  CA        17.8180   44.3160    1.1310 C.3    53  PRO53       0.1402
     82  C         18.8480   43.7230    0.1670 C.2    53  PRO53       0.2269
     83  O         18.6450   42.6370   -0.3930 O.2    53  PRO53      -0.2865
     84  CB        18.0850   43.7710    2.5330 C.3    53  PRO53       0.0296
     85  CG        17.2630   42.5400    2.5890 C.3    53  PRO53       0.0237
     86  CD        15.9920   42.9030    1.8610 C.3    53  PRO53       0.0939
     87  N         18.2630   38.6460   -0.7870 N.3    65  GLN65      -0.1231
     88  CA        17.2600   37.7510   -0.1810 C.3    65  GLN65       0.1698
     89  C         17.4240   37.6190    1.3260 C.2    65  GLN65       0.2593
     90  O         18.4040   37.0100    1.8330 O.2    65  GLN65      -0.2718
     91  CB        17.2270   36.3670   -0.8620 C.3    65  GLN65       0.0381
     92  CG        16.7830   36.4260   -2.3090 C.3    65  GLN65       0.0905
     93  CD        15.3090   36.7640   -2.4530 C.2    65  GLN65       0.2608
     94  OE1       14.4930   36.4780   -1.5740 O.2    65  GLN65      -0.2717
     95  NE2       14.9680   37.3880   -3.5560 N.am   65  GLN65      -0.0878
     96  N         16.4750   38.2180    2.0440 N.am   66  SER66      -0.1938
     97  CA        16.5220   38.2980    3.5010 C.3    66  SER66       0.2055
     98  C         16.7710   36.9610    4.1860 C.2    66  SER66       0.2642
     99  O         17.6040   36.9020    5.0930 O.2    66  SER66      -0.2714
    100  CB        15.2880   38.9950    4.0830 C.3    66  SER66       0.2130
    101  OG        14.0790   38.3010    3.8010 O.3    66  SER66      -0.2179
    102  N         16.1140   35.8730    3.7600 N.am   67  LEU67      -0.1977
    103  CA        16.3470   34.5810    4.4480 C.3    67  LEU67       0.1596
    104  C         17.7740   34.0660    4.1960 C.2    67  LEU67       0.2287
    105  O         18.4650   33.6200    5.1230 O.2    67  LEU67      -0.2864
    106  CB        15.3080   33.5340    4.0540 C.3    67  LEU67       0.0297
    107  CG        13.8630   33.7570    4.5310 C.3    67  LEU67       0.0022
    108  CD1       12.9600   32.7310    3.8770 C.3    67  LEU67       0.0001
    109  CD2       13.7470   33.7150    6.0340 C.3    67  LEU67       0.0001
    110  N          7.6970   34.9530    4.4180 N.3   101  ALA101     -0.1245
    111  CA         8.7070   35.4340    3.4580 C.3   101  ALA101      0.1562
    112  C          8.4580   34.9310    2.0370 C.2   101  ALA101      0.2260
    113  O          8.8160   35.6020    1.0620 O.2   101  ALA101     -0.2867
    114  CB        10.1170   35.0790    3.9230 C.3   101  ALA101      0.0290
    115  N          4.3950   38.0540    2.0630 N.3   105  HIS105     -0.1227
    116  CA         5.0670   39.3210    1.7590 C.3   105  HIS105      0.1737
    117  C          5.2830   39.6540    0.2590 C.2   105  HIS105      0.2438
    118  O          5.0250   40.7790   -0.1620 O.2   105  HIS105     -0.2733
    119  CB         6.3850   39.3970    2.5480 C.3   105  HIS105      0.0758
    120  CG         7.2370   40.5750    2.1840 C.ar  105  HIS105      0.0818
    121  ND1        8.4000   40.4530    1.4570 N.ar  105  HIS105     -0.2268
    122  CD2        7.0680   41.9000    2.4100 C.ar  105  HIS105      0.1154
    123  CE1        8.9250   41.6520    1.2660 C.ar  105  HIS105      0.1986
    124  NE2        8.1300   42.5470    1.8290 N.ar  105  HIS105     -0.2212
    125  N          5.7190   38.6800   -0.5670 N.am  106  PRO106     -0.2729
    126  CA         5.9410   39.0210   -1.9680 C.3   106  PRO106      0.1401
    127  C          4.6930   39.4920   -2.7170 C.2   106  PRO106      0.2269
    128  O          4.8240   40.1260   -3.7710 O.2   106  PRO106     -0.2865
    129  CB         6.4740   37.7170   -2.5600 C.3   106  PRO106      0.0296
    130  CG         7.1520   37.0570   -1.4100 C.3   106  PRO106      0.0237
    131  CD         6.2280   37.3370   -0.2560 C.3   106  PRO106      0.0939
    132  N          4.3560   43.8220   -2.0110 N.3   109  VAL109     -0.1231
    133  CA         5.4370   44.7770   -2.2460 C.3   109  VAL109      0.1678
    134  C          5.0900   45.8050   -3.3340 C.2   109  VAL109      0.2434
    135  O          4.1630   45.5940   -4.1190 O.2   109  VAL109     -0.2733
    136  CB         6.7600   44.0520   -2.5730 C.3   109  VAL109      0.0265
    137  CG1        7.1880   43.1960   -1.3900 C.3   109  VAL109      0.0020
    138  CG2        6.6550   43.2090   -3.8490 C.3   109  VAL109      0.0020
    139  N          5.8030   46.9460   -3.3680 N.am  110  PRO110     -0.2718
    140  CA         5.3890   48.0040   -4.2930 C.3   110  PRO110      0.1535
    141  C          5.2600   47.5840   -5.7490 C.2   110  PRO110      0.2598
    142  O          4.3310   48.0070   -6.4070 O.2   110  PRO110     -0.2715
    143  CB         6.4830   49.0730   -4.1270 C.3   110  PRO110      0.0310
    144  CG         6.9100   48.9040   -2.7020 C.3   110  PRO110      0.0237
    145  CD         6.8590   47.4220   -2.4410 C.3   110  PRO110      0.0939
    146  N          6.1640   46.7520   -6.2450 N.am  111  ARG111     -0.1978
    147  CA         6.1090   46.3460   -7.6490 C.3   111  ARG111      0.1597
    148  C          4.7810   45.6680   -8.0080 C.2   111  ARG111      0.2287
    149  O          4.2380   45.8860   -9.1010 O.2   111  ARG111     -0.2864
    150  CB         7.2680   45.4060   -7.9710 C.3   111  ARG111      0.0334
    151  CG         7.5090   45.2110   -9.4480 C.3   111  ARG111      0.0492
    152  CD         8.6130   44.1860   -9.6940 C.3   111  ARG111      0.2205
    153  NE         8.2120   42.8180   -9.3530 N.pl3 111  ARG111     -0.0865
    154  CZ         7.4260   42.0480  -10.1080 C.cat 111  ARG111      0.5346
    155  NH1        7.1320   40.8110   -9.7130 N.pl3 111  ARG111      0.1354
    156  NH2        6.9180   42.5130  -11.2480 N.pl3 111  ARG111      0.1354
@<TRIPOS>BOND
     1    48    47    2
     2    47    46    1
     3   156   154    1
     4    49    50    1
     5    49    46    1
     6    50    51   ar
     7    50    52   ar
     8    46    45    1
     9    51    53   ar
    10    52    54   ar
    11   154   155    1
    12   154   153    2
    13    53    54   ar
    14   152   151    1
    15   152   153    1
    16   151   150    1
    17    55    56    1
    18    45    38   am
    19   149   148    2
    20    56    57    1
    21    56    59    1
    22    58    57    2
    23    57    64   am
    24    39    38    2
    25    64    65    1
    26    38    37    1
    27    65    66    1
    28   148   147    1
    29   150   147    1
    30    60    59    1
    31    60    61    1
    32   147   146    1
    33    37    36    1
    34    37    40    1
    35    66    67    2
    36    66    68   am
    37    61    63   am
    38    61    62    2
    39    41    42    1
    40    41    40    1
    41   142   141    2
    42   146   141   am
    43    42    44   am
    44    42    43    2
    45    68    69    1
    46   141   140    1
    47    31    30    2
    48    69    72    1
    49    69    70    1
    50   140   143    1
    51   140   139    1
    52   143   144    1
    53   135   134    2
    54    30    29    1
    55   138   136    1
    56   128   127    2
    57    95    93   am
    58    71    70    2
    59   139   134   am
    60   139   145    1
    61   134   133    1
    62    70    73   am
    63    29    32    1
    64    29    28    1
    65   127   126    1
    66   144   145    1
    67    35    33    1
    68   136   133    1
    69   136   137    1
    70   129   126    1
    71   129   130    1
    72    93    92    1
    73    93    94    2
    74    32    33    1
    75    92    91    1
    76   133   132    1
    77    73    74    1
    78   126   125    1
    79    33    34    1
    80   130   131    1
    81    78    77    1
    82    74    77    1
    83    74    75    1
    84    91    88    1
    85    87    88    1
    86   125   131    1
    87   125   117   am
    88    83    82    2
    89    77    79    1
    90    88    89    1
    91   118   117    2
    92    76    75    2
    93    75    80   am
    94    82    81    1
    95   117   116    1
    96    80    81    1
    97    80    86    1
    98   113   112    2
    99    81    84    1
   100   123   121   ar
   101   123   124   ar
   102    89    90    2
   103    89    96   am
   104   121   120   ar
   105   116   115    1
   106   116   119    1
   107   124   122   ar
   108    86    85    1
   109   112   111    1
   110    96    97    1
   111   120   122   ar
   112   120   119    1
   113    84    85    1
   114    16    13    1
   115     6     5    1
   116     5     2    1
   117   111   114    1
   118   111   110    1
   119    97   100    1
   120    97    98    1
   121   102    98   am
   122   102   103    1
   123   101   100    1
   124   108   107    1
   125     2     1    1
   126     2     3    1
   127    26    25    1
   128   106   103    1
   129   106   107    1
   130    98    99    2
   131   104   103    1
   132   104   105    2
   133    13    12    1
   134    13    14    1
   135    12     9   am
   136   107   109    1
   137    27    25    1
   138     7     3   am
   139     7     8    1
   140    14    15    2
   141    25    24    2
   142     3     4    2
   143    11     8    1
   144     9     8    1
   145     9    10    2
   146    24    23    1
   147    23    22    1
   148    22    21    1
   149    21    18    1
   150    17    18    1
   151    18    19    1
   152    19    20    2
