@<TRIPOS>MOLECULE
tmp/4pxqA00.pdb
 106 100 0 0 0
SMALL
GASTEIGER

@<TRIPOS>ATOM
      1  N        -29.5590    3.1450    0.1050 N.3    80  TYR80      -0.1227
      2  CA       -29.7220    3.6970   -1.2390 C.3    80  TYR80       0.1736
      3  C        -29.5470    2.6270   -2.3060 C.2    80  TYR80       0.2595
      4  O        -28.7580    1.6850   -2.1640 O.2    80  TYR80      -0.2718
      5  CB       -28.7180    4.8320   -1.5010 C.3    80  TYR80       0.0548
      6  CG       -29.2090    6.2130   -1.1160 C.ar   80  TYR80      -0.0200
      7  CD1      -30.1360    6.3800   -0.0920 C.ar   80  TYR80      -0.0009
      8  CD2      -28.7240    7.3550   -1.7530 C.ar   80  TYR80      -0.0009
      9  CE1      -30.5860    7.6390    0.2850 C.ar   80  TYR80       0.0417
     10  CE2      -29.1670    8.6280   -1.3830 C.ar   80  TYR80       0.0417
     11  CZ       -30.0940    8.7560   -0.3590 C.ar   80  TYR80       0.1957
     12  OH       -30.5620    9.9770    0.0260 O.3    80  TYR80      -0.2866
     13  N        -30.2860    2.7680   -3.3870 N.am   81  ASN81      -0.1974
     14  CA       -30.0070    1.9560   -4.5390 C.3    81  ASN81       0.1688
     15  C        -29.8010    2.8590   -5.7390 C.2    81  ASN81       0.2292
     16  O        -30.7400    3.1470   -6.4790 O.2    81  ASN81      -0.2864
     17  CB       -31.1070    0.9290   -4.7650 C.3    81  ASN81       0.1181
     18  CG       -30.7440   -0.0700   -5.8330 C.2    81  ASN81       0.2629
     19  OD1      -29.7670    0.1150   -6.5670 O.2    81  ASN81      -0.2716
     20  ND2      -31.5330   -1.1410   -5.9330 N.am   81  ASN81      -0.0877
     21  N        -31.8990    3.9230  -10.2580 N.3    85  ARG85      -0.1245
     22  CA       -32.4750    5.2180  -10.6140 C.3    85  ARG85       0.1563
     23  C        -32.6240    5.2780  -12.1390 C.2    85  ARG85       0.2260
     24  O        -31.7290    4.8220  -12.8750 O.2    85  ARG85      -0.2867
     25  CB       -31.5950    6.3690  -10.1140 C.3    85  ARG85       0.0307
     26  CG       -31.4960    6.5130   -8.6060 C.3    85  ARG85       0.0489
     27  CD       -30.4520    7.5530   -8.2320 C.3    85  ARG85       0.2205
     28  NE       -30.4000    7.7630   -6.7900 N.pl3  85  ARG85      -0.0865
     29  CZ       -29.4000    8.3520   -6.1310 C.cat  85  ARG85       0.5346
     30  NH1      -29.4710    8.4550   -4.8140 N.pl3  85  ARG85       0.1354
     31  NH2      -28.3230    8.8210   -6.7690 N.pl3  85  ARG85       0.1354
     32  N        -22.2990    9.3290   -5.1930 N.3   116  GLN116     -0.1245
     33  CA       -23.3300    8.6320   -4.4200 C.3   116  GLN116      0.1566
     34  C        -23.1900    7.1090   -4.5770 C.2   116  GLN116      0.2260
     35  O        -23.3630    6.3700   -3.6220 O.2   116  GLN116     -0.2867
     36  CB       -24.7390    9.1150   -4.7810 C.3   116  GLN116      0.0367
     37  CG       -25.0000   10.5770   -4.4330 C.3   116  GLN116      0.0905
     38  CD       -26.4600   10.8590   -4.1130 C.2   116  GLN116      0.2608
     39  OE1      -27.3510   10.0940   -4.4750 O.2   116  GLN116     -0.2717
     40  NE2      -26.7030   11.9620   -3.4060 N.am  116  GLN116     -0.0878
     41  N        -22.6030   20.3450   -4.1990 N.3   344  MET344     -0.1245
     42  CA       -22.9510   18.9900   -3.8480 C.3   344  MET344      0.1570
     43  C        -21.9580   17.9970   -4.4340 C.2   344  MET344      0.2261
     44  O        -21.5690   17.0470   -3.7700 O.2   344  MET344     -0.2867
     45  CB       -24.3860   18.6700   -4.2910 C.3   344  MET344      0.0387
     46  CG       -24.8630   17.2690   -3.9060 C.3   344  MET344      0.0595
     47  SD       -26.6540   17.1520   -4.1470 S.3   344  MET344     -0.1393
     48  CE       -26.8980   15.3720   -4.0320 C.3   344  MET344      0.0692
     49  N        -30.7290   20.7790    0.1560 N.3   409  ASN409     -0.1240
     50  CA       -30.0510   19.4910    0.3530 C.3   409  ASN409      0.1653
     51  C        -28.5950   19.4870   -0.1590 C.2   409  ASN409      0.2266
     52  O        -27.7100   18.9650    0.5070 O.2   409  ASN409     -0.2867
     53  CB       -30.8670   18.3180   -0.2340 C.3   409  ASN409      0.1155
     54  CG       -30.7500   18.2100   -1.7340 C.2   409  ASN409      0.2627
     55  OD1      -31.4430   18.9080   -2.4950 O.2   409  ASN409     -0.2716
     56  ND2      -29.9090   17.3050   -2.1820 N.am  409  ASN409     -0.0877
     57  N        -25.1120   18.7510    1.9530 N.3   413  TYR413     -0.1241
     58  CA       -24.1600   17.7200    1.4950 C.3   413  TYR413      0.1605
     59  C        -22.7570   18.3060    1.3090 C.2   413  TYR413      0.2264
     60  O        -21.7620   17.6300    1.5820 O.2   413  TYR413     -0.2867
     61  CB       -24.6270   17.0950    0.1850 C.3   413  TYR413      0.0534
     62  CG       -25.6630   16.0050    0.3400 C.ar  413  TYR413     -0.0201
     63  CD1      -25.5260   15.0220    1.3170 C.ar  413  TYR413     -0.0009
     64  CD2      -26.7840   15.9460   -0.5080 C.ar  413  TYR413     -0.0009
     65  CE1      -26.4650   14.0090    1.4490 C.ar  413  TYR413      0.0417
     66  CE2      -27.7350   14.9400   -0.3800 C.ar  413  TYR413      0.0417
     67  CZ       -27.5700   13.9750    0.6030 C.ar  413  TYR413      0.1957
     68  OH       -28.4850   12.9630    0.7380 O.3   413  TYR413     -0.2866
     69  N        -40.6330   17.2230   -2.6590 N.3   474  ARG474     -0.1245
     70  CA       -41.3120   15.9260   -2.5880 C.3   474  ARG474      0.1563
     71  C        -40.8630   15.1570   -1.3460 C.2   474  ARG474      0.2260
     72  O        -39.7850   15.4230   -0.8000 O.2   474  ARG474     -0.2867
     73  CB       -41.0880   15.1200   -3.8750 C.3   474  ARG474      0.0307
     74  CG       -39.6310   14.7800   -4.1810 C.3   474  ARG474      0.0489
     75  CD       -39.5480   13.8640   -5.3840 C.3   474  ARG474      0.2205
     76  NE       -38.2130   13.2680   -5.5280 N.pl3 474  ARG474     -0.0865
     77  CZ       -37.3050   13.6590   -6.4230 C.cat 474  ARG474      0.5346
     78  NH1      -37.5830   14.6590   -7.2560 N.pl3 474  ARG474      0.1354
     79  NH2      -36.1140   13.0640   -6.4890 N.pl3 474  ARG474      0.1354
     80  N        -39.4830   12.3670   -0.5450 N.3   476  ASP476     -0.1225
     81  CA       -38.1600   11.7620   -0.3500 C.3   476  ASP476      0.1805
     82  C        -37.0350   12.7990   -0.2820 C.2   476  ASP476      0.2597
     83  O        -35.9450   12.4870    0.1740 O.2   476  ASP476     -0.2718
     84  CB       -37.8590   10.5950   -1.3100 C.3   476  ASP476      0.1424
     85  CG       -38.0170   10.9650   -2.7690 C.2   476  ASP476      0.3668
     86  OD1      -37.8970   12.1490   -3.1150 O.co2 476  ASP476     -0.2456
     87  OD2      -38.2500   10.0510   -3.5820 O.co2 476  ASP476     -0.2456
     88  N        -37.3150   14.0400   -0.6720 N.am  477  TYR477     -0.1976
     89  CA       -36.3880   15.1320   -0.3700 C.3   477  TYR477      0.1639
     90  C        -36.5920   15.6730    1.0240 C.2   477  TYR477      0.2290
     91  O        -35.6310   16.0740    1.6830 O.2   477  TYR477     -0.2864
     92  CB       -36.4180   16.2660   -1.4190 C.3   477  TYR477      0.0560
     93  CG       -35.4610   16.0340   -2.5770 C.ar  477  TYR477     -0.0198
     94  CD1      -34.0940   15.7780   -2.3470 C.ar  477  TYR477     -0.0009
     95  CD2      -35.9150   16.0520   -3.9000 C.ar  477  TYR477     -0.0009
     96  CE1      -33.2230   15.5510   -3.4090 C.ar  477  TYR477      0.0417
     97  CE2      -35.0550   15.8300   -4.9520 C.ar  477  TYR477      0.0417
     98  CZ       -33.7120   15.5780   -4.7030 C.ar  477  TYR477      0.1957
     99  OH       -32.8640   15.3660   -5.7600 O.3   477  TYR477     -0.2866
    100  N        -34.7490   13.3640    3.0820 N.3   480  THR480     -0.1218
    101  CA       -33.3180   13.6720    2.9800 C.3   480  THR480      0.1862
    102  C        -32.9750   14.8240    3.9300 C.2   480  THR480      0.2287
    103  O        -31.9910   14.7510    4.6730 O.2   480  THR480     -0.2866
    104  CB       -32.9340   14.0260    1.5250 C.3   480  THR480      0.1770
    105  OG1      -32.9660   12.8310    0.7390 O.3   480  THR480     -0.2211
    106  CG2      -31.5270   14.6520    1.4340 C.3   480  THR480      0.0375
@<TRIPOS>BOND
     1    24    23    2
     2    23    22    1
     3    22    21    1
     4    22    25    1
     5    25    26    1
     6    26    27    1
     7    27    28    1
     8    78    77    1
     9    28    29    2
    10    31    29    1
    11    19    18    2
    12    79    77    1
    13    16    15    2
    14    77    76    2
    15    29    30    1
    16    20    18   am
    17    18    17    1
    18    99    98    1
    19    15    14    1
    20    76    75    1
    21    75    74    1
    22    32    33    1
    23    97    98   ar
    24    97    95   ar
    25    36    37    1
    26    36    33    1
    27    17    14    1
    28    98    96   ar
    29    34    33    1
    30    34    35    2
    31    14    13    1
    32    39    38    2
    33    43    42    1
    34    43    44    2
    35    37    38    1
    36    45    46    1
    37    45    42    1
    38    41    42    1
    39    74    73    1
    40    47    48    1
    41    47    46    1
    42    38    40   am
    43    95    93   ar
    44    73    70    1
    45    87    85   ar
    46    96    94   ar
    47    13     3   am
    48    86    85   ar
    49    85    84    1
    50    69    70    1
    51    70    71    1
    52    93    94   ar
    53    93    92    1
    54    55    54    2
    55     3     4    2
    56     3     2    1
    57    56    54   am
    58     8    10   ar
    59     8     6   ar
    60    54    53    1
    61     5     2    1
    62     5     6    1
    63    92    89    1
    64    10    11   ar
    65    71    72    2
    66    84    81    1
    67     2     1    1
    68     6     7   ar
    69    88    89    1
    70    88    82   am
    71    80    81    1
    72    64    66   ar
    73    64    62   ar
    74    66    67   ar
    75    89    90    1
    76    11    12    1
    77    11     9   ar
    78    81    82    1
    79    82    83    2
    80    53    50    1
    81    51    50    1
    82    51    52    2
    83     7     9   ar
    84    49    50    1
    85    61    62    1
    86    61    58    1
    87    62    63   ar
    88    67    68    1
    89    67    65   ar
    90   105   104    1
    91    90    91    2
    92    59    58    1
    93    59    60    2
    94    63    65   ar
    95   106   104    1
    96    58    57    1
    97   104   101    1
    98   101   100    1
    99   101   102    1
   100   102   103    2
