@<TRIPOS>MOLECULE
tmp/4pxqA01.pdb
 207 198 0 0 0
SMALL
GASTEIGER

@<TRIPOS>ATOM
      1  N        -31.8990    3.9230  -10.2580 N.3    85  ARG85      -0.1231
      2  CA       -32.4750    5.2180  -10.6140 C.3    85  ARG85       0.1694
      3  C        -32.6240    5.2780  -12.1390 C.2    85  ARG85       0.2592
      4  O        -31.7290    4.8220  -12.8750 O.2    85  ARG85      -0.2718
      5  CB       -31.5950    6.3690  -10.1140 C.3    85  ARG85       0.0321
      6  CG       -31.4960    6.5130   -8.6060 C.3    85  ARG85       0.0489
      7  CD       -30.4520    7.5530   -8.2320 C.3    85  ARG85       0.2205
      8  NE       -30.4000    7.7630   -6.7900 N.pl3  85  ARG85      -0.0865
      9  CZ       -29.4000    8.3520   -6.1310 C.cat  85  ARG85       0.5346
     10  NH1      -29.4710    8.4550   -4.8140 N.pl3  85  ARG85       0.1354
     11  NH2      -28.3230    8.8210   -6.7690 N.pl3  85  ARG85       0.1354
     12  N        -33.7540    5.8150  -12.6020 N.am   86  ASP86      -0.1960
     13  CA       -34.0600    5.8990  -14.0400 C.3    86  ASP86       0.1840
     14  C        -33.0420    6.7120  -14.8050 C.2    86  ASP86       0.2621
     15  O        -32.8610    6.5100  -15.9950 O.2    86  ASP86      -0.2715
     16  CB       -35.4080    6.5810  -14.2830 C.3    86  ASP86       0.1450
     17  CG       -36.5770    5.7250  -13.9080 C.2    86  ASP86       0.3671
     18  OD1      -36.4140    4.5000  -13.7010 O.co2  86  ASP86      -0.2456
     19  OD2      -37.6830    6.3000  -13.8240 O.co2  86  ASP86      -0.2456
     20  N        -32.4080    7.6590  -14.1290 N.am   87  ARG87      -0.1977
     21  CA       -31.4730    8.5480  -14.7830 C.3    87  ARG87       0.1597
     22  C        -30.0190    8.0470  -14.7400 C.2    87  ARG87       0.2287
     23  O        -29.1200    8.7700  -15.1510 O.2    87  ARG87      -0.2864
     24  CB       -31.5620    9.9350  -14.1600 C.3    87  ARG87       0.0334
     25  CG       -30.8500    9.9540  -12.8240 C.3    87  ARG87       0.0492
     26  CD       -30.4950   11.3440  -12.4260 C.3    87  ARG87       0.2205
     27  NE       -29.6680   12.0090  -13.4260 N.pl3  87  ARG87      -0.0865
     28  CZ       -29.3580   13.2900  -13.3340 C.cat  87  ARG87       0.5346
     29  NH1      -29.8130   13.9580  -12.2810 N.pl3  87  ARG87       0.1354
     30  NH2      -28.6120   13.8880  -14.2600 N.pl3  87  ARG87       0.1354
     31  N        -21.6430   12.3000  -14.2580 N.3   110  TYR110     -0.1241
     32  CA       -22.1960   13.2390  -13.3040 C.3   110  TYR110      0.1605
     33  C        -21.6130   12.9020  -11.9340 C.2   110  TYR110      0.2264
     34  O        -22.0020   11.8990  -11.2940 O.2   110  TYR110     -0.2867
     35  CB       -23.7340   13.1360  -13.3140 C.3   110  TYR110      0.0534
     36  CG       -24.4910   14.2870  -12.6710 C.ar  110  TYR110     -0.0201
     37  CD1      -24.1870   15.6160  -12.9830 C.ar  110  TYR110     -0.0009
     38  CD2      -25.5640   14.0410  -11.8020 C.ar  110  TYR110     -0.0009
     39  CE1      -24.8940   16.6690  -12.4130 C.ar  110  TYR110      0.0417
     40  CE2      -26.2790   15.0820  -11.2300 C.ar  110  TYR110      0.0417
     41  CZ       -25.9440   16.3940  -11.5410 C.ar  110  TYR110      0.1957
     42  OH       -26.6670   17.4220  -10.9790 O.3   110  TYR110     -0.2866
     43  N        -21.8350   13.9450   -8.9180 N.3   112  ILE112     -0.1231
     44  CA       -22.7440   13.6990   -7.8070 C.3   112  ILE112      0.1692
     45  C        -23.1610   12.2120   -7.7780 C.2   112  ILE112      0.2591
     46  O        -23.1080   11.5460   -6.7470 O.2   112  ILE112     -0.2718
     47  CB       -23.9920   14.5850   -7.8870 C.3   112  ILE112      0.0266
     48  CG1      -23.6630   16.0100   -7.4480 C.3   112  ILE112      0.0019
     49  CG2      -25.0750   14.0460   -6.9620 C.3   112  ILE112      0.0020
     50  CD1      -24.7440   17.0120   -7.7960 C.3   112  ILE112      0.0001
     51  N        -23.5600   11.7200   -8.9350 N.am  113  GLN113     -0.1979
     52  CA       -24.0890   10.3720   -9.0840 C.3   113  GLN113      0.1601
     53  C        -22.9760    9.3590   -8.8580 C.2   113  GLN113      0.2287
     54  O        -23.1700    8.3420   -8.1850 O.2   113  GLN113     -0.2864
     55  CB       -24.6960   10.2610  -10.4770 C.3   113  GLN113      0.0394
     56  CG       -25.4140    8.9790  -10.8090 C.3   113  GLN113      0.0908
     57  CD       -25.9510    9.0200  -12.2170 C.2   113  GLN113      0.2608
     58  OE1      -25.2690    8.6130  -13.1590 O.2   113  GLN113     -0.2717
     59  NE2      -27.1650    9.5580  -12.3790 N.am  113  GLN113     -0.0878
     60  N        -22.2990    9.3290   -5.1930 N.3   116  GLN116     -0.1245
     61  CA       -23.3300    8.6320   -4.4200 C.3   116  GLN116      0.1566
     62  C        -23.1900    7.1090   -4.5770 C.2   116  GLN116      0.2260
     63  O        -23.3630    6.3700   -3.6220 O.2   116  GLN116     -0.2867
     64  CB       -24.7390    9.1150   -4.7810 C.3   116  GLN116      0.0367
     65  CG       -25.0000   10.5770   -4.4330 C.3   116  GLN116      0.0905
     66  CD       -26.4600   10.8590   -4.1130 C.2   116  GLN116      0.2608
     67  OE1      -27.3510   10.0940   -4.4750 O.2   116  GLN116     -0.2717
     68  NE2      -26.7030   11.9620   -3.4060 N.am  116  GLN116     -0.0878
     69  N        -34.0260   10.6940  -21.4250 N.3   267  LYS267     -0.1245
     70  CA       -33.5860   10.9450  -20.0600 C.3   267  LYS267      0.1561
     71  C        -33.9940    9.8510  -19.0720 C.2   267  LYS267      0.2260
     72  O        -33.5900    9.8890  -17.9110 O.2   267  LYS267     -0.2867
     73  CB       -34.0910   12.3050  -19.5850 C.3   267  LYS267      0.0271
     74  CG       -33.3540   13.4930  -20.1930 C.3   267  LYS267      0.0035
     75  CD       -34.2170   14.7510  -20.1960 C.3   267  LYS267      0.0206
     76  CE       -34.2940   15.4080  -18.8230 C.3   267  LYS267      0.1093
     77  NZ       -32.9240   15.7460  -18.3450 N.3   267  LYS267     -0.1314
     78  N        -25.3460   21.2490  -20.4920 N.3   326  THR326     -0.1203
     79  CA       -26.0600   22.4270  -20.0370 C.3   326  THR326      0.1994
     80  C        -27.2610   21.9960  -19.2030 C.2   326  THR326      0.2618
     81  O        -27.9500   21.0320  -19.5460 O.2   326  THR326     -0.2717
     82  CB       -26.4350   23.4090  -21.1750 C.3   326  THR326      0.1784
     83  OG1      -27.5850   24.1760  -20.7910 O.3   326  THR326     -0.2211
     84  CG2      -26.7590   22.7180  -22.4120 C.3   326  THR326      0.0376
     85  N        -27.4690   22.6940  -18.0900 N.am  327  ARG327     -0.1965
     86  CA       -28.5930   22.4480  -17.1980 C.3   327  ARG327      0.1729
     87  C        -29.4000   23.7350  -17.0680 C.2   327  ARG327      0.2616
     88  O        -28.8760   24.7630  -16.6600 O.2   327  ARG327     -0.2715
     89  CB       -28.0720   22.0080  -15.8250 C.3   327  ARG327      0.0348
     90  CG       -29.1270   21.7480  -14.7590 C.3   327  ARG327      0.0492
     91  CD       -29.7710   20.3830  -14.9250 C.3   327  ARG327      0.2205
     92  NE       -30.4230   19.9260  -13.6930 N.pl3 327  ARG327     -0.0865
     93  CZ       -31.6850   20.1920  -13.4100 C.cat 327  ARG327      0.5346
     94  NH1      -32.4120   20.8990  -14.2630 N.pl3 327  ARG327      0.1354
     95  NH2      -32.2250   19.7660  -12.2930 N.pl3 327  ARG327      0.1354
     96  N        -30.6710   23.6590  -17.4400 N.am  328  LYS328     -0.1963
     97  CA       -31.6030   24.7700  -17.3330 C.3   328  LYS328      0.1728
     98  C        -32.5780   24.4930  -16.1780 C.2   328  LYS328      0.2616
     99  O        -33.5780   23.7990  -16.3500 O.2   328  LYS328     -0.2715
    100  CB       -32.3420   24.9480  -18.6650 C.3   328  LYS328      0.0311
    101  CG       -33.2810   26.1590  -18.7410 C.3   328  LYS328      0.0038
    102  CD       -32.5590   27.5080  -18.6380 C.3   328  LYS328      0.0206
    103  CE       -33.3660   28.6660  -19.2320 C.3   328  LYS328      0.1093
    104  NZ       -34.3150   29.2630  -18.2550 N.3   328  LYS328     -0.1314
    105  N        -32.2810   25.0590  -15.0070 N.am  329  LEU329     -0.1963
    106  CA       -32.9640   24.6950  -13.7720 C.3   329  LEU329      0.1728
    107  C        -34.4580   24.9700  -13.7950 C.2   329  LEU329      0.2617
    108  O        -35.2260   24.2150  -13.2140 O.2   329  LEU329     -0.2715
    109  CB       -32.3200   25.3710  -12.5650 C.3   329  LEU329      0.0311
    110  CG       -32.6930   24.8480  -11.1720 C.3   329  LEU329      0.0022
    111  CD1      -32.3410   23.3710  -11.0260 C.3   329  LEU329      0.0001
    112  CD2      -32.0390   25.6620  -10.0600 C.3   329  LEU329      0.0001
    113  N        -34.8580   26.0380  -14.4780 N.am  330  GLY330     -0.1940
    114  CA       -36.2550   26.4120  -14.5780 C.3   330  GLY330      0.2014
    115  C        -36.4140   27.8540  -15.0080 C.2   330  GLY330      0.2638
    116  O        -35.4370   28.6180  -15.0920 O.2   330  GLY330     -0.2714
    117  N        -37.6590   28.2100  -15.2960 N.am  331  GLU331     -0.1977
    118  CA       -38.0260   29.5390  -15.7360 C.3   331  GLU331      0.1602
    119  C        -37.5200   30.5660  -14.7360 C.2   331  GLU331      0.2287
    120  O        -37.8240   30.4790  -13.5530 O.2   331  GLU331     -0.2864
    121  CB       -39.5440   29.6290  -15.8710 C.3   331  GLU331      0.0415
    122  CG       -40.0370   30.9500  -16.4480 C.3   331  GLU331      0.1163
    123  CD       -41.4200   30.8580  -17.0830 C.2   331  GLU331      0.3649
    124  OE1      -42.3270   30.1990  -16.5100 O.co2 331  GLU331     -0.2457
    125  OE2      -41.5990   31.4600  -18.1690 O.co2 331  GLU331     -0.2457
    126  N        -22.6030   20.3450   -4.1990 N.3   344  MET344     -0.1245
    127  CA       -22.9510   18.9900   -3.8480 C.3   344  MET344      0.1570
    128  C        -21.9580   17.9970   -4.4340 C.2   344  MET344      0.2261
    129  O        -21.5690   17.0470   -3.7700 O.2   344  MET344     -0.2867
    130  CB       -24.3860   18.6700   -4.2910 C.3   344  MET344      0.0387
    131  CG       -24.8630   17.2690   -3.9060 C.3   344  MET344      0.0595
    132  SD       -26.6540   17.1520   -4.1470 S.3   344  MET344     -0.1393
    133  CE       -26.8980   15.3720   -4.0320 C.3   344  MET344      0.0692
    134  N        -26.7420   24.2450   -7.4820 N.3   399  TYR399     -0.1241
    135  CA       -26.8360   24.8050   -8.8250 C.3   399  TYR399      0.1605
    136  C        -26.4500   26.2970   -8.7960 C.2   399  TYR399      0.2264
    137  O        -27.2360   27.1220   -8.3670 O.2   399  TYR399     -0.2867
    138  CB       -28.2490   24.6320   -9.3890 C.3   399  TYR399      0.0534
    139  CG       -28.7550   23.2070   -9.3780 C.ar  399  TYR399     -0.0201
    140  CD1      -28.1720   22.2290  -10.2000 C.ar  399  TYR399     -0.0009
    141  CD2      -29.8250   22.8350   -8.5600 C.ar  399  TYR399     -0.0009
    142  CE1      -28.6200   20.9160  -10.1770 C.ar  399  TYR399      0.0417
    143  CE2      -30.3050   21.5330   -8.5410 C.ar  399  TYR399      0.0417
    144  CZ       -29.7020   20.5820   -9.3480 C.ar  399  TYR399      0.1957
    145  OH       -30.1470   19.2890   -9.3340 O.3   399  TYR399     -0.2866
    146  N        -37.8850   23.0840   -1.4320 N.3   459  TYR459     -0.1241
    147  CA       -36.6610   22.5170   -2.0040 C.3   459  TYR459      0.1605
    148  C        -35.5490   23.5580   -2.0670 C.2   459  TYR459      0.2264
    149  O        -34.3700   23.2400   -1.8740 O.2   459  TYR459     -0.2867
    150  CB       -36.9470   21.9460   -3.3950 C.3   459  TYR459      0.0534
    151  CG       -35.7970   21.1660   -4.0250 C.ar  459  TYR459     -0.0201
    152  CD1      -35.3640   19.9650   -3.4680 C.ar  459  TYR459     -0.0009
    153  CD2      -35.1560   21.6260   -5.1900 C.ar  459  TYR459     -0.0009
    154  CE1      -34.3320   19.2450   -4.0440 C.ar  459  TYR459      0.0417
    155  CE2      -34.1170   20.9190   -5.7590 C.ar  459  TYR459      0.0417
    156  CZ       -33.7130   19.7210   -5.1830 C.ar  459  TYR459      0.1957
    157  OH       -32.6680   18.9950   -5.7290 O.3   459  TYR459     -0.2866
    158  N        -36.3420   29.6840   -4.5670 N.3   462  ARG462     -0.1245
    159  CA       -36.7010   30.3670   -5.8000 C.3   462  ARG462      0.1563
    160  C        -37.9520   31.2350   -5.6720 C.2   462  ARG462      0.2260
    161  O        -38.0620   32.2500   -6.3390 O.2   462  ARG462     -0.2867
    162  CB       -36.8250   29.4050   -6.9800 C.3   462  ARG462      0.0307
    163  CG       -38.1470   28.6800   -7.1210 C.3   462  ARG462      0.0489
    164  CD       -38.0950   27.6980   -8.2900 C.3   462  ARG462      0.2205
    165  NE       -37.1060   26.6290   -8.0760 N.pl3 462  ARG462     -0.0865
    166  CZ       -36.6810   25.7680   -9.0050 C.cat 462  ARG462      0.5346
    167  NH1      -37.1350   25.8370  -10.2500 N.pl3 462  ARG462      0.1354
    168  NH2      -35.7770   24.8470   -8.6820 N.pl3 462  ARG462      0.1354
    169  N        -41.2870   26.1460   -4.5210 N.3   471  ASN471     -0.1240
    170  CA       -40.9910   24.8710   -5.1440 C.3   471  ASN471      0.1653
    171  C        -40.9080   23.7780   -4.0620 C.2   471  ASN471      0.2266
    172  O        -39.8350   23.4740   -3.5410 O.2   471  ASN471     -0.2867
    173  CB       -39.6960   24.9790   -5.9550 C.3   471  ASN471      0.1155
    174  CG       -39.3360   23.6860   -6.6480 C.2   471  ASN471      0.2627
    175  OD1      -40.2090   22.8870   -6.9900 O.2   471  ASN471     -0.2716
    176  ND2      -38.0440   23.4670   -6.8520 N.am  471  ASN471     -0.0877
    177  N        -40.6330   17.2230   -2.6590 N.3   474  ARG474     -0.1245
    178  CA       -41.3120   15.9260   -2.5880 C.3   474  ARG474      0.1563
    179  C        -40.8630   15.1570   -1.3460 C.2   474  ARG474      0.2260
    180  O        -39.7850   15.4230   -0.8000 O.2   474  ARG474     -0.2867
    181  CB       -41.0880   15.1200   -3.8750 C.3   474  ARG474      0.0307
    182  CG       -39.6310   14.7800   -4.1810 C.3   474  ARG474      0.0489
    183  CD       -39.5480   13.8640   -5.3840 C.3   474  ARG474      0.2205
    184  NE       -38.2130   13.2680   -5.5280 N.pl3 474  ARG474     -0.0865
    185  CZ       -37.3050   13.6590   -6.4230 C.cat 474  ARG474      0.5346
    186  NH1      -37.5830   14.6590   -7.2560 N.pl3 474  ARG474      0.1354
    187  NH2      -36.1140   13.0640   -6.4890 N.pl3 474  ARG474      0.1354
    188  N        -39.4830   12.3670   -0.5450 N.3   476  ASP476     -0.1225
    189  CA       -38.1600   11.7620   -0.3500 C.3   476  ASP476      0.1805
    190  C        -37.0350   12.7990   -0.2820 C.2   476  ASP476      0.2597
    191  O        -35.9450   12.4870    0.1740 O.2   476  ASP476     -0.2718
    192  CB       -37.8590   10.5950   -1.3100 C.3   476  ASP476      0.1424
    193  CG       -38.0170   10.9650   -2.7690 C.2   476  ASP476      0.3668
    194  OD1      -37.8970   12.1490   -3.1150 O.co2 476  ASP476     -0.2456
    195  OD2      -38.2500   10.0510   -3.5820 O.co2 476  ASP476     -0.2456
    196  N        -37.3150   14.0400   -0.6720 N.am  477  TYR477     -0.1976
    197  CA       -36.3880   15.1320   -0.3700 C.3   477  TYR477      0.1639
    198  C        -36.5920   15.6730    1.0240 C.2   477  TYR477      0.2290
    199  O        -35.6310   16.0740    1.6830 O.2   477  TYR477     -0.2864
    200  CB       -36.4180   16.2660   -1.4190 C.3   477  TYR477      0.0560
    201  CG       -35.4610   16.0340   -2.5770 C.ar  477  TYR477     -0.0198
    202  CD1      -34.0940   15.7780   -2.3470 C.ar  477  TYR477     -0.0009
    203  CD2      -35.9150   16.0520   -3.9000 C.ar  477  TYR477     -0.0009
    204  CE1      -33.2230   15.5510   -3.4090 C.ar  477  TYR477      0.0417
    205  CE2      -35.0550   15.8300   -4.9520 C.ar  477  TYR477      0.0417
    206  CZ       -33.7120   15.5780   -4.7030 C.ar  477  TYR477      0.1957
    207  OH       -32.8640   15.3660   -5.7600 O.3   477  TYR477     -0.2866
@<TRIPOS>BOND
     1    84    82    1
     2    69    70    1
     3    82    83    1
     4    82    79    1
     5    78    79    1
     6    75    74    1
     7    75    76    1
     8    74    73    1
     9    70    73    1
    10    70    71    1
    11    79    80    1
    12    81    80    2
    13   103   102    1
    14   103   104    1
    15    80    85   am
    16    71    72    2
    17    76    77    1
    18   101   100    1
    19   101   102    1
    20   100    97    1
    21   125   123   ar
    22    85    86    1
    23    96    97    1
    24    96    87   am
    25    97    98    1
    26    86    87    1
    27    86    89    1
    28   123   124   ar
    29   123   122    1
    30    87    88    2
    31   122   121    1
    32    99    98    2
    33    98   105   am
    34    15    14    2
    35   121   118    1
    36    89    90    1
    37   118   117    1
    38   118   119    1
    39   117   115   am
    40    23    22    2
    41   116   115    2
    42   115   114    1
    43   105   106    1
    44    91    90    1
    45    91    92    1
    46    14    20   am
    47    14    13    1
    48    21    22    1
    49    21    24    1
    50    21    20    1
    51   119   120    2
    52   114   113    1
    53   113   107   am
    54    16    13    1
    55    16    17    1
    56    94    93    1
    57    30    28    1
    58    31    32    1
    59    24    25    1
    60    13    12    1
    61    17    19   ar
    62    17    18   ar
    63   107   106    1
    64   107   108    2
    65   106   109    1
    66    92    93    2
    67    27    28    2
    68    27    26    1
    69    93    95    1
    70    28    29    1
    71    35    32    1
    72    35    36    1
    73    32    33    1
    74    58    57    2
    75    37    36   ar
    76    37    39   ar
    77     4     3    2
    78    25    26    1
    79    36    38   ar
    80    12     3   am
    81   109   110    1
    82    39    41   ar
    83    59    57   am
    84    57    56    1
    85     3     2    1
    86    33    34    2
    87    38    40   ar
    88    41    40   ar
    89    41    42    1
    90   110   111    1
    91   110   112    1
    92    56    55    1
    93     2     1    1
    94     2     5    1
    95    55    52    1
    96   167   166    1
    97   140   142   ar
    98   140   139   ar
    99   142   144   ar
   100     5     6    1
   101   138   139    1
   102   138   135    1
   103   139   141   ar
   104   144   145    1
   105   144   143   ar
   106    52    51    1
   107    52    53    1
   108   166   168    1
   109   166   165    2
   110    51    45   am
   111    43    44    1
   112    53    54    2
   113   135   136    1
   114   135   134    1
   115   136   137    2
   116     6     7    1
   117   141   143   ar
   118   164   165    1
   119   164   163    1
   120     7     8    1
   121    47    44    1
   122    47    48    1
   123    47    49    1
   124    44    45    1
   125    50    48    1
   126    45    46    2
   127   186   185    1
   128   163   162    1
   129   175   174    2
   130   162   159    1
   131   176   174   am
   132     8     9    2
   133    11     9    1
   134   174   173    1
   135   187   185    1
   136   185   184    2
   137   161   160    2
   138     9    10    1
   139   173   170    1
   140   159   160    1
   141   159   158    1
   142   207   206    1
   143   155   153   ar
   144   155   156   ar
   145   157   156    1
   146   184   183    1
   147   183   182    1
   148    60    61    1
   149   153   151   ar
   150   156   154   ar
   151   170   169    1
   152   170   171    1
   153   205   206   ar
   154   205   203   ar
   155    64    65    1
   156    64    61    1
   157   206   204   ar
   158    62    61    1
   159    62    63    2
   160    67    66    2
   161   128   127    1
   162   128   129    2
   163    65    66    1
   164   130   131    1
   165   130   127    1
   166   126   127    1
   167   182   181    1
   168   132   133    1
   169   132   131    1
   170    66    68   am
   171   171   172    2
   172   154   152   ar
   173   151   152   ar
   174   151   150    1
   175   203   201   ar
   176   181   178    1
   177   195   193   ar
   178   204   202   ar
   179   150   147    1
   180   194   193   ar
   181   193   192    1
   182   177   178    1
   183   178   179    1
   184   201   202   ar
   185   201   200    1
   186   148   147    1
   187   148   149    2
   188   147   146    1
   189   200   197    1
   190   179   180    2
   191   192   189    1
   192   196   197    1
   193   196   190   am
   194   188   189    1
   195   197   198    1
   196   189   190    1
   197   190   191    2
   198   198   199    2
