@<TRIPOS>MOLECULE
tmp/4pxsB00.pdb
 246 238 0 0 0
SMALL
GASTEIGER

@<TRIPOS>ATOM
      1  N         43.0530   -8.0960    3.4420 N.3     9  HIS9       -0.1226
      2  CA        42.7370   -9.2750    4.2590 C.3     9  HIS9        0.1752
      3  C         42.2150   -8.9160    5.6590 C.2     9  HIS9        0.2596
      4  O         41.8280   -9.7960    6.4250 O.2     9  HIS9       -0.2718
      5  CB        43.9440  -10.2360    4.3460 C.3     9  HIS9        0.0759
      6  CG        45.2470   -9.5460    4.5880 C.ar    9  HIS9        0.0818
      7  ND1       45.9420   -9.6720    5.7660 N.ar    9  HIS9       -0.2268
      8  CD2       45.9850   -8.7190    3.8060 C.ar    9  HIS9        0.1154
      9  CE1       47.0450   -8.9430    5.7080 C.ar    9  HIS9        0.1986
     10  NE2       47.0920   -8.3500    4.5310 N.ar    9  HIS9       -0.2212
     11  N         42.2010   -7.6320    5.9960 N.am   10  VAL10      -0.1966
     12  CA        41.7010   -7.2070    7.2900 C.3    10  VAL10       0.1727
     13  C         40.1810   -7.1130    7.1860 C.2    10  VAL10       0.2616
     14  O         39.6350   -6.4480    6.3130 O.2    10  VAL10      -0.2715
     15  CB        42.2580   -5.8350    7.7070 C.3    10  VAL10       0.0290
     16  CG1       41.8630   -5.5330    9.1300 C.3    10  VAL10       0.0023
     17  CG2       43.7660   -5.7830    7.5700 C.3    10  VAL10       0.0023
     18  N         39.4880   -7.7690    8.0900 N.am   11  ILE11      -0.1977
     19  CA        38.0540   -7.7800    8.0020 C.3    11  ILE11       0.1596
     20  C         37.5550   -6.3960    8.3960 C.2    11  ILE11       0.2287
     21  O         37.9970   -5.8100    9.3970 O.2    11  ILE11      -0.2864
     22  CB        37.4130   -8.9100    8.8460 C.3    11  ILE11       0.0276
     23  CG1       38.1900  -10.2390    8.6000 C.3    11  ILE11       0.0022
     24  CG2       35.9300   -9.0170    8.5060 C.3    11  ILE11       0.0022
     25  CD1       37.4180  -11.5360    8.7420 C.3    11  ILE11       0.0001
     26  N         28.3490   -7.3390   15.4100 N.3    19  TRP19      -0.1241
     27  CA        29.6340   -8.0500   15.4600 C.3    19  TRP19       0.1605
     28  C         29.3480   -9.5560   15.3060 C.2    19  TRP19       0.2264
     29  O         29.6780  -10.1590   14.2840 O.2    19  TRP19      -0.2867
     30  CB        30.4030   -7.7050   16.7530 C.3    19  TRP19       0.0550
     31  CG        30.9330   -6.2930   16.7150 C.ar   19  TRP19       0.0003
     32  CD1       30.2080   -5.1430   16.8360 C.ar   19  TRP19       0.0946
     33  CD2       32.2840   -5.8840   16.5040 C.ar   19  TRP19       0.0152
     34  NE1       31.0150   -4.0510   16.7090 N.ar   19  TRP19      -0.2442
     35  CE2       32.2970   -4.4710   16.5000 C.ar   19  TRP19       0.0810
     36  CE3       33.4870   -6.5720   16.3020 C.ar   19  TRP19       0.0012
     37  CZ2       33.4700   -3.7260   16.3220 C.ar   19  TRP19       0.0191
     38  CZ3       34.6620   -5.8290   16.1160 C.ar   19  TRP19       0.0001
     39  CH2       34.6390   -4.4230   16.1290 C.ar   19  TRP19       0.0015
     40  N         31.9540  -12.0620   12.1610 N.3    24  TYR24      -0.1241
     41  CA        33.2730  -11.5420   12.4990 C.3    24  TYR24       0.1605
     42  C         33.8370  -12.2040   13.7710 C.2    24  TYR24       0.2264
     43  O         34.9400  -12.7620   13.7330 O.2    24  TYR24      -0.2867
     44  CB        33.1710  -10.0370   12.6470 C.3    24  TYR24       0.0534
     45  CG        34.4490   -9.3210   12.9940 C.ar   24  TYR24      -0.0201
     46  CD1       35.1070   -9.5840   14.1930 C.ar   24  TYR24      -0.0009
     47  CD2       34.9730   -8.3380   12.1610 C.ar   24  TYR24      -0.0009
     48  CE1       36.2730   -8.9310   14.5260 C.ar   24  TYR24       0.0417
     49  CE2       36.1390   -7.6820   12.4980 C.ar   24  TYR24       0.0417
     50  CZ        36.7800   -7.9830   13.6960 C.ar   24  TYR24       0.1957
     51  OH        37.9300   -7.3420   14.1040 O.3    24  TYR24      -0.2866
     52  N         35.2160  -15.3970   13.4180 N.3    27  ALA27      -0.1231
     53  CA        36.4610  -15.3460   12.6810 C.3    27  ALA27       0.1694
     54  C         37.6550  -14.8210   13.5180 C.2    27  ALA27       0.2592
     55  O         38.8250  -14.9950   13.1140 O.2    27  ALA27      -0.2718
     56  CB        36.2710  -14.4970   11.4290 C.3    27  ALA27       0.0304
     57  N         37.3900  -14.1650   14.6540 N.am   28  VAL28      -0.1966
     58  CA        38.4880  -13.6990   15.5070 C.3    28  VAL28       0.1712
     59  C         39.1690  -14.9650   15.9690 C.2    28  VAL28       0.2458
     60  O         38.5030  -15.8390   16.5160 O.2    28  VAL28      -0.2730
     61  CB        38.0210  -12.9510   16.7710 C.3    28  VAL28       0.0289
     62  CG1       39.1970  -12.6470   17.7050 C.3    28  VAL28       0.0023
     63  CG2       37.3210  -11.6720   16.4110 C.3    28  VAL28       0.0023
     64  N         40.4740  -15.0920   15.7380 N.am   29  PRO29      -0.2727
     65  CA        41.1440  -16.3570   16.1330 C.3    29  PRO29       0.1402
     66  C         41.1310  -16.6260   17.6480 C.2    29  PRO29       0.2269
     67  O         41.2350  -15.6650   18.4730 O.2    29  PRO29      -0.2865
     68  CB        42.5810  -16.1580   15.6210 C.3    29  PRO29       0.0296
     69  CG        42.4470  -15.1820   14.5050 C.3    29  PRO29       0.0237
     70  CD        41.3600  -14.2370   14.9490 C.3    29  PRO29       0.0939
     71  N         43.1610  -17.5880   19.8150 N.3    31  THR31      -0.1203
     72  CA        44.2910  -17.0800   20.5850 C.3    31  THR31       0.1994
     73  C         44.2470  -15.6070   20.7730 C.2    31  THR31       0.2617
     74  O         44.9430  -15.0940   21.6160 O.2    31  THR31      -0.2717
     75  CB        45.6300  -17.4050   19.9220 C.3    31  THR31       0.1784
     76  OG1       45.6330  -16.9350   18.5540 O.3    31  THR31      -0.2211
     77  CG2       45.8800  -18.9270   19.9710 C.3    31  THR31       0.0376
     78  N         43.4210  -14.9250   19.9770 N.am   32  GLU32      -0.1979
     79  CA        43.2680  -13.4830   20.0760 C.3    32  GLU32       0.1602
     80  C         41.9800  -13.0460   20.7150 C.2    32  GLU32       0.2287
     81  O         41.8540  -11.8950   21.0680 O.2    32  GLU32      -0.2864
     82  CB        43.3560  -12.8540   18.6740 C.3    32  GLU32       0.0415
     83  CG        44.7410  -12.8420   18.0860 C.3    32  GLU32       0.1163
     84  CD        45.6330  -11.8140   18.7440 C.2    32  GLU32       0.3649
     85  OE1       45.1160  -10.7730   19.2400 O.co2  32  GLU32      -0.2457
     86  OE2       46.8600  -12.0570   18.7820 O.co2  32  GLU32      -0.2457
     87  N         38.8270  -11.9020   22.9870 N.3    34  SER34      -0.1217
     88  CA        38.4370  -11.5190   24.3230 C.3    34  SER34       0.1889
     89  C         37.8730  -12.7260   25.0250 C.2    34  SER34       0.2288
     90  O         37.0270  -13.4040   24.4610 O.2    34  SER34      -0.2866
     91  CB        37.3720  -10.4400   24.2470 C.3    34  SER34       0.2089
     92  OG        37.1040   -9.9470   25.5550 O.3    34  SER34      -0.2183
     93  N         49.6430  -18.9820   18.2100 N.3   179  GLY179     -0.1225
     94  CA        48.7080  -18.4360   17.2500 C.3   179  GLY179      0.1811
     95  C         48.6850  -19.1270   15.8860 C.2   179  GLY179      0.2280
     96  O         47.9130  -18.7440   15.0510 O.2   179  GLY179     -0.2866
     97  N         51.1720  -18.6020   13.9450 N.3   181  SER181     -0.1217
     98  CA        51.4650  -17.2880   13.4600 C.3   181  SER181      0.1889
     99  C         52.9140  -17.0020   13.0610 C.2   181  SER181      0.2288
    100  O         53.1410  -16.3360   12.0640 O.2   181  SER181     -0.2866
    101  CB        51.1070  -16.2980   14.5410 C.3   181  SER181      0.2089
    102  OG        51.8730  -15.1350   14.3360 O.3   181  SER181     -0.2183
    103  N         45.1960  -22.6110   17.6300 N.3   207  ASN207     -0.1240
    104  CA        44.1200  -22.1380   16.7860 C.3   207  ASN207      0.1653
    105  C         43.9100  -23.2560   15.8660 C.2   207  ASN207      0.2266
    106  O         44.8540  -24.0070   15.5830 O.2   207  ASN207     -0.2867
    107  CB        44.4970  -20.9230   15.9640 C.3   207  ASN207      0.1155
    108  CG        44.5540  -19.6370   16.7790 C.2   207  ASN207      0.2627
    109  OD1       43.6620  -19.3020   17.5780 O.2   207  ASN207     -0.2716
    110  ND2       45.6000  -18.8790   16.5460 N.am  207  ASN207     -0.0877
    111  N         41.7610  -20.8850   11.2980 N.3   211  MET211     -0.1230
    112  CA        42.0510  -19.5500   11.8560 C.3   211  MET211      0.1702
    113  C         43.5440  -19.2650   11.8840 C.2   211  MET211      0.2592
    114  O         43.9600  -18.3020   12.4940 O.2   211  MET211     -0.2718
    115  CB        41.5440  -19.4480   13.2750 C.3   211  MET211      0.0401
    116  CG        40.0390  -19.4490   13.4060 C.3   211  MET211      0.0596
    117  SD        39.5170  -19.8030   15.1110 S.3   211  MET211     -0.1393
    118  CE        38.0470  -18.7900   15.2030 C.3   211  MET211      0.0692
    119  N         44.3590  -20.1030   11.2490 N.am  212  ALA212     -0.1966
    120  CA        45.7890  -19.8640   11.2080 C.3   212  ALA212      0.1728
    121  C         46.0470  -18.5540   10.4950 C.2   212  ALA212      0.2616
    122  O         45.2410  -18.0780    9.7280 O.2   212  ALA212     -0.2715
    123  CB        46.5120  -21.0100   10.5130 C.3   212  ALA212      0.0334
    124  N         47.1880  -17.9680   10.7630 N.am  213  ARG213     -0.1963
    125  CA        47.5200  -16.6740   10.1880 C.3   213  ARG213      0.1729
    126  C         47.6580  -16.7390    8.6880 C.2   213  ARG213      0.2616
    127  O         48.2770  -17.6460    8.1180 O.2   213  ARG213     -0.2715
    128  CB        48.8330  -16.1460   10.7580 C.3   213  ARG213      0.0348
    129  CG        48.9260  -14.6600   10.7340 C.3   213  ARG213      0.0492
    130  CD        49.8960  -14.2170   11.7800 C.3   213  ARG213      0.2205
    131  NE        50.3880  -12.8870   11.4620 N.pl3 213  ARG213     -0.0865
    132  CZ        51.5000  -12.3660   11.9350 C.cat 213  ARG213      0.5346
    133  NH1       52.2740  -13.0600   12.7610 N.pl3 213  ARG213      0.1354
    134  NH2       51.8470  -11.1420   11.5690 N.pl3 213  ARG213      0.1354
    135  N         47.1030  -15.7290    8.0500 N.am  214  ASN214     -0.1958
    136  CA        47.1390  -15.6520    6.6340 C.3   214  ASN214      0.1819
    137  C         47.8510  -14.4260    6.1130 C.2   214  ASN214      0.2621
    138  O         47.6980  -14.1530    4.9570 O.2   214  ASN214     -0.2715
    139  CB        45.6970  -15.6750    6.1110 C.3   214  ASN214      0.1195
    140  CG        45.5700  -16.3360    4.7510 C.2   214  ASN214      0.2630
    141  OD1       46.3410  -17.2290    4.3760 O.2   214  ASN214     -0.2716
    142  ND2       44.5740  -15.9040    4.0040 N.am  214  ASN214     -0.0877
    143  N         48.6260  -13.6840    6.9090 N.am  215  ASP215     -0.1971
    144  CA        49.1920  -12.4560    6.3710 C.3   215  ASP215      0.1709
    145  C         50.3750  -12.7750    5.4670 C.2   215  ASP215      0.2293
    146  O         51.0780  -13.7560    5.6780 O.2   215  ASP215     -0.2864
    147  CB        49.3910  -11.3390    7.4380 C.3   215  ASP215      0.1436
    148  CG        50.8030  -11.1990    7.9660 C.2   215  ASP215      0.3671
    149  OD1       51.7080  -12.0130    7.6530 O.co2 215  ASP215     -0.2456
    150  OD2       50.9960  -10.2310    8.7470 O.co2 215  ASP215     -0.2456
    151  N         48.8070  -20.2400    7.3640 N.3   225  ARG225     -0.1245
    152  CA        47.6410  -21.0250    6.9280 C.3   225  ARG225      0.1563
    153  C         47.8920  -22.0570    5.7860 C.2   225  ARG225      0.2260
    154  O         47.3330  -23.1670    5.8110 O.2   225  ARG225     -0.2867
    155  CB        46.5440  -20.0450    6.5140 C.3   225  ARG225      0.0307
    156  CG        45.1660  -20.6260    6.1970 C.3   225  ARG225      0.0489
    157  CD        44.1500  -20.2050    7.2430 C.3   225  ARG225      0.2205
    158  NE        43.0520  -19.3730    6.7470 N.pl3 225  ARG225     -0.0865
    159  CZ        42.7240  -18.1520    7.1690 C.cat 225  ARG225      0.5346
    160  NH1       43.4230  -17.5040    8.0870 N.pl3 225  ARG225      0.1354
    161  NH2       41.6730  -17.5520    6.6430 N.pl3 225  ARG225      0.1354
    162  N         43.8410  -10.6660   26.5990 N.3   253  SER253     -0.1217
    163  CA        43.6230  -11.0780   25.2320 C.3   253  SER253      0.1889
    164  C         44.9290  -11.1620   24.4760 C.2   253  SER253      0.2288
    165  O         45.6850  -10.2020   24.4280 O.2   253  SER253     -0.2866
    166  CB        42.6520  -10.1180   24.5490 C.3   253  SER253      0.2089
    167  OG        41.5240   -9.8920   25.3930 O.3   253  SER253     -0.2183
    168  N         42.0580   -6.1830   27.4970 N.3   488  HIS488     -0.1241
    169  CA        42.9860   -5.8510   26.4210 C.3   488  HIS488      0.1621
    170  C         44.1010   -4.9480   26.9590 C.2   488  HIS488      0.2264
    171  O         43.8680   -4.0460   27.7840 O.2   488  HIS488     -0.2867
    172  CB        42.2640   -5.1240   25.3010 C.3   488  HIS488      0.0745
    173  CG        41.2160   -5.9380   24.6060 C.ar  488  HIS488      0.0817
    174  ND1       41.5210   -7.0090   23.7930 N.ar  488  HIS488     -0.2268
    175  CD2       39.8700   -5.7910   24.5470 C.ar  488  HIS488      0.1154
    176  CE1       40.4040   -7.5090   23.2970 C.ar  488  HIS488      0.1986
    177  NE2       39.3880   -6.7890   23.7430 N.ar  488  HIS488     -0.2212
    178  N         52.4760   -9.1860   14.1530 N.3   498  LYS498     -0.1245
    179  CA        51.3260   -9.6600   14.8780 C.3   498  LYS498      0.1561
    180  C         50.8140   -8.5110   15.7560 C.2   498  LYS498      0.2260
    181  O         49.6100   -8.2820   15.8550 O.2   498  LYS498     -0.2867
    182  CB        51.6510  -10.9230   15.6870 C.3   498  LYS498      0.0271
    183  CG        50.6710  -11.1840   16.8260 C.3   498  LYS498      0.0035
    184  CD        50.8210  -12.5550   17.4890 C.3   498  LYS498      0.0206
    185  CE        52.1050  -12.7140   18.2870 C.3   498  LYS498      0.1093
    186  NZ        52.4170  -14.1600   18.3490 N.3   498  LYS498     -0.1314
    187  N         48.9770   -5.8710   13.7570 N.3   501  TRP501     -0.1227
    188  CA        47.5950   -6.2700   13.4650 C.3   501  TRP501      0.1737
    189  C         46.6940   -6.2480   14.6960 C.2   501  TRP501      0.2595
    190  O         45.5040   -5.9560   14.5640 O.2   501  TRP501     -0.2718
    191  CB        47.5400   -7.6450   12.8310 C.3   501  TRP501      0.0564
    192  CG        48.2490   -7.7020   11.5440 C.ar  501  TRP501      0.0003
    193  CD1       49.3150   -8.4650   11.2580 C.ar  501  TRP501      0.0946
    194  CD2       47.9580   -6.9490   10.3710 C.ar  501  TRP501      0.0152
    195  NE1       49.7220   -8.2490    9.9730 N.ar  501  TRP501     -0.2442
    196  CE2       48.9010   -7.3180    9.4000 C.ar  501  TRP501      0.0810
    197  CE3       46.9920   -5.9940   10.0440 C.ar  501  TRP501      0.0012
    198  CZ2       48.9150   -6.7690    8.1230 C.ar  501  TRP501      0.0191
    199  CZ3       47.0000   -5.4560    8.7810 C.ar  501  TRP501      0.0001
    200  CH2       47.9530   -5.8440    7.8330 C.ar  501  TRP501      0.0015
    201  N         47.2520   -6.5540   15.8800 N.am  502  ARG502     -0.1980
    202  CA        46.4970   -6.5150   17.1250 C.3   502  ARG502      0.1597
    203  C         46.0730   -5.0800   17.4560 C.2   502  ARG502      0.2287
    204  O         44.9180   -4.8140   17.7770 O.2   502  ARG502     -0.2864
    205  CB        47.2810   -7.1450   18.2920 C.3   502  ARG502      0.0334
    206  CG        46.4350   -7.2840   19.5780 C.3   502  ARG502      0.0492
    207  CD        47.1420   -8.0470   20.6880 C.3   502  ARG502      0.2205
    208  NE        47.5670   -9.3720   20.2270 N.pl3 502  ARG502     -0.0865
    209  CZ        48.6870   -9.9890   20.5820 C.cat 502  ARG502      0.5346
    210  NH1       49.5740   -9.4210   21.4080 N.pl3 502  ARG502      0.1354
    211  NH2       48.9460  -11.1720   20.0820 N.pl3 502  ARG502      0.1354
    212  N         43.2770   -4.0800   15.1030 N.3   505  ALA505     -0.1231
    213  CA        41.9960   -4.6840   15.4790 C.3   505  ALA505      0.1694
    214  C         41.4440   -4.0780   16.7680 C.2   505  ALA505      0.2591
    215  O         40.2080   -4.0040   16.9540 O.2   505  ALA505     -0.2718
    216  CB        42.1520   -6.1880   15.6380 C.3   505  ALA505      0.0304
    217  N         42.3430   -3.6880   17.6820 N.am  506  MET506     -0.1979
    218  CA        41.8890   -3.0410   18.8950 C.3   506  MET506      0.1605
    219  C         41.3200   -1.6780   18.5620 C.2   506  MET506      0.2287
    220  O         40.3190   -1.2950   19.1370 O.2   506  MET506     -0.2864
    221  CB        42.9750   -2.9190   19.9580 C.3   506  MET506      0.0413
    222  CG        43.1720   -4.1880   20.7610 C.3   506  MET506      0.0598
    223  SD        44.4800   -4.0560   21.9960 S.3   506  MET506     -0.1393
    224  CE        45.8710   -3.5990   20.9750 C.3   506  MET506      0.0692
    225  N         37.8750   -2.4820   17.1540 N.3   509  ARG509     -0.1231
    226  CA        36.9630   -2.8310   18.2650 C.3   509  ARG509      0.1694
    227  C         36.5520   -1.6700   19.1710 C.2   509  ARG509      0.2592
    228  O         35.3750   -1.4660   19.4300 O.2   509  ARG509     -0.2718
    229  CB        37.5800   -3.9280   19.1170 C.3   509  ARG509      0.0321
    230  CG        36.8100   -4.2750   20.3860 C.3   509  ARG509      0.0489
    231  CD        36.7070   -5.7740   20.5670 C.3   509  ARG509      0.2205
    232  NE        35.3870   -6.2490   20.1480 N.pl3 509  ARG509     -0.0865
    233  CZ        35.1270   -7.3610   19.4580 C.cat 509  ARG509      0.5346
    234  NH1       36.0830   -8.1620   19.0280 N.pl3 509  ARG509      0.1354
    235  NH2       33.8710   -7.6610   19.1780 N.pl3 509  ARG509      0.1354
    236  N         37.5160   -0.9210   19.6770 N.am  510  PHE510     -0.1976
    237  CA        37.2080    0.1330   20.6490 C.3   510  PHE510      0.1639
    238  C         36.6620    1.3930   19.9900 C.2   510  PHE510      0.2290
    239  O         35.7640    1.9840   20.5200 O.2   510  PHE510     -0.2864
    240  CB        38.4210    0.4920   21.5080 C.3   510  PHE510      0.0560
    241  CG        38.7020   -0.4850   22.6310 C.ar  510  PHE510     -0.0200
    242  CD1       37.9280   -0.4830   23.7950 C.ar  510  PHE510     -0.0042
    243  CD2       39.7660   -1.3720   22.5550 C.ar  510  PHE510     -0.0042
    244  CE1       38.2120   -1.3510   24.8530 C.ar  510  PHE510     -0.0003
    245  CE2       40.0430   -2.2370   23.6060 C.ar  510  PHE510     -0.0003
    246  CZ        39.2700   -2.2240   24.7530 C.ar  510  PHE510     -0.0000
@<TRIPOS>BOND
     1     1     2    1
     2     8    10   ar
     3     8     6   ar
     4   142   140   am
     5     2     5    1
     6     2     3    1
     7     5     6    1
     8   141   140    2
     9    10     9   ar
    10     6     7   ar
    11   140   139    1
    12   138   137    2
    13   145   146    2
    14   145   144    1
    15     3    11   am
    16     3     4    2
    17     9     7   ar
    18   153   154    2
    19   153   152    1
    20    11    12    1
    21   139   136    1
    22   137   136    1
    23   137   143   am
    24   156   155    1
    25   156   157    1
    26    14    13    2
    27   144   143    1
    28   144   147    1
    29   155   152    1
    30   136   135    1
    31   161   159    1
    32   158   159    2
    33   158   157    1
    34   152   151    1
    35   159   160    1
    36    13    12    1
    37    13    18   am
    38    12    15    1
    39   147   148    1
    40    17    15    1
    41   149   148   ar
    42    15    16    1
    43   200   198   ar
    44   200   199   ar
    45   148   150   ar
    46    19    18    1
    47    19    20    1
    48    19    22    1
    49   135   126   am
    50   127   126    2
    51   198   196   ar
    52    20    21    2
    53    24    22    1
    54    23    25    1
    55    23    22    1
    56   126   125    1
    57   199   197   ar
    58   196   195   ar
    59   196   194   ar
    60   122   121    2
    61   195   193   ar
    62   197   194   ar
    63   125   128    1
    64   125   124    1
    65   194   192   ar
    66   121   124   am
    67   121   120    1
    68   123   120    1
    69   129   128    1
    70   129   130    1
    71   120   119    1
    72   119   113   am
    73   193   192   ar
    74   111   112    1
    75    56    53    1
    76   131   130    1
    77   131   132    2
    78   192   191    1
    79   134   132    1
    80   112   113    1
    81   112   115    1
    82   113   114    2
    83   132   133    1
    84   100    99    2
    85    47    49   ar
    86    47    45   ar
    87    40    41    1
    88    49    50   ar
    89    41    44    1
    90    41    42    1
    91    44    45    1
    92    53    52    1
    93    53    54    1
    94   191   188    1
    95    45    46   ar
    96    99    98    1
    97    55    54    2
    98   115   116    1
    99   116   117    1
   100    98    97    1
   101    98   101    1
   102   188   187    1
   103   188   189    1
   104    54    57   am
   105    50    51    1
   106    50    48   ar
   107    43    42    2
   108   178   179    1
   109    46    48   ar
   110    29    28    2
   111   102   101    1
   112    69    70    1
   113    69    68    1
   114   190   189    2
   115    57    58    1
   116   189   201   am
   117   179   182    1
   118   179   180    1
   119    70    64    1
   120    96    95    2
   121   212   213    1
   122   117   118    1
   123    28    27    1
   124    26    27    1
   125    27    30    1
   126   213   216    1
   127   213   214    1
   128    58    59    1
   129    58    61    1
   130   106   105    2
   131    68    65    1
   132   182   183    1
   133    64    59   am
   134    64    65    1
   135   180   181    2
   136   105   104    1
   137   201   202    1
   138    95    94    1
   139   107   108    1
   140   107   104    1
   141    59    60    2
   142    38    39   ar
   143    38    36   ar
   144    39    37   ar
   145    65    66    1
   146    36    33   ar
   147    37    35   ar
   148    63    61    1
   149    35    33   ar
   150    35    34   ar
   151    33    31   ar
   152   110   108   am
   153    34    32   ar
   154    31    30    1
   155    31    32   ar
   156   214   215    2
   157   214   217   am
   158    61    62    1
   159   108   109    2
   160   104   103    1
   161   183   184    1
   162   202   203    1
   163   202   205    1
   164   225   226    1
   165    94    93    1
   166   203   204    2
   167   184   185    1
   168    66    67    2
   169   217   218    1
   170    83    82    1
   171    83    84    1
   172   226   229    1
   173   226   227    1
   174   185   186    1
   175   205   206    1
   176    76    75    1
   177   219   218    1
   178   219   220    2
   179    82    79    1
   180    84    86   ar
   181    84    85   ar
   182   218   221    1
   183   234   233    1
   184   229   230    1
   185   227   228    2
   186   227   236   am
   187   235   233    1
   188   233   232    2
   189   206   207    1
   190   236   237    1
   191    71    72    1
   192    75    77    1
   193    75    72    1
   194   221   222    1
   195    78    79    1
   196    78    73   am
   197   238   239    2
   198   238   237    1
   199    79    80    1
   200   211   209    1
   201   232   231    1
   202   208   209    2
   203   208   207    1
   204   230   231    1
   205   209   210    1
   206    72    73    1
   207   237   240    1
   208    80    81    2
   209   222   223    1
   210    73    74    2
   211   224   223    1
   212   240   241    1
   213   243   241   ar
   214   243   245   ar
   215   241   242   ar
   216    87    88    1
   217   176   177   ar
   218   176   174   ar
   219   245   246   ar
   220   177   175   ar
   221   174   173   ar
   222   242   244   ar
   223    91    88    1
   224    91    92    1
   225    88    89    1
   226   165   164    2
   227    90    89    2
   228   164   163    1
   229   175   173   ar
   230   166   163    1
   231   166   167    1
   232   173   172    1
   233   246   244   ar
   234   163   162    1
   235   172   169    1
   236   169   170    1
   237   169   168    1
   238   170   171    2
