@<TRIPOS>MOLECULE
tmp/4pxxA00.pdb
 187 181 0 0 0
SMALL
GASTEIGER

@<TRIPOS>ATOM
      1  N         28.8070   79.1830   13.7170 N.3     3  TRP3       -0.1241
      2  CA        29.5240   80.4830   13.6890 C.3     3  TRP3        0.1605
      3  C         30.5610   80.6070   12.5510 C.2     3  TRP3        0.2264
      4  O         31.0810   79.6150   12.0520 O.2     3  TRP3       -0.2867
      5  CB        30.1740   80.7890   15.0420 C.3     3  TRP3        0.0550
      6  CG        31.3840   79.9760   15.3350 C.ar    3  TRP3        0.0003
      7  CD1       31.4410   78.7830   16.0020 C.ar    3  TRP3        0.0946
      8  CD2       32.7300   80.3080   14.9850 C.ar    3  TRP3        0.0152
      9  NE1       32.7520   78.3500   16.0900 N.ar    3  TRP3       -0.2442
     10  CE2       33.5570   79.2750   15.4660 C.ar    3  TRP3        0.0810
     11  CE3       33.3160   81.3880   14.3160 C.ar    3  TRP3        0.0012
     12  CZ2       34.9350   79.2800   15.2780 C.ar    3  TRP3        0.0191
     13  CZ3       34.6950   81.3930   14.1400 C.ar    3  TRP3        0.0001
     14  CH2       35.4850   80.3510   14.6170 C.ar    3  TRP3        0.0015
     15  N         51.1930   68.3420   11.2890 N.3    56  ARG56      -0.1245
     16  CA        50.3630   68.4830   10.1200 C.3    56  ARG56       0.1563
     17  C         49.7570   69.8740   10.0880 C.2    56  ARG56       0.2260
     18  O         49.8310   70.6260   11.0710 O.2    56  ARG56      -0.2867
     19  CB        49.2540   67.4310   10.0840 C.3    56  ARG56       0.0307
     20  CG        48.1870   67.6090   11.0850 C.3    56  ARG56       0.0489
     21  CD        46.9720   66.6930   10.7970 C.3    56  ARG56       0.2205
     22  NE        45.8600   67.1600   11.6150 N.pl3  56  ARG56      -0.0865
     23  CZ        44.5920   66.7800   11.5070 C.cat  56  ARG56       0.5346
     24  NH1       44.2190   65.8740   10.6120 N.pl3  56  ARG56       0.1354
     25  NH2       43.7000   67.3290   12.3210 N.pl3  56  ARG56       0.1354
     26  N         46.0760   71.8820    8.7010 N.3    58  LEU58      -0.1245
     27  CA        44.6680   71.5450    8.4750 C.3    58  LEU58       0.1561
     28  C         43.9090   72.8090    8.1560 C.2    58  LEU58       0.2260
     29  O         44.0780   73.7880    8.8530 O.2    58  LEU58      -0.2867
     30  CB        44.0790   70.9490    9.7570 C.3    58  LEU58       0.0270
     31  CG        42.5650   70.8850    9.9110 C.3    58  LEU58       0.0019
     32  CD1       41.9970   69.8330    8.9770 C.3    58  LEU58       0.0001
     33  CD2       42.1590   70.6080   11.3540 C.3    58  LEU58       0.0001
     34  N         40.5240   74.1580    8.6920 N.3    60  ASN60      -0.1240
     35  CA        39.3460   73.7550    9.4860 C.3    60  ASN60       0.1653
     36  C         38.0830   74.5620    9.1640 C.2    60  ASN60       0.2266
     37  O         37.0750   74.5100    9.8880 O.2    60  ASN60      -0.2867
     38  CB        39.6560   73.7790   10.9920 C.3    60  ASN60       0.1155
     39  CG        39.7710   75.1800   11.5620 C.2    60  ASN60       0.2627
     40  OD1       39.7050   76.1750   10.8470 O.2    60  ASN60      -0.2716
     41  ND2       39.9210   75.2570   12.8770 N.am   60  ASN60      -0.0877
     42  N         45.5210   75.6140   10.6150 N.3    65  ASN65      -0.1240
     43  CA        46.2830   75.4470   11.8400 C.3    65  ASN65       0.1653
     44  C         47.4560   74.5510   11.5510 C.2    65  ASN65       0.2266
     45  O         47.2800   73.5200   10.9090 O.2    65  ASN65      -0.2867
     46  CB        45.4780   74.6900   12.8990 C.3    65  ASN65       0.1155
     47  CG        44.3040   75.4700   13.4130 C.2    65  ASN65       0.2627
     48  OD1       44.2340   76.6860   13.2440 O.2    65  ASN65      -0.2716
     49  ND2       43.3560   74.7740   14.0430 N.am   65  ASN65      -0.0877
     50  N         49.6820   72.0700   13.6160 N.3    67  GLU67      -0.1245
     51  CA        49.5820   71.3660   14.8850 C.3    67  GLU67       0.1567
     52  C         50.9350   70.8250   15.3100 C.2    67  GLU67       0.2260
     53  O         51.7220   70.3670   14.4740 O.2    67  GLU67      -0.2867
     54  CB        48.6090   70.2040   14.7290 C.3    67  GLU67       0.0388
     55  CG        47.2050   70.6560   14.3250 C.3    67  GLU67       0.1160
     56  CD        46.2910   69.5120   13.9910 C.2    67  GLU67       0.3649
     57  OE1       46.8100   68.4060   13.7050 O.co2  67  GLU67      -0.2457
     58  OE2       45.0550   69.7190   14.0120 O.co2  67  GLU67      -0.2457
     59  N         50.9300   74.2010   21.2330 N.3    89  ILE89      -0.1231
     60  CA        50.0580   73.1830   20.6490 C.3    89  ILE89       0.1692
     61  C         49.7200   73.4660   19.1670 C.2    89  ILE89       0.2591
     62  O         49.5820   72.5440   18.3700 O.2    89  ILE89      -0.2718
     63  CB        48.7720   72.9940   21.5000 C.3    89  ILE89       0.0266
     64  CG1       47.9150   71.8370   20.9480 C.3    89  ILE89       0.0019
     65  CG2       47.9500   74.2910   21.5820 C.3    89  ILE89       0.0020
     66  CD1       46.7720   71.4610   21.8780 C.3    89  ILE89       0.0001
     67  N         49.5970   74.7360   18.7780 N.am   90  GLN90      -0.1979
     68  CA        49.2790   75.0310   17.3880 C.3    90  GLN90       0.1601
     69  C         49.5360   76.4820   17.0520 C.2    90  GLN90       0.2287
     70  O         49.6120   77.3060   17.9530 O.2    90  GLN90      -0.2864
     71  CB        47.8110   74.6740   17.0750 C.3    90  GLN90       0.0394
     72  CG        46.7130   75.4930   17.6950 C.3    90  GLN90       0.0908
     73  CD        46.0630   76.4710   16.6990 C.2    90  GLN90       0.2608
     74  OE1       46.6660   77.4520   16.3500 O.2    90  GLN90      -0.2717
     75  NE2       44.8410   76.1750   16.2290 N.am   90  GLN90      -0.0878
     76  N         48.1760   79.5890   13.9840 N.3    92  HIS92      -0.1241
     77  CA        47.3270   79.9030   12.8670 C.3    92  HIS92       0.1621
     78  C         47.4080   81.4160   12.6500 C.2    92  HIS92       0.2264
     79  O         48.0790   82.1290   13.3980 O.2    92  HIS92      -0.2867
     80  CB        45.8720   79.4990   13.1530 C.3    92  HIS92       0.0745
     81  CG        45.3120   80.1990   14.3390 C.ar   92  HIS92       0.0817
     82  ND1       45.4880   79.7270   15.6190 N.ar   92  HIS92      -0.2268
     83  CD2       44.6590   81.3820   14.4490 C.ar   92  HIS92       0.1154
     84  CE1       44.9270   80.5760   16.4660 C.ar   92  HIS92       0.1986
     85  NE2       44.4410   81.5930   15.7870 N.ar   92  HIS92      -0.2212
     86  N         45.1790   85.1410   11.1630 N.3    94  HIS94      -0.1241
     87  CA        43.9560   85.8190   10.7330 C.3    94  HIS94       0.1621
     88  C         44.4200   86.8400    9.7180 C.2    94  HIS94       0.2264
     89  O         45.4790   87.4070    9.8730 O.2    94  HIS94      -0.2867
     90  CB        43.2760   86.5260   11.9140 C.3    94  HIS94       0.0745
     91  CG        42.9720   85.6120   13.0610 C.ar   94  HIS94       0.0817
     92  ND1       41.7410   85.0230   13.2310 N.ar   94  HIS94      -0.2268
     93  CD2       43.7470   85.1620   14.0780 C.ar   94  HIS94       0.1154
     94  CE1       41.7700   84.2470   14.3050 C.ar   94  HIS94       0.1986
     95  NE2       42.9690   84.3310   14.8500 N.ar   94  HIS94      -0.2212
     96  N         48.9740   83.7700   15.5570 N.3   117  HIS117     -0.1241
     97  CA        48.7680   83.3560   16.9370 C.3   117  HIS117      0.1621
     98  C         49.4240   82.0220   17.2160 C.2   117  HIS117      0.2264
     99  O         49.0760   81.0270   16.5690 O.2   117  HIS117     -0.2867
    100  CB        47.2650   83.2270   17.2180 C.3   117  HIS117      0.0745
    101  CG        46.5530   84.5370   17.2570 C.ar  117  HIS117      0.0817
    102  ND1       45.1820   84.6460   17.1450 N.ar  117  HIS117     -0.2268
    103  CD2       47.0300   85.7970   17.4180 C.ar  117  HIS117      0.1154
    104  CE1       44.8470   85.9270   17.2100 C.ar  117  HIS117      0.1986
    105  NE2       45.9480   86.6460   17.3880 N.ar  117  HIS117     -0.2212
    106  N         49.7340   79.3340   19.9700 N.3   119  VAL119     -0.1245
    107  CA        48.8410   79.0050   21.0800 C.3   119  VAL119      0.1561
    108  C         49.5400   77.9990   22.0150 C.2   119  VAL119      0.2260
    109  O         50.0100   76.9540   21.5640 O.2   119  VAL119     -0.2867
    110  CB        47.5010   78.4000   20.5650 C.3   119  VAL119      0.0252
    111  CG1       46.5560   78.0750   21.7210 C.3   119  VAL119      0.0019
    112  CG2       46.8190   79.3100   19.5810 C.3   119  VAL119      0.0019
    113  N         45.4750   70.4180   27.2520 N.3   128  PHE128     -0.1241
    114  CA        44.8550   71.6070   26.6880 C.3   128  PHE128      0.1605
    115  C         43.3800   71.7180   27.0720 C.2   128  PHE128      0.2264
    116  O         42.8910   72.8150   27.3600 O.2   128  PHE128     -0.2867
    117  CB        44.9940   71.6380   25.1630 C.3   128  PHE128      0.0534
    118  CG        44.2730   72.7870   24.5320 C.ar  128  PHE128     -0.0203
    119  CD1       44.9080   74.0100   24.3620 C.ar  128  PHE128     -0.0042
    120  CD2       42.9470   72.6620   24.1550 C.ar  128  PHE128     -0.0042
    121  CE1       44.2390   75.0710   23.8250 C.ar  128  PHE128     -0.0003
    122  CE2       42.2790   73.7130   23.6070 C.ar  128  PHE128     -0.0003
    123  CZ        42.9180   74.9310   23.4470 C.ar  128  PHE128     -0.0000
    124  N         42.1500   75.0810   28.9860 N.3   132  VAL132     -0.1245
    125  CA        41.3550   76.0910   28.3150 C.3   132  VAL132      0.1561
    126  C         40.2250   76.5760   29.1860 C.2   132  VAL132      0.2260
    127  O         39.6600   77.6170   28.9280 O.2   132  VAL132     -0.2867
    128  CB        40.8240   75.5940   26.9310 C.3   132  VAL132      0.0252
    129  CG1       39.6490   74.6530   27.0850 C.3   132  VAL132      0.0019
    130  CG2       40.4330   76.7580   26.0690 C.3   132  VAL132      0.0019
    131  N         48.8450   83.1090   24.5670 N.3   140  VAL140     -0.1245
    132  CA        48.9580   83.2510   23.1250 C.3   140  VAL140      0.1561
    133  C         49.9170   84.3790   22.7430 C.2   140  VAL140      0.2260
    134  O         49.8410   85.4860   23.2510 O.2   140  VAL140     -0.2867
    135  CB        47.5990   83.4960   22.4780 C.3   140  VAL140      0.0252
    136  CG1       47.7640   83.6430   20.9790 C.3   140  VAL140      0.0019
    137  CG2       46.6440   82.3360   22.8100 C.3   140  VAL140      0.0019
    138  N         40.0900   83.7540   24.0630 N.3   195  LEU195     -0.1231
    139  CA        40.1260   83.2330   22.6810 C.3   195  LEU195      0.1693
    140  C         39.3850   84.2290   21.8040 C.2   195  LEU195      0.2593
    141  O         38.4310   84.8280   22.2520 O.2   195  LEU195     -0.2718
    142  CB        39.4040   81.8950   22.5930 C.3   195  LEU195      0.0284
    143  CG        39.8710   80.7540   23.4970 C.3   195  LEU195      0.0019
    144  CD1       39.1260   79.5070   23.1210 C.3   195  LEU195      0.0001
    145  CD2       41.3540   80.5750   23.3380 C.3   195  LEU195      0.0001
    146  N         39.8020   84.4060   20.5560 N.am  196  THR196     -0.1939
    147  CA        39.1780   85.4010   19.6950 C.3   196  THR196      0.2028
    148  C         38.1890   84.7440   18.7480 C.2   196  THR196      0.2643
    149  O         37.6800   85.3880   17.8270 O.2   196  THR196     -0.2714
    150  CB        40.2230   86.1670   18.8680 C.3   196  THR196      0.1808
    151  OG1       40.8650   85.2570   17.9880 O.3   196  THR196     -0.2208
    152  CG2       41.2450   86.8540   19.7720 C.3   196  THR196      0.0379
    153  N         37.9390   83.4510   18.9680 N.am  197  THR197     -0.1937
    154  CA        36.8540   82.7360   18.3140 C.3   197  THR197      0.2013
    155  C         35.9780   82.0720   19.3620 C.2   197  THR197      0.2484
    156  O         36.4200   81.8170   20.4830 O.2   197  THR197     -0.2729
    157  CB        37.3650   81.5870   17.3940 C.3   197  THR197      0.1807
    158  OG1       38.1750   80.7100   18.1640 O.3   197  THR197     -0.2208
    159  CG2       38.1990   82.1350   16.2430 C.3   197  THR197      0.0379
    160  N         34.7310   81.7400   18.9930 N.am  198  PRO198     -0.2715
    161  CA        33.9720   80.9160   19.9380 C.3   198  PRO198      0.1521
    162  C         34.8110   79.6840   20.3280 C.2   198  PRO198      0.2440
    163  O         35.4970   79.1200   19.4830 O.2   198  PRO198     -0.2731
    164  CB        32.7330   80.5210   19.1350 C.3   198  PRO198      0.0310
    165  CG        32.5300   81.7090   18.2090 C.3   198  PRO198      0.0237
    166  CD        33.9330   82.1330   17.8190 C.3   198  PRO198      0.0939
    167  N         34.7290   79.2470   21.5910 N.am  199  PRO199     -0.2727
    168  CA        33.8070   79.6650   22.6520 C.3   199  PRO199      0.1402
    169  C         34.1680   80.9380   23.4080 C.2   199  PRO199      0.2269
    170  O         33.5190   81.2310   24.3920 O.2   199  PRO199     -0.2865
    171  CB        33.8080   78.4560   23.5940 C.3   199  PRO199      0.0296
    172  CG        35.1550   77.8660   23.4120 C.3   199  PRO199      0.0237
    173  CD        35.5520   78.0970   21.9960 C.3   199  PRO199      0.0939
    174  N         47.5670   87.2440   27.0010 N.3   206  TRP206     -0.1241
    175  CA        48.0130   87.7080   25.6770 C.3   206  TRP206      0.1605
    176  C         49.3690   88.3880   25.7570 C.2   206  TRP206      0.2264
    177  O         49.6100   89.2370   26.6390 O.2   206  TRP206     -0.2867
    178  CB        47.0050   88.6670   25.0590 C.3   206  TRP206      0.0550
    179  CG        45.8980   87.9420   24.4010 C.ar  206  TRP206      0.0003
    180  CD1       44.6770   87.6430   24.9120 C.ar  206  TRP206      0.0946
    181  CD2       45.9390   87.3870   23.0930 C.ar  206  TRP206      0.0152
    182  NE1       43.9360   86.9220   23.9970 N.ar  206  TRP206     -0.2442
    183  CE2       44.6910   86.7710   22.8590 C.ar  206  TRP206      0.0810
    184  CE3       46.9080   87.3650   22.0890 C.ar  206  TRP206      0.0012
    185  CZ2       44.4020   86.1310   21.6770 C.ar  206  TRP206      0.0191
    186  CZ3       46.6120   86.7320   20.9010 C.ar  206  TRP206      0.0001
    187  CH2       45.3820   86.1190   20.7110 C.ar  206  TRP206      0.0015
@<TRIPOS>BOND
     1    28    27    1
     2    28    29    2
     3    27    26    1
     4    27    30    1
     5    34    35    1
     6    32    31    1
     7    36    35    1
     8    36    37    2
     9    35    38    1
    10    88    89    2
    11    88    87    1
    12    30    31    1
    13    31    33    1
    14    19    16    1
    15    19    20    1
    16    17    16    1
    17    17    18    2
    18    16    15    1
    19    24    23    1
    20    42    43    1
    21    87    86    1
    22    87    90    1
    23    21    20    1
    24    21    22    1
    25    40    39    2
    26    45    44    2
    27    38    39    1
    28    23    22    2
    29    23    25    1
    30    44    43    1
    31    39    41   am
    32    43    46    1
    33    90    91    1
    34     4     3    2
    35     3     2    1
    36    78    77    1
    37    78    79    2
    38    77    80    1
    39    77    76    1
    40    46    47    1
    41    91    92   ar
    42    91    93   ar
    43    80    81    1
    44    92    94   ar
    45    48    47    2
    46    47    49   am
    47    50    51    1
    48     2     1    1
    49     2     5    1
    50    57    56   ar
    51    56    58   ar
    52    56    55    1
    53    93    95   ar
    54    13    11   ar
    55    13    14   ar
    56    94    95   ar
    57    11     8   ar
    58    55    54    1
    59    81    83   ar
    60    81    82   ar
    61    83    85   ar
    62    53    52    2
    63    14    12   ar
    64    54    51    1
    65    51    52    1
    66     8     6   ar
    67     8    10   ar
    68     5     6    1
    69    12    10   ar
    70     6     7   ar
    71    10     9   ar
    72    96    97    1
    73    82    84   ar
    74    85    84   ar
    75     7     9   ar
    76    75    73   am
    77   159   157    1
    78    74    73    2
    79    99    98    2
    80    73    72    1
    81    97    98    1
    82    97   100    1
    83    69    68    1
    84    69    70    2
    85    71    68    1
    86    71    72    1
    87   102   104   ar
    88   102   101   ar
    89   104   105   ar
    90   100   101    1
    91   101   103   ar
    92   105   103   ar
    93    68    67    1
    94   157   158    1
    95   157   154    1
    96   166   165    1
    97   166   160    1
    98   149   148    2
    99   151   150    1
   100   165   164    1
   101   154   153    1
   102   154   155    1
   103    62    61    2
   104   148   153   am
   105   148   147    1
   106    67    61   am
   107   150   147    1
   108   150   152    1
   109   160   155   am
   110   160   161    1
   111   164   161    1
   112    61    60    1
   113   155   156    2
   114   163   162    2
   115   112   110    1
   116   147   146    1
   117   161   162    1
   118   106   107    1
   119   162   167   am
   120   146   140   am
   121   110   107    1
   122   110   111    1
   123    60    59    1
   124    60    63    1
   125   187   186   ar
   126   187   185   ar
   127   186   184   ar
   128    64    63    1
   129    64    66    1
   130   136   135    1
   131   107   108    1
   132    63    65    1
   133   109   108    2
   134   167   173    1
   135   167   168    1
   136   185   183   ar
   137   140   141    2
   138   140   139    1
   139   173   172    1
   140   184   181   ar
   141   135   137    1
   142   135   132    1
   143   142   139    1
   144   142   143    1
   145   168   169    1
   146   168   171    1
   147   139   138    1
   148   133   132    1
   149   133   134    2
   150   183   181   ar
   151   183   182   ar
   152   181   179   ar
   153   144   143    1
   154   132   131    1
   155   145   143    1
   156   169   170    2
   157   172   171    1
   158   123   122   ar
   159   123   121   ar
   160   122   120   ar
   161   121   119   ar
   162   182   180   ar
   163   120   118   ar
   164   119   118   ar
   165   179   180   ar
   166   179   178    1
   167   118   117    1
   168   178   175    1
   169   117   114    1
   170   175   176    1
   171   175   174    1
   172   176   177    2
   173   130   128    1
   174   114   115    1
   175   114   113    1
   176   128   129    1
   177   128   125    1
   178   115   116    2
   179   125   124    1
   180   125   126    1
   181   127   126    2
