@<TRIPOS>MOLECULE
tmp/4pxzA00.pdb
 257 242 0 0 0
SMALL
GASTEIGER

@<TRIPOS>ATOM
      1  N         23.0340    5.5450   68.3670 N.3     5  ARG5       -0.1245
      2  CA        23.6570    5.4850   67.0460 C.3     5  ARG5        0.1563
      3  C         24.1180    6.8880   66.6420 C.2     5  ARG5        0.2260
      4  O         23.3270    7.8350   66.6900 O.2     5  ARG5       -0.2867
      5  CB        22.6730    4.8990   66.0190 C.3     5  ARG5        0.0307
      6  CG        23.2730    4.5830   64.6500 C.3     5  ARG5        0.0489
      7  CD        22.2950    3.7770   63.8210 C.3     5  ARG5        0.2205
      8  NE        22.2190    2.3780   64.2450 N.pl3   5  ARG5       -0.0865
      9  CZ        21.3190    1.5040   63.8010 C.cat   5  ARG5        0.5346
     10  NH1       20.4010    1.8750   62.9180 N.pl3   5  ARG5        0.1354
     11  NH2       21.3280    0.2520   64.2420 N.pl3   5  ARG5        0.1354
     12  N         14.5870   10.5730   51.3200 N.3    66  LYS66      -0.1245
     13  CA        15.7040   10.0010   52.0690 C.3    66  LYS66       0.1561
     14  C         16.6700   11.1130   52.5040 C.2    66  LYS66       0.2260
     15  O         17.0010   11.1720   53.6900 O.2    66  LYS66      -0.2867
     16  CB        16.4340    8.9150   51.2490 C.3    66  LYS66       0.0271
     17  CG        17.5170    8.2150   52.0520 C.3    66  LYS66       0.0035
     18  CD        18.2740    7.1760   51.2750 C.3    66  LYS66       0.0206
     19  CE        19.2710    6.4570   52.1480 C.3    66  LYS66       0.1093
     20  NZ        18.6360    5.8090   53.3300 N.3    66  LYS66      -0.1314
     21  N         10.5550   10.6360   58.2600 N.3    79  ARG79      -0.1245
     22  CA        11.3570    9.4290   58.4930 C.3    79  ARG79       0.1563
     23  C         10.4290    8.2070   58.5620 C.2    79  ARG79       0.2260
     24  O         10.7600    7.1680   57.9940 O.2    79  ARG79      -0.2867
     25  CB        12.2360    9.5640   59.7570 C.3    79  ARG79       0.0307
     26  CG        13.0880    8.3330   60.1200 C.3    79  ARG79       0.0489
     27  CD        13.9850    7.8220   58.9950 C.3    79  ARG79       0.2205
     28  NE        14.5030    6.4850   59.2950 N.pl3  79  ARG79      -0.0865
     29  CZ        15.0120    5.6420   58.4000 C.cat  79  ARG79       0.5346
     30  NH1       15.0740    5.9790   57.1160 N.pl3  79  ARG79       0.1354
     31  NH2       15.4550    4.4530   58.7800 N.pl3  79  ARG79       0.1354
     32  N         10.4360    4.9900   55.9230 N.3    83  CYS83      -0.1235
     33  CA        10.4080    3.6350   56.4750 C.3    83  CYS83       0.1677
     34  C          9.2630    2.8000   55.9030 C.2    83  CYS83       0.2270
     35  O          9.4470    1.6330   55.5630 O.2    83  CYS83      -0.2867
     36  CB        10.3090    3.7030   57.9960 C.3    83  CYS83       0.0956
     37  SG        11.8980    3.9050   58.8380 S.3    83  CYS83      -0.0801
     38  N         11.2400    4.2090   51.0120 N.3    87  SER87      -0.1202
     39  CA        12.4060    3.3030   51.0010 C.3    87  SER87       0.2020
     40  C         11.9790    1.8770   50.6050 C.2    87  SER87       0.2618
     41  O         12.8110    1.1180   50.1180 O.2    87  SER87      -0.2717
     42  CB        13.1900    3.3220   52.3160 C.3    87  SER87       0.2103
     43  OG        12.5630    2.6450   53.3930 O.3    87  SER87      -0.2182
     44  N         10.6800    1.5380   50.7620 N.am   88  VAL88      -0.1979
     45  CA        10.1220    0.2510   50.3190 C.3    88  VAL88       0.1595
     46  C         10.0760    0.2670   48.7790 C.2    88  VAL88       0.2287
     47  O         10.4450   -0.7360   48.1630 O.2    88  VAL88      -0.2864
     48  CB         8.7400   -0.0960   50.9470 C.3    88  VAL88       0.0276
     49  CG1        8.2550   -1.4670   50.4830 C.3    88  VAL88       0.0022
     50  CG2        8.7980   -0.0480   52.4730 C.3    88  VAL88       0.0022
     51  N         13.6360   -0.3290   47.2640 N.3    91  TYR91      -0.1227
     52  CA        14.0000   -1.7370   47.2540 C.3    91  TYR91       0.1736
     53  C         13.2550   -2.5430   46.2050 C.2    91  TYR91       0.2595
     54  O         13.9000   -3.3180   45.5140 O.2    91  TYR91      -0.2718
     55  CB        13.7810   -2.3680   48.6300 C.3    91  TYR91       0.0548
     56  CG        14.8010   -1.9780   49.6790 C.ar   91  TYR91      -0.0200
     57  CD1       16.1610   -2.2120   49.4820 C.ar   91  TYR91      -0.0009
     58  CD2       14.4000   -1.4650   50.9090 C.ar   91  TYR91      -0.0009
     59  CE1       17.0990   -1.9000   50.4680 C.ar   91  TYR91       0.0417
     60  CE2       15.3260   -1.1620   51.9030 C.ar   91  TYR91       0.0417
     61  CZ        16.6740   -1.3900   51.6830 C.ar   91  TYR91       0.1957
     62  OH        17.5750   -1.1000   52.6800 O.3    91  TYR91      -0.2866
     63  N         11.9140   -2.3830   46.0750 N.am   92  PHE92      -0.1976
     64  CA        11.1580   -3.1790   45.1070 C.3    92  PHE92       0.1639
     65  C         11.5140   -2.7790   43.6450 C.2    92  PHE92       0.2290
     66  O         11.5470   -3.6660   42.7910 O.2    92  PHE92      -0.2864
     67  CB         9.6360   -3.1970   45.4000 C.3    92  PHE92       0.0560
     68  CG         8.7020   -2.1960   44.7580 C.ar   92  PHE92      -0.0200
     69  CD1        8.4090   -2.2650   43.3970 C.ar   92  PHE92      -0.0042
     70  CD2        7.9850   -1.2950   45.5370 C.ar   92  PHE92      -0.0042
     71  CE1        7.5210   -1.3640   42.8070 C.ar   92  PHE92      -0.0003
     72  CE2        7.0730   -0.4050   44.9500 C.ar   92  PHE92      -0.0003
     73  CZ         6.8510   -0.4450   43.5890 C.ar   92  PHE92      -0.0000
     74  N         15.0780   -4.4230   42.7640 N.3    95  TYR95      -0.1241
     75  CA        15.0020   -5.8240   42.3590 C.3    95  TYR95       0.1605
     76  C         14.2830   -5.9640   41.0180 C.2    95  TYR95       0.2264
     77  O         14.4730   -6.9780   40.3420 O.2    95  TYR95      -0.2867
     78  CB        14.4010   -6.7000   43.4740 C.3    95  TYR95       0.0534
     79  CG        15.3900   -6.8130   44.6130 C.ar   95  TYR95      -0.0201
     80  CD1       16.5070   -7.6390   44.5110 C.ar   95  TYR95      -0.0009
     81  CD2       15.3020   -5.9760   45.7240 C.ar   95  TYR95      -0.0009
     82  CE1       17.4760   -7.6770   45.5150 C.ar   95  TYR95       0.0417
     83  CE2       16.2630   -6.0090   46.7370 C.ar   95  TYR95       0.0417
     84  CZ        17.3530   -6.8550   46.6220 C.ar   95  TYR95       0.1957
     85  OH        18.2980   -6.9040   47.6160 O.3    95  TYR95      -0.2866
     86  N          7.0980   -7.9610   42.5000 N.3   133  MET133     -0.1245
     87  CA         7.8490   -7.1150   43.4420 C.3   133  MET133      0.1570
     88  C          6.9270   -6.2550   44.2800 C.2   133  MET133      0.2261
     89  O          7.2360   -5.9760   45.4390 O.2   133  MET133     -0.2867
     90  CB         8.8640   -6.2220   42.7180 C.3   133  MET133      0.0387
     91  CG         9.9990   -6.9870   42.0940 C.3   133  MET133      0.0595
     92  SD        10.7720   -8.2340   43.1500 S.3   133  MET133     -0.1393
     93  CE        11.5270   -9.2140   41.8780 C.3   133  MET133      0.0692
     94  N          5.2870   -8.5010   47.0730 N.3   136  LEU136     -0.1231
     95  CA         6.2060   -8.6380   48.2120 C.3   136  LEU136      0.1693
     96  C          6.3170   -7.3550   49.0240 C.2   136  LEU136      0.2592
     97  O          6.4570   -7.4240   50.2450 O.2   136  LEU136     -0.2718
     98  CB         7.6250   -9.0140   47.7380 C.3   136  LEU136      0.0284
     99  CG         7.9060  -10.4230   47.2300 C.3   136  LEU136      0.0019
    100  CD1        9.3290  -10.5120   46.7550 C.3   136  LEU136      0.0001
    101  CD2        7.6700  -11.4690   48.3110 C.3   136  LEU136      0.0001
    102  N          6.3320   -6.1930   48.3390 N.am  137  SER137     -0.1952
    103  CA         6.5090   -4.8640   48.9300 C.3   137  SER137      0.1924
    104  C          5.3310   -4.3990   49.7840 C.2   137  SER137      0.2314
    105  O          5.5580   -3.7870   50.8240 O.2   137  SER137     -0.2863
    106  CB         6.7890   -3.8320   47.8370 C.3   137  SER137      0.2116
    107  OG         5.8230   -2.7940   47.7520 O.3   137  SER137     -0.2180
    108  N          5.0650   -4.9610   53.6180 N.3   140  ASN140     -0.1240
    109  CA         6.1230   -4.1910   54.2950 C.3   140  ASN140      0.1653
    110  C          5.6510   -2.7730   54.5970 C.2   140  ASN140      0.2266
    111  O          6.0400   -2.2120   55.6140 O.2   140  ASN140     -0.2867
    112  CB         7.4260   -4.1240   53.4630 C.3   140  ASN140      0.1155
    113  CG         8.2760   -5.3730   53.4420 C.2   140  ASN140      0.2627
    114  OD1        8.8990   -5.6870   52.4380 O.2   140  ASN140     -0.2716
    115  ND2        8.3880   -6.0860   54.5510 N.am  140  ASN140     -0.0877
    116  N          4.3130   -1.6310   58.8650 N.3   144  THR144     -0.1218
    117  CA         5.1500   -0.5920   59.4870 C.3   144  THR144      0.1862
    118  C          4.1480    0.3870   60.1300 C.2   144  THR144      0.2287
    119  O          4.0480    1.5480   59.7220 O.2   144  THR144     -0.2866
    120  CB         6.0830    0.0470   58.4320 C.3   144  THR144      0.1770
    121  OG1        6.6740   -0.9790   57.6470 O.3   144  THR144     -0.2211
    122  CG2        7.1820    0.8990   59.0490 C.3   144  THR144      0.0375
    123  N         15.5770    3.7920   63.4420 N.3   155  LYS155     -0.1231
    124  CA        15.5080    2.4840   62.7760 C.3   155  LYS155      0.1693
    125  C         14.0740    2.0250   62.4820 C.2   155  LYS155      0.2592
    126  O         13.2230    2.0500   63.3720 O.2   155  LYS155     -0.2718
    127  CB        16.2960    1.3840   63.5120 C.3   155  LYS155      0.0285
    128  CG        16.0950    1.2490   64.9980 C.3   155  LYS155      0.0035
    129  CD        17.4350    1.0740   65.7110 C.3   155  LYS155      0.0206
    130  CE        17.7990   -0.3670   65.9710 C.3   155  LYS155      0.1093
    131  NZ        19.0050   -0.4810   66.8290 N.3   155  LYS155     -0.1314
    132  N         13.8260    1.6110   61.2110 N.am  156  CYS156     -0.1970
    133  CA        12.5310    1.1560   60.6930 C.3   156  CYS156      0.1712
    134  C         12.0100   -0.0720   61.4300 C.2   156  CYS156      0.2296
    135  O         10.7970   -0.2640   61.4690 O.2   156  CYS156     -0.2864
    136  CB        12.5940    0.8850   59.1880 C.3   156  CYS156      0.0983
    137  SG        13.0130    2.3290   58.1740 S.3   156  CYS156     -0.0798
    138  N          7.8200   -1.5000   63.2490 N.3   160  LYS160     -0.1245
    139  CA         7.1520   -2.6880   62.7270 C.3   160  LYS160      0.1561
    140  C          6.4540   -3.5580   63.7580 C.2   160  LYS160      0.2260
    141  O          6.9320   -3.7450   64.8810 O.2   160  LYS160     -0.2867
    142  CB         8.1630   -3.5650   61.9660 C.3   160  LYS160      0.0271
    143  CG         8.6650   -2.8920   60.6990 C.3   160  LYS160      0.0035
    144  CD         9.2350   -3.8700   59.7200 C.3   160  LYS160      0.0206
    145  CE         9.6540   -3.1400   58.4770 C.3   160  LYS160      0.1093
    146  NZ         8.5430   -3.0060   57.5000 N.3   160  LYS160     -0.1314
    147  N          9.5100   -8.9830   56.7550 N.3   168  HIS168     -0.1241
    148  CA        10.7660   -8.2730   56.4770 C.3   168  HIS168      0.1621
    149  C         11.9060   -9.2730   56.2700 C.2   168  HIS168      0.2264
    150  O         12.7050   -9.1060   55.3560 O.2   168  HIS168     -0.2867
    151  CB        11.1010   -7.3120   57.6390 C.3   168  HIS168      0.0745
    152  CG        12.4030   -6.5870   57.4760 C.ar  168  HIS168      0.0817
    153  ND1       12.5090   -5.4690   56.6700 N.ar  168  HIS168     -0.2268
    154  CD2       13.6140   -6.8510   58.0150 C.ar  168  HIS168      0.1154
    155  CE1       13.7720   -5.0880   56.7510 C.ar  168  HIS168      0.1986
    156  NE2       14.4740   -5.8920   57.5450 N.ar  168  HIS168     -0.2212
    157  N         11.0540  -11.4240   52.9370 N.3   171  VAL171     -0.1231
    158  CA        11.2680  -10.5740   51.7630 C.3   171  VAL171      0.1692
    159  C         12.7710  -10.4480   51.4780 C.2   171  VAL171      0.2592
    160  O         13.1920  -10.6760   50.3410 O.2   171  VAL171     -0.2718
    161  CB        10.5560   -9.2050   51.9450 C.3   171  VAL171      0.0266
    162  CG1       11.1570   -8.1280   51.0660 C.3   171  VAL171      0.0020
    163  CG2        9.0730   -9.3340   51.6590 C.3   171  VAL171      0.0020
    164  N         13.5770  -10.1750   52.5190 N.am  172  ASN172     -0.1974
    165  CA        15.0330  -10.0520   52.4030 C.3   172  ASN172      0.1688
    166  C         15.6900  -11.3730   51.9900 C.2   172  ASN172      0.2292
    167  O         16.7250  -11.3290   51.3320 O.2   172  ASN172     -0.2864
    168  CB        15.6430   -9.4980   53.6800 C.3   172  ASN172      0.1181
    169  CG        15.5970   -7.9880   53.6960 C.2   172  ASN172      0.2629
    170  OD1       16.2690   -7.3040   52.9200 O.2   172  ASN172     -0.2716
    171  ND2       14.7540   -7.4280   54.5230 N.am  172  ASN172     -0.0877
    172  N         14.6850  -11.8350   48.0940 N.3   175  CYS175     -0.1235
    173  CA        15.5090  -10.8790   47.3600 C.3   175  CYS175      0.1677
    174  C         16.9710  -11.3490   47.2150 C.2   175  CYS175      0.2270
    175  O         17.5480  -11.1810   46.1370 O.2   175  CYS175     -0.2867
    176  CB        15.4060   -9.5010   47.9920 C.3   175  CYS175      0.0956
    177  SG        13.8280   -8.6860   47.6460 S.3   175  CYS175     -0.0801
    178  N         26.4230   -4.8850   48.7620 N.3   339  PHE339     -0.1241
    179  CA        25.1590   -4.7440   49.5010 C.3   339  PHE339      0.1605
    180  C         24.5660   -6.0900   49.8980 C.2   339  PHE339      0.2264
    181  O         24.1100   -6.2380   51.0300 O.2   339  PHE339     -0.2867
    182  CB        24.1200   -3.9360   48.6940 C.3   339  PHE339      0.0534
    183  CG        22.7910   -3.7520   49.3980 C.ar  339  PHE339     -0.0203
    184  CD1       22.6770   -2.9090   50.4960 C.ar  339  PHE339     -0.0042
    185  CD2       21.6580   -4.4410   48.9720 C.ar  339  PHE339     -0.0042
    186  CE1       21.4560   -2.7610   51.1600 C.ar  339  PHE339     -0.0003
    187  CE2       20.4430   -4.3030   49.6440 C.ar  339  PHE339     -0.0003
    188  CZ        20.3460   -3.4500   50.7220 C.ar  339  PHE339     -0.0000
    189  N         23.9160   -7.4410   53.7530 N.3   343  ARG343     -0.1245
    190  CA        22.4970   -7.5430   54.0700 C.3   343  ARG343      0.1563
    191  C         22.0970   -8.5950   55.1130 C.2   343  ARG343      0.2260
    192  O         21.4340   -8.1990   56.0690 O.2   343  ARG343     -0.2867
    193  CB        21.6480   -7.7370   52.8000 C.3   343  ARG343      0.0307
    194  CG        20.7000   -6.5640   52.5480 C.3   343  ARG343      0.0489
    195  CD        19.6150   -6.4480   53.6190 C.3   343  ARG343      0.2205
    196  NE        18.9280   -5.1580   53.6100 N.pl3 343  ARG343     -0.0865
    197  CZ        18.1940   -4.6940   54.6150 C.cat 343  ARG343      0.5346
    198  NH1       18.0550   -5.4020   55.7290 N.pl3 343  ARG343      0.1354
    199  NH2       17.6060   -3.5110   54.5220 N.pl3 343  ARG343      0.1354
    200  N         22.8870   -7.7650   58.7680 N.3   346  TYR346     -0.1241
    201  CA        22.1250   -6.5600   59.1070 C.3   346  TYR346      0.1605
    202  C         20.6300   -6.8780   59.3140 C.2   346  TYR346      0.2264
    203  O         20.0030   -6.2950   60.2020 O.2   346  TYR346     -0.2867
    204  CB        22.3020   -5.4480   58.0500 C.3   346  TYR346      0.0534
    205  CG        21.5330   -4.1940   58.4120 C.ar  346  TYR346     -0.0201
    206  CD1       21.8110   -3.5010   59.5890 C.ar  346  TYR346     -0.0009
    207  CD2       20.4380   -3.7800   57.6580 C.ar  346  TYR346     -0.0009
    208  CE1       21.0660   -2.3870   59.9680 C.ar  346  TYR346      0.0417
    209  CE2       19.6890   -2.6590   58.0230 C.ar  346  TYR346      0.0417
    210  CZ        20.0170   -1.9590   59.1770 C.ar  346  TYR346      0.1957
    211  OH        19.3090   -0.8570   59.5770 O.3   346  TYR346     -0.2866
    212  N         18.1330   -6.6450   62.8670 N.3   350  GLN350     -0.1245
    213  CA        16.8530   -5.9280   62.8040 C.3   350  GLN350      0.1566
    214  C         15.6750   -6.7440   63.3460 C.2   350  GLN350      0.2260
    215  O         14.7590   -6.1640   63.9480 O.2   350  GLN350     -0.2867
    216  CB        16.5340   -5.5550   61.3390 C.3   350  GLN350      0.0367
    217  CG        17.2650   -4.3360   60.7820 C.3   350  GLN350      0.0905
    218  CD        16.8330   -4.0450   59.3570 C.2   350  GLN350      0.2608
    219  OE1       16.9650   -4.8820   58.4540 O.2   350  GLN350     -0.2717
    220  NE2       16.3270   -2.8440   59.1070 N.am  350  GLN350     -0.0878
    221  N         24.8330   -1.3550   60.4410 N.3   364  PHE364     -0.1241
    222  CA        24.0460   -0.2810   59.8290 C.3   364  PHE364      0.1605
    223  C         24.9060    0.5720   58.8790 C.2   364  PHE364      0.2264
    224  O         24.5040    0.7690   57.7390 O.2   364  PHE364     -0.2867
    225  CB        23.3810    0.6130   60.8940 C.3   364  PHE364      0.0534
    226  CG        22.7260    1.8510   60.3180 C.ar  364  PHE364     -0.0203
    227  CD1       21.5310    1.7630   59.6090 C.ar  364  PHE364     -0.0042
    228  CD2       23.3110    3.1050   60.4730 C.ar  364  PHE364     -0.0042
    229  CE1       20.9330    2.9030   59.0720 C.ar  364  PHE364     -0.0003
    230  CE2       22.7080    4.2450   59.9400 C.ar  364  PHE364     -0.0003
    231  CZ        21.5290    4.1330   59.2370 C.ar  364  PHE364     -0.0000
    232  N         25.7780   -1.3560   55.6700 N.3   367  LYS367     -0.1231
    233  CA        24.6270   -1.5140   54.7830 C.3   367  LYS367      0.1693
    234  C         24.2610   -0.1640   54.1450 C.2   367  LYS367      0.2591
    235  O         23.9260   -0.1280   52.9570 O.2   367  LYS367     -0.2718
    236  CB        23.4320   -2.1910   55.4920 C.3   367  LYS367      0.0285
    237  CG        22.3420   -1.2710   56.0050 C.3   367  LYS367      0.0035
    238  CD        21.1460   -1.1840   55.0640 C.3   367  LYS367      0.0206
    239  CE        20.5830    0.2110   55.1560 C.3   367  LYS367      0.1093
    240  NZ        19.1100    0.2380   55.2220 N.3   367  LYS367     -0.1314
    241  N         24.3600    0.9330   54.9150 N.am  368  GLU368     -0.1979
    242  CA        24.0720    2.2810   54.4460 C.3   368  GLU368      0.1602
    243  C         25.0500    2.6670   53.3070 C.2   368  GLU368      0.2287
    244  O         24.6040    3.1030   52.2470 O.2   368  GLU368     -0.2864
    245  CB        24.1390    3.2560   55.6320 C.3   368  GLU368      0.0415
    246  CG        23.3530    4.5420   55.4640 C.3   368  GLU368      0.1163
    247  CD        21.8620    4.4820   55.1620 C.2   368  GLU368      0.3649
    248  OE1       21.3600    5.4520   54.5490 O.co2 368  GLU368     -0.2457
    249  OE2       21.1960    3.4900   55.5370 O.co2 368  GLU368     -0.2457
    250  N         24.4260    0.4580   50.2050 N.3   371  LEU371     -0.1245
    251  CA        23.1230    0.8370   49.6430 C.3   371  LEU371      0.1561
    252  C         23.3160    1.9930   48.6830 C.2   371  LEU371      0.2260
    253  O         22.5920    2.0880   47.6910 O.2   371  LEU371     -0.2867
    254  CB        22.1290    1.2320   50.7600 C.3   371  LEU371      0.0270
    255  CG        20.6910    1.6400   50.3600 C.3   371  LEU371      0.0019
    256  CD1       19.8800    0.4400   49.8980 C.3   371  LEU371      0.0001
    257  CD2       19.9880    2.3080   51.5140 C.3   371  LEU371      0.0001
@<TRIPOS>BOND
     1    77    76    2
     2    76    75    1
     3    93    92    1
     4    91    90    1
     5    91    92    1
     6    75    74    1
     7    75    78    1
     8    86    87    1
     9    90    87    1
    10    66    65    2
    11    71    69   ar
    12    71    73   ar
    13    69    68   ar
    14    87    88    1
    15    78    79    1
    16    73    72   ar
    17    65    64    1
    18    88    89    2
    19    80    79   ar
    20    80    82   ar
    21    79    81   ar
    22    68    67    1
    23    68    70   ar
    24    72    70   ar
    25    64    67    1
    26    64    63    1
    27    54    53    2
    28    82    84   ar
    29    81    83   ar
    30    63    53   am
    31   175   174    2
    32    53    52    1
    33    84    83   ar
    34    84    85    1
    35   100    99    1
    36    94    95    1
    37   174   173    1
    38    99    98    1
    39    99   101    1
    40    52    51    1
    41    52    55    1
    42   173   176    1
    43   173   172    1
    44   177   176    1
    45   253   252    2
    46    98    95    1
    47   107   106    1
    48   106   103    1
    49    47    46    2
    50    95    96    1
    51   102   103    1
    52   102    96   am
    53    55    56    1
    54   252   251    1
    55   182   183    1
    56   182   179    1
    57   178   179    1
    58    46    45    1
    59   103   104    1
    60   185   183   ar
    61   185   187   ar
    62    96    97    2
    63   183   184   ar
    64    57    56   ar
    65    57    59   ar
    66   179   180    1
    67   251   250    1
    68   251   254    1
    69   187   188   ar
    70    56    58   ar
    71   104   105    2
    72   180   181    2
    73   256   255    1
    74    41    40    2
    75    45    44    1
    76    45    48    1
    77   160   159    2
    78   255   254    1
    79   255   257    1
    80    59    61   ar
    81    49    48    1
    82   184   186   ar
    83    40    44   am
    84    40    39    1
    85   188   186   ar
    86    58    60   ar
    87    48    50    1
    88    39    38    1
    89    39    42    1
    90   162   161    1
    91    16    17    1
    92    16    13    1
    93    18    17    1
    94    18    19    1
    95    12    13    1
    96   167   166    2
    97   159   158    1
    98   159   164   am
    99   163   161    1
   100    61    60   ar
   101    61    62    1
   102   158   161    1
   103   158   157    1
   104   166   165    1
   105    13    14    1
   106    19    20    1
   107   244   243    2
   108    42    43    1
   109   165   164    1
   110   165   168    1
   111   114   113    2
   112    14    15    2
   113   194   193    1
   114   194   195    1
   115   193   190    1
   116   170   169    2
   117   235   234    2
   118   243   242    1
   119   113   112    1
   120   113   115   am
   121   112   109    1
   122   196   195    1
   123   196   197    2
   124   108   109    1
   125   168   169    1
   126   169   171   am
   127   189   190    1
   128   190   191    1
   129   234   233    1
   130   234   241   am
   131   109   110    1
   132   242   241    1
   133   242   245    1
   134   199   197    1
   135   248   247   ar
   136   110   111    2
   137   197   198    1
   138   233   236    1
   139   233   232    1
   140   238   239    1
   141   238   237    1
   142   191   192    2
   143   239   240    1
   144   247   246    1
   145   247   249   ar
   146   150   149    2
   147   246   245    1
   148   236   237    1
   149    35    34    2
   150    34    33    1
   151    32    33    1
   152   149   148    1
   153    33    36    1
   154   148   147    1
   155   148   151    1
   156   153   155   ar
   157   153   152   ar
   158   155   156   ar
   159    30    29    1
   160   152   151    1
   161   152   154   ar
   162   146   145    1
   163   156   154   ar
   164   121   120    1
   165   207   209   ar
   166   207   205   ar
   167   224   223    2
   168    24    23    2
   169    36    37    1
   170   209   210   ar
   171   204   205    1
   172   204   201    1
   173   137    37    1
   174   137   136    1
   175    21    22    1
   176    29    31    1
   177    29    28    2
   178   205   206   ar
   179   120   122    1
   180   120   117    1
   181   219   218    2
   182   145   144    1
   183    22    23    1
   184    22    25    1
   185   200   201    1
   186   116   117    1
   187   223   222    1
   188    27    28    1
   189    27    26    1
   190   229   231   ar
   191   229   227   ar
   192   201   202    1
   193   220   218   am
   194   210   211    1
   195   210   208   ar
   196   136   133    1
   197   231   230   ar
   198   202   203    2
   199   218   217    1
   200   117   118    1
   201   206   208   ar
   202   227   226   ar
   203   144   143    1
   204   119   118    2
   205    25    26    1
   206   222   221    1
   207   222   225    1
   208   230   228   ar
   209   226   228   ar
   210   226   225    1
   211   133   132    1
   212   133   134    1
   213   143   142    1
   214   217   216    1
   215   132   125   am
   216   216   213    1
   217   134   135    2
   218   142   139    1
   219   125   124    1
   220   125   126    2
   221   139   138    1
   222   139   140    1
   223   124   123    1
   224   124   127    1
   225   213   212    1
   226   213   214    1
   227    10     9    1
   228   214   215    2
   229   127   128    1
   230   140   141    2
   231     9    11    1
   232     9     8    2
   233     7     8    1
   234     7     6    1
   235     6     5    1
   236   128   129    1
   237   129   130    1
   238   130   131    1
   239     5     2    1
   240     3     4    2
   241     3     2    1
   242     2     1    1
