@<TRIPOS>MOLECULE
tmp/4pxzA02.pdb
 101 95 0 0 0
SMALL
GASTEIGER

@<TRIPOS>ATOM
      1  N          9.2470    8.3570   59.1920 N.3    80  THR80      -0.1218
      2  CA         8.2270    7.3050   59.2710 C.3    80  THR80       0.1862
      3  C          7.7400    6.9740   57.8480 C.2    80  THR80       0.2287
      4  O          7.6450    5.7960   57.5040 O.2    80  THR80      -0.2866
      5  CB         7.0850    7.7250   60.2050 C.3    80  THR80       0.1770
      6  OG1        7.6400    8.1050   61.4670 O.3    80  THR80      -0.2211
      7  CG2        6.0610    6.6150   60.4120 C.3    80  THR80       0.0375
      8  N          8.0780    3.4140   55.8300 N.3    84  GLN84      -0.1231
      9  CA         6.8210    2.8140   55.4350 C.3    84  GLN84       0.1698
     10  C          6.5930    2.8020   53.9230 C.2    84  GLN84       0.2592
     11  O          6.0240    1.8320   53.4320 O.2    84  GLN84      -0.2718
     12  CB         5.7020    3.5960   56.1340 C.3    84  GLN84       0.0381
     13  CG         4.2930    3.0420   56.0210 C.3    84  GLN84       0.0905
     14  CD         3.3750    3.6270   57.0660 C.2    84  GLN84       0.2608
     15  OE1        3.5000    4.7890   57.4820 O.2    84  GLN84      -0.2717
     16  NE2        2.4270    2.8240   57.5180 N.am   84  GLN84      -0.0878
     17  N          6.9850    3.8590   53.1810 N.am   85  VAL85      -0.1980
     18  CA         6.6520    3.8920   51.7570 C.3    85  VAL85       0.1595
     19  C          7.8800    4.0440   50.8270 C.2    85  VAL85       0.2287
     20  O          8.2160    3.0750   50.1470 O.2    85  VAL85      -0.2864
     21  CB         5.5650    4.9740   51.4270 C.3    85  VAL85       0.0276
     22  CG1        5.0740    4.8540   49.9850 C.3    85  VAL85       0.0022
     23  CG2        4.3780    4.9000   52.3880 C.3    85  VAL85       0.0022
     24  N          9.6780    1.4270   48.1660 N.3    89  ILE89      -0.1245
     25  CA         9.6280    1.6240   46.7090 C.3    89  ILE89       0.1561
     26  C         11.0460    1.4810   46.1430 C.2    89  ILE89       0.2260
     27  O         11.2230    0.8020   45.1230 O.2    89  ILE89      -0.2867
     28  CB         8.9520    2.9530   46.2630 C.3    89  ILE89       0.0252
     29  CG1        7.4820    3.0110   46.7230 C.3    89  ILE89       0.0019
     30  CG2        9.0540    3.1500   44.7150 C.3    89  ILE89       0.0019
     31  CD1        6.8180    4.3690   46.5560 C.3    89  ILE89       0.0001
     32  N          5.7940   -5.8460   43.6890 N.3   134  PHE134     -0.1241
     33  CA         4.7300   -5.0660   44.3100 C.3   134  PHE134      0.1605
     34  C          4.0040   -5.9150   45.3750 C.2   134  PHE134      0.2264
     35  O          3.6730   -5.4050   46.4430 O.2   134  PHE134     -0.2867
     36  CB         3.7610   -4.5970   43.2120 C.3   134  PHE134      0.0534
     37  CG         2.5640   -3.8220   43.6980 C.ar  134  PHE134     -0.0203
     38  CD1        2.6920   -2.5030   44.1100 C.ar  134  PHE134     -0.0042
     39  CD2        1.3070   -4.4110   43.7400 C.ar  134  PHE134     -0.0042
     40  CE1        1.5870   -1.7890   44.5670 C.ar  134  PHE134     -0.0003
     41  CE2        0.2020   -3.6950   44.1910 C.ar  134  PHE134     -0.0003
     42  CZ         0.3500   -2.3890   44.6040 C.ar  134  PHE134     -0.0000
     43  N          4.0890   -4.6420   49.3240 N.3   138  LEU138     -0.1245
     44  CA         2.8520   -4.1870   49.9600 C.3   138  LEU138      0.1561
     45  C          2.7330   -4.5500   51.4670 C.2   138  LEU138      0.2260
     46  O          2.4990   -3.6140   52.2430 O.2   138  LEU138     -0.2867
     47  CB         1.6270   -4.6750   49.1780 C.3   138  LEU138      0.0270
     48  CG         0.5780   -3.6240   48.7970 C.3   138  LEU138      0.0019
     49  CD1        1.2070   -2.3470   48.2320 C.3   138  LEU138      0.0001
     50  CD2       -0.3990   -4.1920   47.7900 C.3   138  LEU138      0.0001
     51  N          4.8210   -2.1990   53.7090 N.3   141  MET141     -0.1230
     52  CA         4.2410   -0.8570   53.8350 C.3   141  MET141      0.1702
     53  C          3.1440   -0.8340   54.9030 C.2   141  MET141      0.2592
     54  O          3.0770    0.0910   55.7110 O.2   141  MET141     -0.2718
     55  CB         3.6580   -0.3800   52.4850 C.3   141  MET141      0.0401
     56  CG         4.6770   -0.3020   51.3500 C.3   141  MET141      0.0596
     57  SD         4.0260    0.5210   49.8700 S.3   141  MET141     -0.1393
     58  CE         5.4720    0.5820   48.8700 C.3   141  MET141      0.0692
     59  N          2.2990   -1.8690   54.9100 N.am  142  ILE142     -0.1980
     60  CA         1.1470   -2.0150   55.7960 C.3   142  ILE142      0.1595
     61  C          1.5790   -2.4190   57.2250 C.2   142  ILE142      0.2287
     62  O          1.0000   -1.9250   58.1930 O.2   142  ILE142     -0.2864
     63  CB         0.1610   -3.0330   55.1390 C.3   142  ILE142      0.0276
     64  CG1       -0.3520   -2.4670   53.7980 C.3   142  ILE142      0.0022
     65  CG2       -1.0150   -3.4010   56.0440 C.3   142  ILE142      0.0022
     66  CD1       -0.7360   -3.4520   52.7860 C.3   142  ILE142      0.0001
     67  N          4.3130   -1.6310   58.8650 N.3   144  THR144     -0.1203
     68  CA         5.1500   -0.5920   59.4870 C.3   144  THR144      0.1994
     69  C          4.1480    0.3870   60.1300 C.2   144  THR144      0.2618
     70  O          4.0480    1.5480   59.7220 O.2   144  THR144     -0.2717
     71  CB         6.0830    0.0470   58.4320 C.3   144  THR144      0.1784
     72  OG1        6.6740   -0.9790   57.6470 O.3   144  THR144     -0.2211
     73  CG2        7.1820    0.8990   59.0490 C.3   144  THR144      0.0376
     74  N          3.3430   -0.1230   61.0820 N.am  145  ASN145     -0.1960
     75  CA         2.2280    0.6040   61.6970 C.3   145  ASN145      0.1819
     76  C          2.5090    1.1750   63.0990 C.2   145  ASN145      0.2621
     77  O          1.6800    1.9410   63.6100 O.2   145  ASN145     -0.2715
     78  CB         0.9850   -0.3060   61.7620 C.3   145  ASN145      0.1195
     79  CG         1.2170   -1.7040   62.3080 C.2   145  ASN145      0.2630
     80  OD1        2.1630   -1.9750   63.0560 O.2   145  ASN145     -0.2716
     81  ND2        0.3470   -2.6310   61.9460 N.am  145  ASN145     -0.0877
     82  N          3.6420    0.8130   63.7230 N.am  146  ARG146     -0.1963
     83  CA         3.9650    1.3060   65.0660 C.3   146  ARG146      0.1729
     84  C          4.5580    2.7180   65.0140 C.2   146  ARG146      0.2616
     85  O          5.2400    3.0750   64.0580 O.2   146  ARG146     -0.2715
     86  CB         4.9240    0.3490   65.8120 C.3   146  ARG146      0.0348
     87  CG         4.5200   -1.1340   65.7910 C.3   146  ARG146      0.0492
     88  CD         3.3340   -1.4520   66.6860 C.3   146  ARG146      0.2205
     89  NE         2.8020   -2.8020   66.4770 N.pl3 146  ARG146     -0.0865
     90  CZ         3.2220   -3.8890   67.1230 C.cat 146  ARG146      0.5346
     91  NH1        4.2220   -3.8090   67.9960 N.pl3 146  ARG146      0.1354
     92  NH2        2.6650   -5.0690   66.8790 N.pl3 146  ARG146      0.1354
     93  N          4.2640    3.5220   66.0380 N.am  147  GLN147     -0.1977
     94  CA         4.7740    4.8840   66.2130 C.3   147  GLN147      0.1601
     95  C          6.1430    4.8340   66.9220 C.2   147  GLN147      0.2287
     96  O          6.3540    3.9220   67.7320 O.2   147  GLN147     -0.2864
     97  CB         3.7880    5.7180   67.0480 C.3   147  GLN147      0.0394
     98  CG         2.4110    5.9460   66.4210 C.3   147  GLN147      0.0908
     99  CD         1.3890    6.4940   67.4080 C.2   147  GLN147      0.2608
    100  OE1        1.7140    7.0360   68.4790 O.2   147  GLN147     -0.2717
    101  NE2        0.1140    6.3810   67.0550 N.am  147  GLN147     -0.0878
@<TRIPOS>BOND
     1    36    37    1
     2    36    33    1
     3    32    33    1
     4    37    39   ar
     5    37    38   ar
     6    39    41   ar
     7    38    40   ar
     8    41    42   ar
     9    33    34    1
    10    40    42   ar
    11    30    28    1
    12    27    26    2
    13    34    35    2
    14    26    25    1
    15    28    25    1
    16    28    29    1
    17    31    29    1
    18    25    24    1
    19    50    48    1
    20    49    48    1
    21    48    47    1
    22    58    57    1
    23    47    44    1
    24    43    44    1
    25    57    56    1
    26    44    45    1
    27    22    21    1
    28    20    19    2
    29    19    18    1
    30    56    55    1
    31    21    18    1
    32    21    23    1
    33    45    46    2
    34    18    17    1
    35    55    52    1
    36    66    64    1
    37    17    10   am
    38    11    10    2
    39    51    52    1
    40    64    63    1
    41    52    53    1
    42    10     9    1
    43    53    59   am
    44    53    54    2
    45    59    60    1
    46    63    60    1
    47    63    65    1
    48     9     8    1
    49     9    12    1
    50    60    61    1
    51    13    12    1
    52    13    14    1
    53    14    15    2
    54    14    16   am
    55    61    62    2
    56     4     3    2
    57    72    71    1
    58     3     2    1
    59    71    73    1
    60    71    68    1
    61    67    68    1
    62     1     2    1
    63     2     5    1
    64    68    69    1
    65    70    69    2
    66    69    74   am
    67     5     7    1
    68     5     6    1
    69    74    75    1
    70    75    78    1
    71    75    76    1
    72    78    79    1
    73    81    79   am
    74    79    80    2
    75    76    77    2
    76    76    82   am
    77    82    83    1
    78    85    84    2
    79    84    83    1
    80    84    93   am
    81    83    86    1
    82    87    86    1
    83    87    88    1
    84    93    94    1
    85    94    95    1
    86    94    97    1
    87    98    97    1
    88    98    99    1
    89    89    88    1
    90    89    90    2
    91    92    90    1
    92    95    96    2
    93   101    99   am
    94    90    91    1
    95    99   100    2
