@<TRIPOS>MOLECULE
tmp/4pxzA01.pdb
 113 108 0 0 0
SMALL
GASTEIGER

@<TRIPOS>ATOM
      1  N         12.0140    6.4850   24.6910 N.3    37  PHE37      -0.1241
      2  CA        10.5570    6.3580   24.5520 C.3    37  PHE37       0.1605
      3  C         10.0400    6.9490   23.2260 C.2    37  PHE37       0.2264
      4  O          8.8500    6.8160   22.9210 O.2    37  PHE37      -0.2867
      5  CB         9.8050    6.9310   25.7580 C.3    37  PHE37       0.0534
      6  CG         9.5980    5.8860   26.8280 C.ar   37  PHE37      -0.0203
      7  CD1        8.5290    4.9980   26.7600 C.ar   37  PHE37      -0.0042
      8  CD2       10.4950    5.7580   27.8810 C.ar   37  PHE37      -0.0042
      9  CE1        8.3520    4.0150   27.7380 C.ar   37  PHE37      -0.0003
     10  CE2       10.3100    4.7820   28.8640 C.ar   37  PHE37      -0.0003
     11  CZ         9.2440    3.9120   28.7820 C.ar   37  PHE37      -0.0000
     12  N          9.1330   -0.1440   20.1270 N.3    41  SER41      -0.1217
     13  CA         9.4220   -1.4010   20.8100 C.3    41  SER41       0.1889
     14  C          9.2630   -2.5720   19.8460 C.2    41  SER41       0.2288
     15  O          8.2620   -3.2990   19.8880 O.2    41  SER41      -0.2866
     16  CB         8.5150   -1.5700   22.0200 C.3    41  SER41       0.2089
     17  OG         8.7750   -0.5910   23.0100 O.3    41  SER41      -0.2183
     18  N         12.1160   -3.3570   25.0380 N.3    47  ILE47      -0.1245
     19  CA        11.0070   -3.4690   26.0030 C.3    47  ILE47       0.1561
     20  C         11.6170   -3.5440   27.4120 C.2    47  ILE47       0.2260
     21  O         11.2050   -2.7810   28.2870 O.2    47  ILE47      -0.2867
     22  CB        10.0390   -4.6600   25.6930 C.3    47  ILE47       0.0252
     23  CG1        9.2320   -4.3950   24.3910 C.3    47  ILE47       0.0019
     24  CG2        9.1050   -4.9730   26.8840 C.3    47  ILE47       0.0019
     25  CD1        8.3280   -5.5560   23.8780 C.3    47  ILE47       0.0001
     26  N         13.2790   -0.2050   28.3290 N.3    50  LYS50      -0.1231
     27  CA        12.2690    0.8100   28.6620 C.3    50  LYS50       0.1693
     28  C         11.7550    0.6140   30.0960 C.2    50  LYS50       0.2592
     29  O         11.4600    1.5960   30.7720 O.2    50  LYS50      -0.2718
     30  CB        11.0970    0.7780   27.6660 C.3    50  LYS50       0.0285
     31  CG        11.3550    1.5280   26.3690 C.3    50  LYS50       0.0035
     32  CD        10.1830    1.3470   25.4170 C.3    50  LYS50       0.0206
     33  CE        10.3070    2.1620   24.1480 C.3    50  LYS50       0.1093
     34  NZ         9.0220    2.2100   23.3950 N.3    50  LYS50      -0.1314
     35  N         11.6420   -0.6460   30.5530 N.am   51  ASN51      -0.1974
     36  CA        11.2080   -0.9660   31.9180 C.3    51  ASN51       0.1688
     37  C         12.2850   -0.5500   32.9190 C.2    51  ASN51       0.2292
     38  O         11.9640   -0.0440   33.9940 O.2    51  ASN51      -0.2864
     39  CB        10.8980   -2.4540   32.0570 C.3    51  ASN51       0.1181
     40  CG         9.5010   -2.8280   31.6370 C.2    51  ASN51       0.2629
     41  OD1        8.5980   -2.9910   32.4710 O.2    51  ASN51      -0.2716
     42  ND2        9.3030   -3.0090   30.3340 N.am   51  ASN51      -0.0877
     43  N         12.3910    3.4250   33.5870 N.3    54  ILE54      -0.1245
     44  CA        11.3660    3.9620   34.4820 C.3    54  ILE54       0.1561
     45  C         11.5860    3.4380   35.9310 C.2    54  ILE54       0.2260
     46  O         11.2840    4.1700   36.8780 O.2    54  ILE54      -0.2867
     47  CB         9.8940    3.8000   33.9750 C.3    54  ILE54       0.0252
     48  CG1        9.1430    2.5950   34.5440 C.3    54  ILE54       0.0019
     49  CG2        9.7180    3.9740   32.4630 C.3    54  ILE54       0.0019
     50  CD1        8.1130    3.0230   35.5780 C.3    54  ILE54       0.0001
     51  N         11.9140   -2.3830   46.0750 N.3    92  PHE92      -0.1241
     52  CA        11.1580   -3.1790   45.1070 C.3    92  PHE92       0.1605
     53  C         11.5140   -2.7790   43.6450 C.2    92  PHE92       0.2264
     54  O         11.5470   -3.6660   42.7910 O.2    92  PHE92      -0.2867
     55  CB         9.6360   -3.1970   45.4000 C.3    92  PHE92       0.0534
     56  CG         8.7020   -2.1960   44.7580 C.ar   92  PHE92      -0.0203
     57  CD1        8.4090   -2.2650   43.3970 C.ar   92  PHE92      -0.0042
     58  CD2        7.9850   -1.2950   45.5370 C.ar   92  PHE92      -0.0042
     59  CE1        7.5210   -1.3640   42.8070 C.ar   92  PHE92      -0.0003
     60  CE2        7.0730   -0.4050   44.9500 C.ar   92  PHE92      -0.0003
     61  CZ         6.8510   -0.4450   43.5890 C.ar   92  PHE92      -0.0000
     62  N          6.3450   -8.6360   27.0900 N.3   123  LYS123     -0.1245
     63  CA         5.4470   -7.6780   27.7420 C.3   123  LYS123      0.1561
     64  C          4.7860   -8.2930   28.9700 C.2   123  LYS123      0.2260
     65  O          4.7550   -7.6310   30.0020 O.2   123  LYS123     -0.2867
     66  CB         4.3700   -7.1560   26.7740 C.3   123  LYS123      0.0271
     67  CG         4.8330   -5.9950   25.9130 C.3   123  LYS123      0.0035
     68  CD         3.6960   -5.4470   25.0680 C.3   123  LYS123      0.0206
     69  CE         4.2050   -4.6730   23.8820 C.3   123  LYS123      0.1093
     70  NZ         3.1680   -3.7560   23.3450 N.3   123  LYS123     -0.1314
     71  N          7.3830   -8.7080   31.6260 N.3   126  SER126     -0.1202
     72  CA         7.6900   -7.4120   32.2170 C.3   126  SER126      0.2020
     73  C          6.6380   -7.0330   33.2730 C.2   126  SER126      0.2618
     74  O          7.0140   -6.5520   34.3350 O.2   126  SER126     -0.2717
     75  CB         7.7830   -6.3400   31.1360 C.3   126  SER126      0.2103
     76  OG         8.8930   -6.5900   30.2890 O.3   126  SER126     -0.2182
     77  N          5.3370   -7.2970   33.0000 N.am  127  VAL127     -0.1979
     78  CA         4.2200   -7.0150   33.9160 C.3   127  VAL127      0.1595
     79  C          4.3430   -7.9040   35.1640 C.2   127  VAL127      0.2287
     80  O          4.1800   -7.4010   36.2800 O.2   127  VAL127     -0.2864
     81  CB         2.8290   -7.1870   33.2350 C.3   127  VAL127      0.0276
     82  CG1        1.6910   -6.8150   34.1810 C.3   127  VAL127      0.0022
     83  CG2        2.7330   -6.3630   31.9640 C.3   127  VAL127      0.0022
     84  N          7.0910   -6.6770   37.6790 N.3   130  TRP130     -0.1227
     85  CA         6.5960   -5.5010   38.3990 C.3   130  TRP130      0.1737
     86  C          5.5470   -5.8840   39.4660 C.2   130  TRP130      0.2595
     87  O          5.6950   -5.4940   40.6260 O.2   130  TRP130     -0.2718
     88  CB         6.0080   -4.4900   37.4050 C.3   130  TRP130      0.0564
     89  CG         7.0390   -3.6430   36.7230 C.ar  130  TRP130      0.0003
     90  CD1        7.7030   -3.9310   35.5730 C.ar  130  TRP130      0.0946
     91  CD2        7.5190   -2.3620   37.1540 C.ar  130  TRP130      0.0152
     92  NE1        8.5650   -2.9090   35.2510 N.ar  130  TRP130     -0.2442
     93  CE2        8.4680   -1.9280   36.2010 C.ar  130  TRP130      0.0810
     94  CE3        7.2120   -1.5160   38.2340 C.ar  130  TRP130      0.0012
     95  CZ2        9.1360   -0.7010   36.3120 C.ar  130  TRP130      0.0191
     96  CZ3        7.8690   -0.3020   38.3420 C.ar  130  TRP130      0.0001
     97  CH2        8.8240    0.0930   37.3950 C.ar  130  TRP130      0.0015
     98  N          4.5160   -6.6720   39.0710 N.am  131  ALA131     -0.1980
     99  CA         3.4250   -7.1440   39.9290 C.3   131  ALA131      0.1597
    100  C          3.9440   -8.0020   41.0750 C.2   131  ALA131      0.2287
    101  O          3.4760   -7.8360   42.2010 O.2   131  ALA131     -0.2864
    102  CB         2.4110   -7.9300   39.1140 C.3   131  ALA131      0.0319
    103  N          5.7940   -5.8460   43.6890 N.3   134  PHE134     -0.1241
    104  CA         4.7300   -5.0660   44.3100 C.3   134  PHE134      0.1605
    105  C          4.0040   -5.9150   45.3750 C.2   134  PHE134      0.2264
    106  O          3.6730   -5.4050   46.4430 O.2   134  PHE134     -0.2867
    107  CB         3.7610   -4.5970   43.2120 C.3   134  PHE134      0.0534
    108  CG         2.5640   -3.8220   43.6980 C.ar  134  PHE134     -0.0203
    109  CD1        2.6920   -2.5030   44.1100 C.ar  134  PHE134     -0.0042
    110  CD2        1.3070   -4.4110   43.7400 C.ar  134  PHE134     -0.0042
    111  CE1        1.5870   -1.7890   44.5670 C.ar  134  PHE134     -0.0003
    112  CE2        0.2020   -3.6950   44.1910 C.ar  134  PHE134     -0.0003
    113  CZ         0.3500   -2.3890   44.6040 C.ar  134  PHE134     -0.0000
@<TRIPOS>BOND
     1    14    15    2
     2    14    13    1
     3    12    13    1
     4    13    16    1
     5    16    17    1
     6     4     3    2
     7     3     2    1
     8    70    69    1
     9    34    33    1
    10    25    23    1
    11    69    68    1
    12    33    32    1
    13    23    22    1
    14     2     1    1
    15     2     5    1
    16    18    19    1
    17    68    67    1
    18    32    31    1
    19    22    19    1
    20    22    24    1
    21     5     6    1
    22    67    66    1
    23    19    20    1
    24    31    30    1
    25     7     6   ar
    26     7     9   ar
    27    66    63    1
    28     6     8   ar
    29    62    63    1
    30    20    21    2
    31    30    27    1
    32     9    11   ar
    33    63    64    1
    34     8    10   ar
    35    26    27    1
    36    27    28    1
    37    11    10   ar
    38    64    65    2
    39    28    35   am
    40    28    29    2
    41    76    75    1
    42    42    40   am
    43    35    36    1
    44    75    72    1
    45    71    72    1
    46    40    39    1
    47    40    41    2
    48    36    39    1
    49    36    37    1
    50    83    81    1
    51    72    73    1
    52    49    47    1
    53    37    38    2
    54    77    73   am
    55    77    78    1
    56    81    78    1
    57    81    82    1
    58    73    74    2
    59    43    44    1
    60    78    79    1
    61    47    44    1
    62    47    48    1
    63    44    45    1
    64    48    50    1
    65    79    80    2
    66    92    90   ar
    67    92    93   ar
    68    90    89   ar
    69    45    46    2
    70    93    95   ar
    71    93    91   ar
    72    95    97   ar
    73    89    91   ar
    74    89    88    1
    75    91    94   ar
    76    97    96   ar
    77    88    85    1
    78    84    85    1
    79    94    96   ar
    80    85    86    1
    81    98    86   am
    82    98    99    1
    83   102    99    1
    84    86    87    2
    85    99   100    1
    86   100   101    2
    87    54    53    2
    88    59    57   ar
    89    59    61   ar
    90   107   108    1
    91   107   104    1
    92    57    56   ar
    93    61    60   ar
    94    53    52    1
    95   103   104    1
    96   108   110   ar
    97   108   109   ar
    98   110   112   ar
    99   109   111   ar
   100   112   113   ar
   101   104   105    1
   102   111   113   ar
   103    56    55    1
   104    56    58   ar
   105    60    58   ar
   106    52    55    1
   107    52    51    1
   108   105   106    2
