@<TRIPOS>MOLECULE
tmp/4py1A00.pdb
 160 150 0 0 0
SMALL
GASTEIGER

@<TRIPOS>ATOM
      1  N          2.0290  -12.6270   16.0820 N.3    15  LEU15      -0.1231
      2  CA         3.0630  -11.9600   16.8750 C.3    15  LEU15       0.1693
      3  C          2.7680  -10.4820   17.1500 C.2    15  LEU15       0.2593
      4  O          3.1510   -9.9870   18.2020 O.2    15  LEU15      -0.2718
      5  CB         4.4530  -12.1420   16.2480 C.3    15  LEU15       0.0284
      6  CG         5.0340  -13.5760   16.2760 C.3    15  LEU15       0.0019
      7  CD1        6.3080  -13.6690   15.4570 C.3    15  LEU15       0.0001
      8  CD2        5.2590  -14.0620   17.7090 C.3    15  LEU15       0.0001
      9  N          2.1010   -9.8220   16.1990 N.am   16  GLY16      -0.1942
     10  CA         1.7200   -8.4160   16.2240 C.3    16  GLY16       0.2014
     11  C          0.8970   -8.0540   15.0050 C.2    16  GLY16       0.2639
     12  O          0.9520   -8.7600   13.9920 O.2    16  GLY16      -0.2714
     13  N          0.0860   -6.9780   15.1010 N.am   17  GLU17      -0.1963
     14  CA        -0.7590   -6.5150   13.9860 C.3    17  GLU17       0.1733
     15  C         -1.2640   -5.1080   14.1500 C.2    17  GLU17       0.2616
     16  O         -1.7710   -4.7480   15.2120 O.2    17  GLU17      -0.2715
     17  CB        -1.9330   -7.4660   13.6470 C.3    17  GLU17       0.0429
     18  CG        -2.9100   -7.8240   14.7560 C.3    17  GLU17       0.1163
     19  CD        -3.9640   -8.8270   14.3180 C.2    17  GLU17       0.3649
     20  OE1       -4.6570   -8.5650   13.3060 O.co2  17  GLU17      -0.2457
     21  OE2       -4.0840   -9.8850   14.9780 O.co2  17  GLU17      -0.2457
     22  N         -1.1460   -4.3410   13.0690 N.am   18  GLY18      -0.1955
     23  CA        -1.5920   -2.9560   12.9880 C.3    18  GLY18       0.1869
     24  C         -2.7560   -2.7550   12.0360 C.2    18  GLY18       0.2309
     25  O         -3.5330   -3.6860   11.7720 O.2    18  GLY18      -0.2863
     26  N         -0.5310   -3.8110    8.3880 N.3    21  GLY21      -0.1210
     27  CA         0.4620   -4.8660    8.5560 C.3    21  GLY21       0.1956
     28  C          0.1350   -5.8570    9.6550 C.2    21  GLY21       0.2612
     29  O         -0.5700   -5.5350   10.6130 O.2    21  GLY21      -0.2717
     30  N          0.6620   -7.0720    9.5240 N.am   22  LYS22      -0.1965
     31  CA         0.4600   -8.1690   10.4770 C.3    22  LYS22       0.1728
     32  C          1.6840   -9.0970   10.4240 C.2    22  LYS22       0.2616
     33  O          2.1390   -9.4330    9.3320 O.2    22  LYS22      -0.2715
     34  CB        -0.8660   -8.9190   10.1500 C.3    22  LYS22       0.0311
     35  CG        -0.9340  -10.3980   10.5450 C.3    22  LYS22       0.0038
     36  CD        -1.7750  -10.6500   11.7930 C.3    22  LYS22       0.0206
     37  CE        -3.1800  -11.1060   11.4760 C.3    22  LYS22       0.1093
     38  NZ        -3.2060  -12.4810   10.9020 N.3    22  LYS22      -0.1314
     39  N          2.2260   -9.4650   11.6010 N.am   23  VAL23      -0.1977
     40  CA         3.3440  -10.3900   11.7480 C.3    23  VAL23       0.1596
     41  C          2.8720  -11.6130   12.5270 C.2    23  VAL23       0.2287
     42  O          2.2870  -11.4750   13.5970 O.2    23  VAL23      -0.2864
     43  CB         4.6450   -9.7500   12.3370 C.3    23  VAL23       0.0276
     44  CG1        5.6620  -10.8060   12.7610 C.3    23  VAL23       0.0022
     45  CG2        5.2890   -8.8700   11.3150 C.3    23  VAL23       0.0022
     46  N          9.3020  -15.3920   11.2050 N.3    40  ALA40      -0.1245
     47  CA         8.3710  -14.3060   11.4220 C.3    40  ALA40       0.1562
     48  C          7.9900  -13.8080   10.0450 C.2    40  ALA40       0.2260
     49  O          8.8620  -13.4200    9.2560 O.2    40  ALA40      -0.2867
     50  CB         9.0320  -13.2040   12.2320 C.3    40  ALA40       0.0290
     51  N          5.5690  -11.2860    7.7650 N.3    42  LYS42      -0.1245
     52  CA         4.7940  -10.0450    7.6900 C.3    42  LYS42       0.1561
     53  C          3.9620  -10.0490    6.4130 C.2    42  LYS42       0.2260
     54  O          4.4840  -10.2980    5.3280 O.2    42  LYS42      -0.2867
     55  CB         5.6910   -8.7920    7.7670 C.3    42  LYS42       0.0271
     56  CG         4.9110   -7.4990    7.9870 C.3    42  LYS42       0.0035
     57  CD         5.7990   -6.3240    8.3420 C.3    42  LYS42       0.0206
     58  CE         4.9470   -5.0780    8.3910 C.3    42  LYS42       0.1093
     59  NZ         5.7380   -3.8420    8.5750 N.3    42  LYS42      -0.1314
     60  N         16.7830   -6.5970   11.9440 N.3    72  ILE72      -0.1245
     61  CA        16.1200   -7.8810   11.6570 C.3    72  ILE72       0.1561
     62  C         16.6450   -8.4840   10.3570 C.2    72  ILE72       0.2260
     63  O         16.9130   -7.7490    9.4110 O.2    72  ILE72      -0.2867
     64  CB        14.5850   -7.7040   11.5860 C.3    72  ILE72       0.0252
     65  CG1       14.2160   -6.4460   10.7630 C.3    72  ILE72       0.0019
     66  CG2       14.0390   -7.6460   13.0050 C.3    72  ILE72       0.0019
     67  CD1       12.9080   -6.3990   10.1790 C.3    72  ILE72       0.0001
     68  N         11.0920  -13.1710    7.7000 N.3    90  MET90      -0.1230
     69  CA        12.2310  -12.7080    8.4940 C.3    90  MET90       0.1702
     70  C         12.5680  -13.7620    9.5340 C.2    90  MET90       0.2592
     71  O         11.6990  -14.5500    9.8930 O.2    90  MET90      -0.2718
     72  CB        11.8830  -11.3800    9.2320 C.3    90  MET90       0.0401
     73  CG        11.6280  -10.1960    8.3000 C.3    90  MET90       0.0596
     74  SD        10.5930   -8.8910    9.0260 S.3    90  MET90      -0.1393
     75  CE         9.0270   -9.7000    9.0610 C.3    90  MET90       0.0692
     76  N         13.7870  -13.7160   10.0900 N.am   91  GLU91      -0.1966
     77  CA        14.1750  -14.6000   11.1890 C.3    91  GLU91       0.1733
     78  C         13.3080  -14.2460   12.4190 C.2    91  GLU91       0.2616
     79  O         12.8740  -13.0970   12.5760 O.2    91  GLU91      -0.2715
     80  CB        15.6780  -14.4820   11.5260 C.3    91  GLU91       0.0429
     81  CG        16.1030  -13.0940   11.9920 C.3    91  GLU91       0.1163
     82  CD        17.2140  -12.9180   13.0140 C.2    91  GLU91       0.3649
     83  OE1       17.3780  -11.7710   13.4880 O.co2  91  GLU91      -0.2457
     84  OE2       17.9280  -13.8980   13.3300 O.co2  91  GLU91      -0.2457
     85  N         13.0220  -15.2400   13.2370 N.am   92  TYR92      -0.1960
     86  CA        12.2390  -15.0930   14.4440 C.3    92  TYR92       0.1771
     87  C         13.1640  -14.7060   15.6110 C.2    92  TYR92       0.2619
     88  O         14.1560  -15.3930   15.8680 O.2    92  TYR92      -0.2715
     89  CB        11.4800  -16.4020   14.7300 C.3    92  TYR92       0.0574
     90  CG        10.7430  -16.4330   16.0510 C.ar   92  TYR92      -0.0198
     91  CD1        9.8130  -15.4460   16.3800 C.ar   92  TYR92      -0.0009
     92  CD2       10.9170  -17.4910   16.9450 C.ar   92  TYR92      -0.0009
     93  CE1        9.1060  -15.4890   17.5820 C.ar   92  TYR92       0.0417
     94  CE2       10.2170  -17.5410   18.1510 C.ar   92  TYR92       0.0417
     95  CZ         9.3100  -16.5410   18.4620 C.ar   92  TYR92       0.1957
     96  OH         8.6310  -16.5870   19.6590 O.3    92  TYR92      -0.2866
     97  N         12.8480  -13.5880   16.2880 N.am   93  VAL93      -0.1977
     98  CA        13.5920  -13.0780   17.4550 C.3    93  VAL93       0.1596
     99  C         12.7560  -13.5740   18.6410 C.2    93  VAL93       0.2287
    100  O         11.6270  -13.1210   18.8080 O.2    93  VAL93      -0.2864
    101  CB        13.7760  -11.5510   17.3790 C.3    93  VAL93       0.0276
    102  CG1       14.8060  -11.0920   18.3880 C.3    93  VAL93       0.0022
    103  CG2       14.2070  -11.1260   15.9710 C.3    93  VAL93       0.0022
    104  N         11.1080  -11.5490   21.7530 N.3    96  GLY96      -0.1210
    105  CA        10.1700  -10.5000   21.3590 C.3    96  GLY96       0.1956
    106  C         10.6220   -9.0580   21.5050 C.2    96  GLY96       0.2612
    107  O         11.8160   -8.7540   21.5150 O.2    96  GLY96      -0.2717
    108  N          9.6610   -8.1500   21.6090 N.am   97  SER97      -0.1952
    109  CA         9.9730   -6.7260   21.6950 C.3    97  SER97       0.1924
    110  C         10.3340   -6.3020   23.0960 C.2    97  SER97       0.2314
    111  O          9.8710   -6.9000   24.0560 O.2    97  SER97      -0.2863
    112  CB         8.8300   -5.8770   21.1530 C.3    97  SER97       0.2116
    113  OG         7.8220   -5.7550   22.1370 O.3    97  SER97      -0.2180
    114  N          7.2770   -5.6810   25.2990 N.3   100  ASP100     -0.1239
    115  CA         6.6810   -6.7970   26.0260 C.3   100  ASP100      0.1674
    116  C          7.6360   -7.4050   27.0420 C.2   100  ASP100      0.2266
    117  O          7.2100   -7.8380   28.1070 O.2   100  ASP100     -0.2867
    118  CB         6.1250   -7.8470   25.0470 C.3   100  ASP100      0.1410
    119  CG         5.1390   -7.2580   24.0440 C.2   100  ASP100      0.3668
    120  OD1        5.1100   -7.7360   22.8940 O.co2 100  ASP100     -0.2456
    121  OD2        4.4290   -6.2800   24.4020 O.co2 100  ASP100     -0.2456
    122  N          8.5860   -0.6980   21.0350 N.3   139  ARG139     -0.1231
    123  CA         7.7850   -1.7750   20.4320 C.3   139  ARG139      0.1694
    124  C          8.4740   -2.3640   19.1970 C.2   139  ARG139      0.2592
    125  O          8.1600   -3.4840   18.8060 O.2   139  ARG139     -0.2718
    126  CB         6.3390   -1.3080   20.0910 C.3   139  ARG139      0.0321
    127  CG         6.2380   -0.2550   18.9990 C.3   139  ARG139      0.0489
    128  CD         4.8090    0.2350   18.7240 C.3   139  ARG139      0.2205
    129  NE         4.8700    1.5380   18.0530 N.pl3 139  ARG139     -0.0865
    130  CZ         4.9950    2.7060   18.6900 C.cat 139  ARG139      0.5346
    131  NH1        5.1280    3.8290   18.0040 N.pl3 139  ARG139      0.1354
    132  NH2        5.0160    2.7510   20.0210 N.pl3 139  ARG139      0.1354
    133  N          9.3920   -1.6030   18.5680 N.am  140  ASN140     -0.1974
    134  CA        10.0300   -2.0400   17.3340 C.3   140  ASN140      0.1688
    135  C         11.4470   -2.5170   17.5340 C.2   140  ASN140      0.2292
    136  O         12.1600   -2.7330   16.5510 O.2   140  ASN140     -0.2864
    137  CB         9.9230   -0.9470   16.2580 C.3   140  ASN140      0.1181
    138  CG         8.5070   -0.8230   15.7350 C.2   140  ASN140      0.2629
    139  OD1        7.7610   -1.7990   15.6560 O.2   140  ASN140     -0.2716
    140  ND2        8.1040    0.3700   15.3490 N.am  140  ASN140     -0.0877
    141  N         13.5960   -5.5350   18.9840 N.3   142  LEU142     -0.1245
    142  CA        13.5360   -6.9680   19.2560 C.3   142  LEU142      0.1561
    143  C         14.7580   -7.4810   20.0140 C.2   142  LEU142      0.2260
    144  O         15.8740   -7.0270   19.7750 O.2   142  LEU142     -0.2867
    145  CB        13.2950   -7.7140   17.9420 C.3   142  LEU142      0.0270
    146  CG        11.9180   -7.4440   17.3030 C.3   142  LEU142      0.0019
    147  CD1       11.9230   -7.8070   15.8510 C.3   142  LEU142      0.0001
    148  CD2       10.8090   -8.2130   18.0090 C.3   142  LEU142      0.0001
    149  N         13.3640   -3.8130   14.3150 N.3   152  GLY152     -0.1210
    150  CA        12.4450   -4.7350   13.6730 C.3   152  GLY152      0.1956
    151  C         11.3070   -4.4280   12.7290 C.2   152  GLY152      0.2611
    152  O         10.8830   -5.3740   12.0750 O.2   152  GLY152     -0.2717
    153  N         10.7220   -3.2340   12.6800 N.am  153  ASP153     -0.1973
    154  CA         9.5960   -3.0200   11.7540 C.3   153  ASP153      0.1709
    155  C          9.9430   -1.8360   10.8680 C.2   153  ASP153      0.2293
    156  O         10.1160   -0.7370   11.3720 O.2   153  ASP153     -0.2864
    157  CB         8.2390   -2.7920   12.4930 C.3   153  ASP153      0.1436
    158  CG         7.0010   -2.4240   11.6510 C.2   153  ASP153      0.3671
    159  OD1        7.1250   -2.3200   10.4320 O.co2 153  ASP153     -0.2456
    160  OD2        5.9070   -2.2210   12.2400 O.co2 153  ASP153     -0.2456
@<TRIPOS>BOND
     1    54    53    2
     2    53    52    1
     3    52    51    1
     4    52    55    1
     5    68    69    1
     6    55    56    1
     7    56    57    1
     8    73    74    1
     9    73    72    1
    10    57    58    1
    11    26    27    1
    12    58    59    1
    13    69    72    1
    14    69    70    1
    15    27    28    1
    16    74    75    1
    17    49    48    2
    18    33    32    2
    19    63    62    2
    20    30    28   am
    21    30    31    1
    22    70    71    2
    23    70    76   am
    24    28    29    2
    25    48    47    1
    26    76    77    1
    27    34    31    1
    28    34    35    1
    29    67    65    1
    30    62    61    1
    31    32    31    1
    32    32    39   am
    33   159   158   ar
    34    35    36    1
    35    65    64    1
    36   155   156    2
    37   155   154    1
    38    38    37    1
    39    77    80    1
    40    77    78    1
    41    46    47    1
    42    45    43    1
    43    47    50    1
    44    37    36    1
    45    80    81    1
    46    64    61    1
    47    64    66    1
    48    39    40    1
    49   158   160   ar
    50   158   157    1
    51    61    60    1
    52    40    43    1
    53    40    41    1
    54   154   157    1
    55   154   153    1
    56    25    24    2
    57    81    82    1
    58    24    23    1
    59   152   151    2
    60    43    44    1
    61    78    79    2
    62    78    85   am
    63    41    42    2
    64   153   151   am
    65   151   150    1
    66    23    22    1
    67    82    84   ar
    68    82    83   ar
    69    22    15   am
    70    85    86    1
    71    20    19   ar
    72    17    14    1
    73    17    18    1
    74   150   149    1
    75    14    15    1
    76    14    13    1
    77    12    11    2
    78    15    16    2
    79    19    18    1
    80    19    21   ar
    81    86    89    1
    82    86    87    1
    83    89    90    1
    84    11    13   am
    85    11    10    1
    86   140   138   am
    87     7     6    1
    88    87    88    2
    89    87    97   am
    90   139   138    2
    91   138   137    1
    92   147   146    1
    93   103   101    1
    94    90    91   ar
    95    90    92   ar
    96     1     2    1
    97     9    10    1
    98     9     3   am
    99     5     6    1
   100     5     2    1
   101   137   134    1
   102     6     8    1
   103    97    98    1
   104    91    93   ar
   105   136   135    2
   106     2     3    1
   107    92    94   ar
   108     3     4    2
   109   146   145    1
   110   146   148    1
   111   134   135    1
   112   134   133    1
   113   101    98    1
   114   101   102    1
   115    98    99    1
   116    93    95   ar
   117   145   142    1
   118   131   130    1
   119   129   130    2
   120   129   128    1
   121    94    95   ar
   122    95    96    1
   123   133   124   am
   124    99   100    2
   125   130   132    1
   126   128   127    1
   127   125   124    2
   128   141   142    1
   129   127   126    1
   130   124   123    1
   131   142   143    1
   132   144   143    2
   133   126   123    1
   134   123   122    1
   135   112   109    1
   136   112   113    1
   137   105   106    1
   138   105   104    1
   139   106   107    2
   140   106   108   am
   141   108   109    1
   142   109   110    1
   143   120   119   ar
   144   110   111    2
   145   119   121   ar
   146   119   118    1
   147   118   115    1
   148   114   115    1
   149   115   116    1
   150   116   117    2
