@<TRIPOS>MOLECULE
tmp/4py2A00.pdb
 203 203 0 0 0
SMALL
GASTEIGER

@<TRIPOS>ATOM
      1  N         25.2200   15.0030   17.6850 N.3     9  ALA9       -0.1231
      2  CA        25.5150   13.8720   16.8330 C.3     9  ALA9        0.1694
      3  C         25.1650   12.6290   17.6320 C.2     9  ALA9        0.2591
      4  O         25.1640   12.6440   18.8720 O.2     9  ALA9       -0.2718
      5  CB        26.9820   13.8400   16.4600 C.3     9  ALA9        0.0304
      6  N         24.8720   11.5610   16.9140 N.am   10  ILE10      -0.1980
      7  CA        24.5770   10.2860   17.5390 C.3    10  ILE10       0.1595
      8  C         25.8640    9.4780   17.7470 C.2    10  ILE10       0.2287
      9  O         26.7560    9.4470   16.9020 O.2    10  ILE10      -0.2864
     10  CB        23.5150    9.4880   16.7610 C.3    10  ILE10       0.0276
     11  CG1       23.8690    9.3410   15.2910 C.3    10  ILE10       0.0022
     12  CG2       22.1760   10.1900   16.9100 C.3    10  ILE10       0.0022
     13  CD1       22.8840    8.4230   14.5660 C.3    10  ILE10       0.0001
     14  N         28.3740    6.1800   18.5620 N.3    12  TYR12      -0.1241
     15  CA        28.5640    4.8010   18.0920 C.3    12  TYR12       0.1605
     16  C         28.8060    3.8870   19.2750 C.2    12  TYR12       0.2264
     17  O         29.8480    3.9390   19.8730 O.2    12  TYR12      -0.2867
     18  CB        29.7280    4.7110   17.0860 C.3    12  TYR12       0.0534
     19  CG        29.6340    3.4870   16.1710 C.ar   12  TYR12      -0.0201
     20  CD1       28.5860    3.3510   15.2890 C.ar   12  TYR12      -0.0009
     21  CD2       30.6010    2.4640   16.1920 C.ar   12  TYR12      -0.0009
     22  CE1       28.4740    2.2400   14.4540 C.ar   12  TYR12       0.0417
     23  CE2       30.4960    1.3420   15.3570 C.ar   12  TYR12       0.0417
     24  CZ        29.4210    1.2190   14.4880 C.ar   12  TYR12       0.1957
     25  OH        29.2980    0.0980   13.6390 O.3    12  TYR12      -0.2866
     26  N         23.9790    5.5830   16.8180 N.3    49  ASP49      -0.1239
     27  CA        24.1950    5.0860   15.4660 C.3    49  ASP49       0.1674
     28  C         24.6200    3.6260   15.6580 C.2    49  ASP49       0.2266
     29  O         25.7240    3.3770   16.1280 O.2    49  ASP49      -0.2867
     30  CB        25.3040    5.9620   14.8360 C.3    49  ASP49       0.1410
     31  CG        25.9690    5.3620   13.5730 C.2    49  ASP49       0.3668
     32  OD1       25.4340    4.4530   12.8840 O.co2  49  ASP49      -0.2456
     33  OD2       27.0610    5.8770   13.2390 O.co2  49  ASP49      -0.2456
     34  N         24.1650    0.6270   13.3790 N.3    51  HIS51      -0.1226
     35  CA        24.4730   -0.2890   12.2820 C.3    51  HIS51       0.1752
     36  C         25.9880   -0.3620   11.9590 C.2    51  HIS51       0.2597
     37  O         26.7960    0.3410   12.5620 O.2    51  HIS51      -0.2718
     38  CB        23.6540    0.0920   11.0360 C.3    51  HIS51       0.0759
     39  CG        22.1770   -0.0420   11.2400 C.ar   51  HIS51       0.0818
     40  ND1       21.2870    0.9550   10.9360 N.ar   51  HIS51      -0.2268
     41  CD2       21.4380   -1.0560   11.7510 C.ar   51  HIS51       0.1154
     42  CE1       20.0600    0.5540   11.2120 C.ar   51  HIS51       0.1986
     43  NE2       20.1220   -0.6620   11.7120 N.ar   51  HIS51      -0.2212
     44  N         26.3410   -1.2260   11.0050 N.am   52  GLY52      -0.1942
     45  CA        27.6800   -1.2590   10.4140 C.3    52  GLY52       0.2014
     46  C         28.4560   -2.5240   10.7370 C.2    52  GLY52       0.2638
     47  O         28.0870   -3.3000   11.6290 O.2    52  GLY52      -0.2714
     48  N         29.5330   -2.7310    9.9990 N.am   53  ILE53      -0.1977
     49  CA        30.3010   -3.9750   10.1050 C.3    53  ILE53       0.1596
     50  C         30.9980   -4.1170   11.4660 C.2    53  ILE53       0.2287
     51  O         31.0520   -5.2080   12.0200 O.2    53  ILE53      -0.2864
     52  CB        31.2940   -4.1500    8.9180 C.3    53  ILE53       0.0276
     53  CG1       31.7360   -5.6170    8.8170 C.3    53  ILE53       0.0022
     54  CG2       32.4930   -3.2170    9.0680 C.3    53  ILE53       0.0022
     55  CD1       32.1170   -6.0760    7.4240 C.3    53  ILE53       0.0001
     56  N         27.7240   -6.6310    4.2420 N.3   211  PHE211     -0.1241
     57  CA        27.1100   -7.0440    5.4990 C.3   211  PHE211      0.1605
     58  C         25.6510   -6.6600    5.4190 C.2   211  PHE211      0.2264
     59  O         25.2890   -5.8310    4.5820 O.2   211  PHE211     -0.2867
     60  CB        27.7820   -6.3610    6.6880 C.3   211  PHE211      0.0534
     61  CG        27.8020   -4.8390    6.5940 C.ar  211  PHE211     -0.0203
     62  CD1       28.8210   -4.1760    5.9150 C.ar  211  PHE211     -0.0042
     63  CD2       26.7810   -4.0830    7.1500 C.ar  211  PHE211     -0.0042
     64  CE1       28.8270   -2.7840    5.8070 C.ar  211  PHE211     -0.0003
     65  CE2       26.7660   -2.6930    7.0330 C.ar  211  PHE211     -0.0003
     66  CZ        27.7920   -2.0430    6.3650 C.ar  211  PHE211     -0.0000
     67  N         23.7330   -5.9570    8.3650 N.3   213  TRP213     -0.1227
     68  CA        23.3480   -5.1720    9.5380 C.3   213  TRP213      0.1737
     69  C         23.3240   -3.6740    9.1680 C.2   213  TRP213      0.2596
     70  O         24.3020   -2.9230    9.3370 O.2   213  TRP213     -0.2718
     71  CB        24.3030   -5.4340   10.6920 C.3   213  TRP213      0.0564
     72  CG        23.9940   -4.6860   11.9620 C.ar  213  TRP213      0.0003
     73  CD1       24.8840   -3.9910   12.7330 C.ar  213  TRP213      0.0946
     74  CD2       22.7250   -4.5830   12.6240 C.ar  213  TRP213      0.0152
     75  NE1       24.2530   -3.4700   13.8350 N.ar  213  TRP213     -0.2442
     76  CE2       22.9290   -3.8210   13.7960 C.ar  213  TRP213      0.0810
     77  CE3       21.4300   -5.0580   12.3330 C.ar  213  TRP213      0.0012
     78  CZ2       21.9060   -3.5260   14.6830 C.ar  213  TRP213      0.0191
     79  CZ3       20.4010   -4.7550   13.2110 C.ar  213  TRP213      0.0001
     80  CH2       20.6540   -3.9960   14.3920 C.ar  213  TRP213      0.0015
     81  N         22.1740   -3.2820    8.6300 N.am  214  GLY214     -0.1957
     82  CA        21.9450   -1.9490    8.1180 C.3   214  GLY214      0.1869
     83  C         20.5570   -1.9380    7.5130 C.2   214  GLY214      0.2309
     84  O         19.8730   -2.9430    7.5140 O.2   214  GLY214     -0.2863
     85  N         22.2650    0.5300    3.3930 N.3   225  MET225     -0.1230
     86  CA        22.7430    1.9070    3.4570 C.3   225  MET225      0.1702
     87  C         24.0030    2.0080    4.2900 C.2   225  MET225      0.2592
     88  O         24.1110    1.4200    5.3590 O.2   225  MET225     -0.2718
     89  CB        21.6670    2.8140    4.0550 C.3   225  MET225      0.0401
     90  CG        20.4360    2.8700    3.1720 C.3   225  MET225      0.0596
     91  SD        19.2010    4.0080    3.7970 S.3   225  MET225     -0.1393
     92  CE        17.8070    3.5030    2.8450 C.3   225  MET225      0.0692
     93  N         24.9490    2.7690    3.7650 N.am  226  TYR226     -0.1962
     94  CA        26.1680    3.0530    4.4530 C.3   226  TYR226      0.1771
     95  C         25.8910    4.1870    5.4370 C.2   226  TYR226      0.2619
     96  O         24.7820    4.7210    5.4750 O.2   226  TYR226     -0.2715
     97  CB        27.2470    3.3740    3.4150 C.3   226  TYR226      0.0574
     98  CG        28.6310    3.4900    3.9840 C.ar  226  TYR226     -0.0198
     99  CD1       29.1250    2.5480    4.8900 C.ar  226  TYR226     -0.0009
    100  CD2       29.4500    4.5380    3.6160 C.ar  226  TYR226     -0.0009
    101  CE1       30.4040    2.6600    5.4120 C.ar  226  TYR226      0.0417
    102  CE2       30.7230    4.6660    4.1420 C.ar  226  TYR226      0.0417
    103  CZ        31.2010    3.7170    5.0260 C.ar  226  TYR226      0.1957
    104  OH        32.4680    3.8280    5.5450 O.3   226  TYR226     -0.2866
    105  N         26.8800    4.5350    6.2500 N.am  227  VAL227     -0.1963
    106  CA        26.7030    5.4650    7.3400 C.3   227  VAL227      0.1727
    107  C         26.0780    6.8370    6.9510 C.2   227  VAL227      0.2616
    108  O         25.3580    7.4230    7.7540 O.2   227  VAL227     -0.2715
    109  CB        28.0430    5.6680    8.0950 C.3   227  VAL227      0.0290
    110  CG1       29.0890    6.3600    7.2310 C.3   227  VAL227      0.0023
    111  CG2       27.8400    6.4540    9.3810 C.3   227  VAL227      0.0023
    112  N         26.3150    7.3360    5.7390 N.am  228  TRP228     -0.1974
    113  CA        25.9920    8.7480    5.4340 C.3   228  TRP228      0.1640
    114  C         24.5080    9.0230    5.5230 C.2   228  TRP228      0.2290
    115  O         24.0810    9.8480    6.3130 O.2   228  TRP228     -0.2864
    116  CB        26.5240    9.1990    4.0660 C.3   228  TRP228      0.0576
    117  CG        27.9280    8.8080    3.7920 C.ar  228  TRP228      0.0006
    118  CD1       28.3790    8.0650    2.7350 C.ar  228  TRP228      0.0946
    119  CD2       29.0740    9.1000    4.6000 C.ar  228  TRP228      0.0152
    120  NE1       29.7270    7.9030    2.8220 N.ar  228  TRP228     -0.2442
    121  CE2       30.1890    8.5180    3.9590 C.ar  228  TRP228      0.0810
    122  CE3       29.2660    9.7920    5.8100 C.ar  228  TRP228      0.0012
    123  CZ2       31.4920    8.6110    4.4800 C.ar  228  TRP228      0.0191
    124  CZ3       30.5550    9.8940    6.3270 C.ar  228  TRP228      0.0001
    125  CH2       31.6580    9.2960    5.6600 C.ar  228  TRP228      0.0015
    126  N         22.1190    6.8230    6.5450 N.3   230  ASP230     -0.1225
    127  CA        21.5770    6.1860    7.7720 C.3   230  ASP230      0.1805
    128  C         21.7460    7.1120    8.9970 C.2   230  ASP230      0.2598
    129  O         20.7660    7.5340    9.6080 O.2   230  ASP230     -0.2718
    130  CB        22.2470    4.8130    7.9740 C.3   230  ASP230      0.1424
    131  CG        21.8110    4.0920    9.2490 C.2   230  ASP230      0.3668
    132  OD1       21.1840    4.6900   10.1570 O.co2 230  ASP230     -0.2456
    133  OD2       22.0880    2.8730    9.3290 O.co2 230  ASP230     -0.2456
    134  N         22.9640    7.4620    9.3430 N.am  231  ALA231     -0.1966
    135  CA        23.1730    8.2310   10.5590 C.3   231  ALA231      0.1728
    136  C         22.6100    9.6600   10.4580 C.2   231  ALA231      0.2616
    137  O         22.0020   10.1140   11.3990 O.2   231  ALA231     -0.2715
    138  CB        24.6430    8.2660   10.9290 C.3   231  ALA231      0.0334
    139  N         22.8120   10.3620    9.3410 N.am  232  LEU232     -0.1977
    140  CA        22.3940   11.7650    9.2610 C.3   232  LEU232      0.1596
    141  C         20.8760   11.9240    9.3300 C.2   232  LEU232      0.2287
    142  O         20.3630   12.9300    9.8860 O.2   232  LEU232     -0.2864
    143  CB        22.9340   12.4420    8.0050 C.3   232  LEU232      0.0297
    144  CG        24.4470   12.6310    8.0220 C.3   232  LEU232      0.0022
    145  CD1       24.9530   13.0330    6.6540 C.3   232  LEU232      0.0001
    146  CD2       24.8630   13.6680    9.0340 C.3   232  LEU232      0.0001
    147  N         18.8320   10.6210   11.2570 N.3   234  ASN234     -0.1225
    148  CA        18.2510   10.5770   12.6130 C.3   234  ASN234      0.1785
    149  C         17.5370   11.8830   12.9860 C.2   234  ASN234      0.2597
    150  O         16.4930   11.8840   13.6510 O.2   234  ASN234     -0.2718
    151  CB        19.3310   10.2370   13.6740 C.3   234  ASN234      0.1169
    152  CG        20.0740   11.4560   14.1960 C.2   234  ASN234      0.2627
    153  OD1       19.7010   12.0260   15.2340 O.2   234  ASN234     -0.2716
    154  ND2       21.1510   11.8570   13.5050 N.am  234  ASN234     -0.0877
    155  N         18.1360   12.9990   12.5700 N.am  235  TYR235     -0.1976
    156  CA        17.6570   14.3230   12.9200 C.3   235  TYR235      0.1639
    157  C         16.2490   14.5860   12.4170 C.2   235  TYR235      0.2290
    158  O         15.5280   15.3580   13.0410 O.2   235  TYR235     -0.2864
    159  CB        18.5850   15.3910   12.3590 C.3   235  TYR235      0.0560
    160  CG        20.0400   15.2990   12.7920 C.ar  235  TYR235     -0.0198
    161  CD1       20.3750   15.1450   14.1330 C.ar  235  TYR235     -0.0009
    162  CD2       21.0790   15.4140   11.8680 C.ar  235  TYR235     -0.0009
    163  CE1       21.7060   15.0870   14.5360 C.ar  235  TYR235      0.0417
    164  CE2       22.4150   15.3330   12.2680 C.ar  235  TYR235      0.0417
    165  CZ        22.7080   15.1900   13.6050 C.ar  235  TYR235      0.1957
    166  OH        24.0010   15.1370   14.0320 O.3   235  TYR235     -0.2866
    167  N         35.6660   16.4040   13.8690 N.3   262  ASP262     -0.1225
    168  CA        35.9790   15.2980   12.9640 C.3   262  ASP262      0.1805
    169  C         34.8460   14.9450   12.0020 C.2   262  ASP262      0.2597
    170  O         35.0790   14.2970   11.0200 O.2   262  ASP262     -0.2718
    171  CB        36.3760   14.0520   13.7640 C.3   262  ASP262      0.1424
    172  CG        35.3370   13.6770   14.8360 C.2   262  ASP262      0.3668
    173  OD1       34.7060   14.5710   15.4580 O.co2 262  ASP262     -0.2456
    174  OD2       35.1370   12.4730   15.0410 O.co2 262  ASP262     -0.2456
    175  N         33.6170   15.3670   12.2800 N.am  263  ILE263     -0.1980
    176  CA        32.4970   15.0190   11.4070 C.3   263  ILE263      0.1595
    177  C         31.8710   16.2520   10.7410 C.2   263  ILE263      0.2287
    178  O         30.7600   16.1760   10.2090 O.2   263  ILE263     -0.2864
    179  CB        31.4450   14.1650   12.1470 C.3   263  ILE263      0.0276
    180  CG1       30.8100   14.9470   13.3180 C.3   263  ILE263      0.0022
    181  CG2       32.0960   12.8770   12.6230 C.3   263  ILE263      0.0022
    182  CD1       29.7910   14.1690   14.1200 C.3   263  ILE263      0.0001
    183  N         30.6730   15.9820    7.0440 N.3   266  PHE266     -0.1227
    184  CA        29.4970   15.1530    6.8400 C.3   266  PHE266      0.1736
    185  C         28.2160   15.9760    7.0930 C.2   266  PHE266      0.2595
    186  O         27.2400   15.8290    6.3540 O.2   266  PHE266     -0.2718
    187  CB        29.5290   13.9150    7.7210 C.3   266  PHE266      0.0547
    188  CG        30.8710   13.1980    7.7490 C.ar  266  PHE266     -0.0202
    189  CD1       31.6940   13.1480    6.6250 C.ar  266  PHE266     -0.0042
    190  CD2       31.2890   12.5400    8.9010 C.ar  266  PHE266     -0.0042
    191  CE1       32.9120   12.4830    6.6550 C.ar  266  PHE266     -0.0003
    192  CE2       32.5160   11.8630    8.9320 C.ar  266  PHE266     -0.0003
    193  CZ        33.3270   11.8370    7.8070 C.ar  266  PHE266     -0.0000
    194  N         28.2640   16.8810    8.0780 N.am  267  HIS267     -0.1975
    195  CA        27.1170   17.7390    8.3960 C.3   267  HIS267      0.1656
    196  C         27.0170   19.0180    7.5400 C.2   267  HIS267      0.2291
    197  O         25.9280   19.5350    7.3700 O.2   267  HIS267     -0.2864
    198  CB        27.1430   18.1230    9.8710 C.3   267  HIS267      0.0771
    199  CG        26.8170   16.9860   10.7750 C.ar  267  HIS267      0.0820
    200  ND1       27.6960   15.9450   11.0140 N.ar  267  HIS267     -0.2267
    201  CD2       25.7010   16.7100   11.4910 C.ar  267  HIS267      0.1154
    202  CE1       27.1180   15.0560   11.8020 C.ar  267  HIS267      0.1986
    203  NE2       25.9080   15.4960   12.1140 N.ar  267  HIS267     -0.2212
@<TRIPOS>BOND
     1   118   120   ar
     2   118   117   ar
     3   120   121   ar
     4    92    91    1
     5    90    91    1
     6    90    89    1
     7    85    86    1
     8    97    98    1
     9    97    94    1
    10    86    89    1
    11    86    87    1
    12   100    98   ar
    13   100   102   ar
    14    93    87   am
    15    93    94    1
    16   117   116    1
    17   117   119   ar
    18   121   123   ar
    19   121   119   ar
    20    98    99   ar
    21   116   113    1
    22   102   103   ar
    23    56    57    1
    24    87    88    2
    25    94    95    1
    26   123   125   ar
    27    59    58    2
    28   119   122   ar
    29    99   101   ar
    30   103   101   ar
    31   103   104    1
    32    58    57    1
    33   113   114    1
    34   113   112    1
    35    95    96    2
    36    95   105   am
    37    57    60    1
    38   114   115    2
    39   125   124   ar
    40   112   107   am
    41    64    62   ar
    42    64    66   ar
    43   122   124   ar
    44    62    61   ar
    45   105   106    1
    46   186   185    2
    47    66    65   ar
    48   126   127    1
    49    61    60    1
    50    61    63   ar
    51   189   191   ar
    52   189   188   ar
    53   145   144    1
    54   191   193   ar
    55   184   183    1
    56   184   185    1
    57   184   187    1
    58   107   106    1
    59   107   108    2
    60    65    63   ar
    61   185   194   am
    62   110   109    1
    63   106   109    1
    64   197   196    2
    65    55    53    1
    66    83    84    2
    67    83    82    1
    68   196   195    1
    69   187   188    1
    70   188   190   ar
    71   127   130    1
    72   127   128    1
    73   193   192   ar
    74   130   131    1
    75   143   144    1
    76   143   140    1
    77   144   146    1
    78   194   195    1
    79   109   111    1
    80    82    81    1
    81    67    68    1
    82   195   198    1
    83    81    69   am
    84    53    52    1
    85   190   192   ar
    86    52    54    1
    87    52    49    1
    88   128   134   am
    89   128   129    2
    90    69    70    2
    91    69    68    1
    92   131   133   ar
    93   131   132   ar
    94   140   141    1
    95   140   139    1
    96   141   142    2
    97   139   136   am
    98   134   135    1
    99    68    71    1
   100   198   199    1
   101    48    49    1
   102    48    46   am
   103    49    50    1
   104   178   177    2
   105    45    46    1
   106    45    44    1
   107   136   135    1
   108   136   137    2
   109   135   138    1
   110    71    72    1
   111    46    47    2
   112   177   176    1
   113   199   200   ar
   114   199   201   ar
   115    40    42   ar
   116    40    39   ar
   117    44    36   am
   118   200   202   ar
   119   170   169    2
   120    38    39    1
   121    38    35    1
   122    42    43   ar
   123    39    41   ar
   124   147   148    1
   125   176   179    1
   126   176   175    1
   127    50    51    2
   128   201   203   ar
   129    43    41   ar
   130   202   203   ar
   131   162   164   ar
   132   162   160   ar
   133    36    35    1
   134    36    37    2
   135    72    74   ar
   136    72    73   ar
   137   169   175   am
   138   169   168    1
   139   179   181    1
   140   179   180    1
   141   164   165   ar
   142    35    34    1
   143    77    74   ar
   144    77    79   ar
   145   159   160    1
   146   159   156    1
   147   157   156    1
   148   157   158    2
   149   155   156    1
   150   155   149   am
   151   148   149    1
   152   148   151    1
   153    74    76   ar
   154    73    75   ar
   155   160   161   ar
   156    32    31   ar
   157   168   171    1
   158   168   167    1
   159   149   150    2
   160    79    80   ar
   161    33    31   ar
   162   180   182    1
   163   154   152   am
   164    31    30    1
   165   165   166    1
   166   165   163   ar
   167    25    24    1
   168   151   152    1
   169   171   172    1
   170    76    75   ar
   171    76    78   ar
   172   161   163   ar
   173   152   153    2
   174    80    78   ar
   175    22    24   ar
   176    22    20   ar
   177    24    23   ar
   178    13    11    1
   179    30    27    1
   180   172   174   ar
   181   172   173   ar
   182    20    19   ar
   183    11    10    1
   184    23    21   ar
   185    27    28    1
   186    27    26    1
   187    28    29    2
   188    19    21   ar
   189    19    18    1
   190     5     2    1
   191    10    12    1
   192    10     7    1
   193     2     3    1
   194     2     1    1
   195     9     8    2
   196     6     7    1
   197     6     3   am
   198    18    15    1
   199     7     8    1
   200     3     4    2
   201    15    14    1
   202    15    16    1
   203    16    17    2
