@<TRIPOS>MOLECULE
tmp/4py4B00.pdb
 131 128 0 0 0
SMALL
GASTEIGER

@<TRIPOS>ATOM
      1  N        -12.6050   -9.3340   47.0620 N.3    67  PHE67      -0.1227
      2  CA       -12.8930   -9.8330   45.7370 C.3    67  PHE67       0.1736
      3  C        -14.3280   -9.5360   45.3460 C.2    67  PHE67       0.2595
      4  O        -15.1960   -9.3860   46.2140 O.2    67  PHE67      -0.2718
      5  CB       -12.5930  -11.3200   45.6660 C.3    67  PHE67       0.0547
      6  CG       -11.1520  -11.6270   45.8240 C.ar   67  PHE67      -0.0202
      7  CD1      -10.2940  -11.4960   44.7500 C.ar   67  PHE67      -0.0042
      8  CD2      -10.6340  -12.0210   47.0610 C.ar   67  PHE67      -0.0042
      9  CE1       -8.9440  -11.7650   44.8830 C.ar   67  PHE67      -0.0003
     10  CE2       -9.2770  -12.2950   47.2070 C.ar   67  PHE67      -0.0003
     11  CZ        -8.4350  -12.1650   46.1160 C.ar   67  PHE67      -0.0000
     12  N        -14.5620   -9.4300   44.0410 N.am   68  HIS68      -0.1961
     13  CA       -15.9070   -9.2630   43.5010 C.3    68  HIS68       0.1787
     14  C        -16.0580   -9.9030   42.1040 C.2    68  HIS68       0.2621
     15  O        -15.4760   -9.4360   41.1090 O.2    68  HIS68      -0.2715
     16  CB       -16.3040   -7.7800   43.4420 C.3    68  HIS68       0.0785
     17  CG       -17.6970   -7.5600   42.9430 C.ar   68  HIS68       0.0821
     18  ND1      -18.8010   -7.6190   43.7690 N.ar   68  HIS68      -0.2267
     19  CD2      -18.1740   -7.3240   41.6960 C.ar   68  HIS68       0.1154
     20  CE1      -19.8930   -7.4110   43.0540 C.ar   68  HIS68       0.1986
     21  NE2      -19.5410   -7.2380   41.7910 N.ar   68  HIS68      -0.2212
     22  N        -16.8450  -10.9710   42.0420 N.am   69  GLY69      -0.1940
     23  CA       -17.1560  -11.6040   40.7800 C.3    69  GLY69       0.2014
     24  C        -18.3410  -10.9520   40.0890 C.2    69  GLY69       0.2640
     25  O        -19.2780  -10.4850   40.7370 O.2    69  GLY69      -0.2714
     26  N        -18.3030  -10.9320   38.7640 N.am   70  THR70      -0.1936
     27  CA       -19.3750  -10.3480   37.9780 C.3    70  THR70       0.2028
     28  C        -19.3790  -10.9350   36.5640 C.2    70  THR70       0.2642
     29  O        -18.4030  -11.5580   36.1420 O.2    70  THR70      -0.2714
     30  CB       -19.2280   -8.8330   37.9100 C.3    70  THR70       0.1808
     31  OG1      -20.3710   -8.2830   37.2530 O.3    70  THR70      -0.2208
     32  CG2      -17.9730   -8.4380   37.1430 C.3    70  THR70       0.0379
     33  N        -20.4720  -10.7530   35.8310 N.am   71  ASP71      -0.1971
     34  CA       -20.5330  -11.1980   34.4340 C.3    71  ASP71       0.1709
     35  C        -19.7390  -10.2710   33.5150 C.2    71  ASP71       0.2293
     36  O        -19.5520   -9.0950   33.8170 O.2    71  ASP71      -0.2864
     37  CB       -21.9840  -11.2930   33.9560 C.3    71  ASP71       0.1436
     38  CG       -22.7260   -9.9650   34.0570 C.2    71  ASP71       0.3671
     39  OD1      -22.7300   -9.3620   35.1520 O.co2  71  ASP71      -0.2456
     40  OD2      -23.3110   -9.5130   33.0470 O.co2  71  ASP71      -0.2456
     41  N        -20.9340   -6.6940   32.7890 N.3    74  SER74      -0.1217
     42  CA       -20.7720   -5.6370   33.7870 C.3    74  SER74       0.1889
     43  C        -19.4100   -4.9810   33.7820 C.2    74  SER74       0.2288
     44  O        -19.2650   -3.8520   34.2500 O.2    74  SER74      -0.2866
     45  CB       -21.0300   -6.1800   35.1730 C.3    74  SER74       0.2089
     46  OG       -22.3940   -6.4590   35.3400 O.3    74  SER74      -0.2183
     47  N        -26.3240   -1.3790   40.8120 N.3    87  TYR87      -0.1241
     48  CA       -25.4360   -2.4800   41.1550 C.3    87  TYR87       0.1605
     49  C        -25.4770   -2.7800   42.6770 C.2    87  TYR87       0.2264
     50  O        -26.4060   -2.3960   43.4120 O.2    87  TYR87      -0.2867
     51  CB       -23.9950   -2.1330   40.7240 C.3    87  TYR87       0.0534
     52  CG       -23.1430   -3.3280   40.4100 C.ar   87  TYR87      -0.0201
     53  CD1      -22.4660   -4.0050   41.4210 C.ar   87  TYR87      -0.0009
     54  CD2      -23.0210   -3.7890   39.1130 C.ar   87  TYR87      -0.0009
     55  CE1      -21.6960   -5.1050   41.1450 C.ar   87  TYR87       0.0417
     56  CE2      -22.2480   -4.8960   38.8240 C.ar   87  TYR87       0.0417
     57  CZ       -21.5860   -5.5520   39.8460 C.ar   87  TYR87       0.1957
     58  OH       -20.8140   -6.6640   39.5790 O.3    87  TYR87      -0.2866
     59  N        -21.8270   -6.3590   47.2130 N.3    94  TYR94      -0.1241
     60  CA       -21.1980   -7.3550   48.0800 C.3    94  TYR94       0.1605
     61  C        -19.7340   -7.5700   47.6820 C.2    94  TYR94       0.2264
     62  O        -19.4030   -7.5560   46.4930 O.2    94  TYR94      -0.2867
     63  CB       -21.9920   -8.6660   48.0510 C.3    94  TYR94       0.0534
     64  CG       -23.2720   -8.6510   48.8890 C.ar   94  TYR94      -0.0201
     65  CD1      -23.3950   -9.4480   50.0340 C.ar   94  TYR94      -0.0009
     66  CD2      -24.3530   -7.8470   48.5410 C.ar   94  TYR94      -0.0009
     67  CE1      -24.5600   -9.4430   50.8060 C.ar   94  TYR94       0.0417
     68  CE2      -25.5210   -7.8300   49.3050 C.ar   94  TYR94       0.0417
     69  CZ       -25.6200   -8.6300   50.4390 C.ar   94  TYR94       0.1957
     70  OH       -26.7820   -8.6180   51.1950 O.3    94  TYR94      -0.2866
     71  N        -16.1110   -9.9940   48.8270 N.3    96  ALA96      -0.1245
     72  CA       -15.6720  -11.1940   49.5430 C.3    96  ALA96       0.1562
     73  C        -14.2100  -11.1170   49.9900 C.2    96  ALA96       0.2260
     74  O        -13.3370  -10.7390   49.2030 O.2    96  ALA96      -0.2867
     75  CB       -15.8810  -12.4400   48.6720 C.3    96  ALA96       0.0290
     76  N        -15.4470  -17.4180   47.1150 N.3   101  TYR101     -0.1227
     77  CA       -16.8220  -16.9220   47.1670 C.3   101  TYR101      0.1736
     78  C        -17.1590  -16.2500   45.8350 C.2   101  TYR101      0.2596
     79  O        -18.0950  -16.6500   45.1450 O.2   101  TYR101     -0.2718
     80  CB       -17.0220  -15.9410   48.3120 C.3   101  TYR101      0.0548
     81  CG       -17.3170  -16.5640   49.6660 C.ar  101  TYR101     -0.0200
     82  CD1      -16.4340  -17.4710   50.2600 C.ar  101  TYR101     -0.0009
     83  CD2      -18.4500  -16.1990   50.3820 C.ar  101  TYR101     -0.0009
     84  CE1      -16.6990  -18.0230   51.5220 C.ar  101  TYR101      0.0417
     85  CE2      -18.7280  -16.7450   51.6350 C.ar  101  TYR101      0.0417
     86  CZ       -17.8510  -17.6530   52.2020 C.ar  101  TYR101      0.1957
     87  OH       -18.1310  -18.1880   53.4470 O.3   101  TYR101     -0.2866
     88  N        -16.3720  -15.2500   45.4600 N.am  102  SER102     -0.1952
     89  CA       -16.5430  -14.5620   44.1820 C.3   102  SER102      0.1924
     90  C        -16.4760  -15.4780   42.9470 C.2   102  SER102      0.2314
     91  O        -17.0680  -15.1860   41.9070 O.2   102  SER102     -0.2863
     92  CB       -15.5140  -13.4490   44.0830 C.3   102  SER102      0.2116
     93  OG       -15.6280  -12.6210   45.2180 O.3   102  SER102     -0.2180
     94  N        -22.4790  -17.9870   39.9940 N.3   106  THR106     -0.1203
     95  CA       -23.6300  -17.0860   40.0360 C.3   106  THR106      0.1994
     96  C        -23.1880  -15.6200   40.0890 C.2   106  THR106      0.2617
     97  O        -23.9710  -14.7090   39.8310 O.2   106  THR106     -0.2717
     98  CB       -24.5070  -17.4010   41.2490 C.3   106  THR106      0.1784
     99  OG1      -24.6150  -18.8230   41.3920 O.3   106  THR106     -0.2211
    100  CG2      -25.8890  -16.7860   41.1000 C.3   106  THR106      0.0376
    101  N        -21.9240  -15.4030   40.4320 N.am  107  TYR107     -0.1975
    102  CA       -21.3780  -14.0590   40.5280 C.3   107  TYR107      0.1639
    103  C        -20.4450  -13.8330   39.3530 C.2   107  TYR107      0.2290
    104  O        -20.7080  -12.9900   38.5050 O.2   107  TYR107     -0.2864
    105  CB       -20.6570  -13.8730   41.8670 C.3   107  TYR107      0.0560
    106  CG       -21.5290  -14.2260   43.0520 C.ar  107  TYR107     -0.0198
    107  CD1      -22.8900  -13.9680   43.0320 C.ar  107  TYR107     -0.0009
    108  CD2      -20.9950  -14.8210   44.1860 C.ar  107  TYR107     -0.0009
    109  CE1      -23.6950  -14.2810   44.0990 C.ar  107  TYR107      0.0417
    110  CE2      -21.8000  -15.1470   45.2680 C.ar  107  TYR107      0.0417
    111  CZ       -23.1550  -14.8700   45.2160 C.ar  107  TYR107      0.1957
    112  OH       -23.9950  -15.1750   46.2730 O.3   107  TYR107     -0.2866
    113  N        -20.0870  -15.1090   36.4590 N.3   109  ARG109     -0.1245
    114  CA       -20.8130  -15.9410   35.5200 C.3   109  ARG109      0.1563
    115  C        -20.0220  -16.1870   34.2380 C.2   109  ARG109      0.2260
    116  O        -19.6150  -15.2390   33.5630 O.2   109  ARG109     -0.2867
    117  CB       -22.1690  -15.2840   35.2500 C.3   109  ARG109      0.0307
    118  CG       -22.9420  -15.7570   34.0320 C.3   109  ARG109      0.0489
    119  CD       -24.3030  -15.0520   33.9750 C.3   109  ARG109      0.2205
    120  NE       -24.8800  -15.1330   32.6380 N.pl3 109  ARG109     -0.0865
    121  CZ       -25.6480  -16.1320   32.2110 C.cat 109  ARG109      0.5346
    122  NH1      -25.9480  -17.1390   33.0290 N.pl3 109  ARG109      0.1354
    123  NH2      -26.1210  -16.1220   30.9650 N.pl3 109  ARG109      0.1354
    124  N        -17.5810  -11.5990   54.2860 N.3   157  LEU157     -0.1245
    125  CA       -17.9830  -10.6320   53.2580 C.3   157  LEU157      0.1561
    126  C        -18.2090   -9.2170   53.7840 C.2   157  LEU157      0.2260
    127  O        -18.2610   -8.9940   54.9980 O.2   157  LEU157     -0.2867
    128  CB       -19.2230  -11.1120   52.5040 C.3   157  LEU157      0.0270
    129  CG       -20.5350  -11.3350   53.2490 C.3   157  LEU157      0.0019
    130  CD1      -21.3220  -10.0540   53.4320 C.3   157  LEU157      0.0001
    131  CD2      -21.3570  -12.3350   52.4690 C.3   157  LEU157      0.0001
@<TRIPOS>BOND
     1   123   121    1
     2   121   120    2
     3   121   122    1
     4   120   119    1
     5    41    42    1
     6    40    38   ar
     7    35    36    2
     8    35    34    1
     9   116   115    2
    10    43    42    1
    11    43    44    2
    12    42    45    1
    13    37    38    1
    14    37    34    1
    15   119   118    1
    16   118   117    1
    17    38    39   ar
    18   115   114    1
    19    34    33    1
    20    45    46    1
    21   117   114    1
    22   114   113    1
    23    33    28   am
    24    29    28    2
    25    28    27    1
    26    32    30    1
    27    31    30    1
    28    30    27    1
    29    27    26    1
    30   104   103    2
    31    26    24   am
    32    56    54   ar
    33    56    57   ar
    34    54    52   ar
    35   103   102    1
    36    58    57    1
    37    97    96    2
    38    57    55   ar
    39    94    95    1
    40    95    96    1
    41    95    98    1
    42    96   101   am
    43    24    25    2
    44    24    23    1
    45    52    51    1
    46    52    53   ar
    47   101   102    1
    48   102   105    1
    49    51    48    1
    50    23    22    1
    51    47    48    1
    52   100    98    1
    53    15    14    2
    54    55    53   ar
    55    48    49    1
    56    98    99    1
    57    19    21   ar
    58    19    17   ar
    59    21    20   ar
    60   105   106    1
    61    91    90    2
    62    22    14   am
    63    14    13    1
    64    49    50    2
    65    17    16    1
    66    17    18   ar
    67    90    89    1
    68   107   106   ar
    69   107   109   ar
    70   106   108   ar
    71    20    18   ar
    72    16    13    1
    73    13    12    1
    74    12     3   am
    75    92    89    1
    76    92    93    1
    77   109   111   ar
    78    89    88    1
    79   108   110   ar
    80     7     9   ar
    81     7     6   ar
    82     9    11   ar
    83    79    78    2
    84   111   110   ar
    85   111   112    1
    86     3     2    1
    87     3     4    2
    88    88    78   am
    89     5     2    1
    90     5     6    1
    91     2     1    1
    92     6     8   ar
    93    78    77    1
    94    11    10   ar
    95    62    61    2
    96     8    10   ar
    97    76    77    1
    98    77    80    1
    99    59    60    1
   100    61    60    1
   101    63    60    1
   102    63    64    1
   103    80    81    1
   104    66    64   ar
   105    66    68   ar
   106    75    72    1
   107    71    72    1
   108    64    65   ar
   109    74    73    2
   110    68    69   ar
   111    72    73    1
   112    81    82   ar
   113    81    83   ar
   114    65    67   ar
   115    82    84   ar
   116    83    85   ar
   117    69    67   ar
   118    69    70    1
   119    84    86   ar
   120    85    86   ar
   121    86    87    1
   122   131   129    1
   123   128   129    1
   124   128   125    1
   125   129   130    1
   126   125   126    1
   127   125   124    1
   128   126   127    2
