@<TRIPOS>MOLECULE
tmp/4py6A00.pdb
 142 136 0 0 0
SMALL
GASTEIGER

@<TRIPOS>ATOM
      1  N        -16.7150  -27.0940  -36.4060 N.3    30  PHE30      -0.1227
      2  CA       -15.4670  -26.6640  -37.0600 C.3    30  PHE30       0.1736
      3  C        -14.9510  -27.5470  -38.2110 C.2    30  PHE30       0.2595
      4  O        -14.7150  -27.0370  -39.3070 O.2    30  PHE30      -0.2718
      5  CB       -14.3700  -26.4130  -36.0000 C.3    30  PHE30       0.0547
      6  CG       -12.9950  -26.0600  -36.5220 C.ar   30  PHE30      -0.0202
      7  CD1      -12.6970  -24.7630  -36.9240 C.ar   30  PHE30      -0.0042
      8  CD2      -11.9850  -27.0150  -36.5710 C.ar   30  PHE30      -0.0042
      9  CE1      -11.4210  -24.4360  -37.3990 C.ar   30  PHE30      -0.0003
     10  CE2      -10.7110  -26.6870  -37.0450 C.ar   30  PHE30      -0.0003
     11  CZ       -10.4370  -25.3990  -37.4500 C.ar   30  PHE30      -0.0000
     12  N        -14.7740  -28.8530  -37.9560 N.am   31  TYR31      -0.1962
     13  CA       -14.2570  -29.8110  -38.9320 C.3    31  TYR31       0.1771
     14  C        -15.2800  -30.3190  -39.9530 C.2    31  TYR31       0.2619
     15  O        -14.8830  -30.9520  -40.9340 O.2    31  TYR31      -0.2715
     16  CB       -13.5960  -30.9980  -38.2120 C.3    31  TYR31       0.0574
     17  CG       -12.2990  -30.6620  -37.5080 C.ar   31  TYR31      -0.0198
     18  CD1      -11.1170  -30.4910  -38.2240 C.ar   31  TYR31      -0.0009
     19  CD2      -12.2370  -30.5880  -36.1190 C.ar   31  TYR31      -0.0009
     20  CE1       -9.9140  -30.2050  -37.5780 C.ar   31  TYR31       0.0417
     21  CE2      -11.0400  -30.3050  -35.4620 C.ar   31  TYR31       0.0417
     22  CZ        -9.8800  -30.1140  -36.1960 C.ar   31  TYR31       0.1957
     23  OH        -8.6970  -29.8350  -35.5540 O.3    31  TYR31      -0.2866
     24  N        -16.5790  -30.0460  -39.7420 N.am   32  PHE32      -0.1974
     25  CA       -17.6390  -30.5370  -40.6270 C.3    32  PHE32       0.1639
     26  C        -18.3880  -29.4580  -41.4390 C.2    32  PHE32       0.2290
     27  O        -19.3600  -29.7780  -42.1320 O.2    32  PHE32      -0.2864
     28  CB       -18.6040  -31.4460  -39.8390 C.3    32  PHE32       0.0560
     29  CG       -17.9250  -32.4200  -38.8990 C.ar   32  PHE32      -0.0200
     30  CD1      -17.1490  -33.4650  -39.3920 C.ar   32  PHE32      -0.0042
     31  CD2      -18.0580  -32.2900  -37.5220 C.ar   32  PHE32      -0.0042
     32  CE1      -16.5140  -34.3570  -38.5230 C.ar   32  PHE32      -0.0003
     33  CE2      -17.4210  -33.1810  -36.6540 C.ar   32  PHE32      -0.0003
     34  CZ       -16.6520  -34.2070  -37.1600 C.ar   32  PHE32      -0.0000
     35  N        -17.0890  -27.0540  -44.1240 N.3    34  THR34      -0.1218
     36  CA       -16.7610  -27.0450  -45.5600 C.3    34  THR34       0.1862
     37  C        -16.2790  -28.4210  -46.0820 C.2    34  THR34       0.2287
     38  O        -15.8000  -29.2220  -45.2730 O.2    34  THR34      -0.2866
     39  CB       -15.7640  -25.9100  -45.8770 C.3    34  THR34       0.1770
     40  OG1      -14.5890  -26.0620  -45.0800 O.3    34  THR34      -0.2211
     41  CG2      -16.3670  -24.5210  -45.6800 C.3    34  THR34       0.0375
     42  N        -14.0780  -31.5470  -47.4740 N.3    36  VAL36      -0.1245
     43  CA       -12.7130  -32.0450  -47.2870 C.3    36  VAL36       0.1561
     44  C        -11.8450  -31.9070  -48.5500 C.2    36  VAL36       0.2260
     45  O        -10.7460  -31.3510  -48.4800 O.2    36  VAL36      -0.2867
     46  CB       -12.7390  -33.5010  -46.7290 C.3    36  VAL36       0.0252
     47  CG1      -11.4250  -34.2380  -46.9750 C.3    36  VAL36       0.0019
     48  CG2      -13.0980  -33.5190  -45.2470 C.3    36  VAL36       0.0019
     49  N        -10.8500  -28.2040  -49.4050 N.3    39  ASP39      -0.1239
     50  CA       -10.3350  -27.4220  -48.2790 C.3    39  ASP39       0.1674
     51  C         -8.8160  -27.2400  -48.3750 C.2    39  ASP39       0.2266
     52  O         -8.0690  -28.2220  -48.3700 O.2    39  ASP39      -0.2867
     53  CB       -10.7430  -28.0540  -46.9390 C.3    39  ASP39       0.1410
     54  CG       -10.5160  -27.1550  -45.7430 C.2    39  ASP39       0.3668
     55  OD1       -9.5050  -27.3530  -45.0390 O.co2  39  ASP39      -0.2456
     56  OD2      -11.3520  -26.2560  -45.5090 O.co2  39  ASP39      -0.2456
     57  N         -6.6820  -26.0470  -46.1900 N.3    41  ASN41      -0.1225
     58  CA        -5.9580  -26.3240  -44.9460 C.3    41  ASN41       0.1785
     59  C         -5.4570  -27.7720  -44.8120 C.2    41  ASN41       0.2597
     60  O         -4.5210  -28.0180  -44.0490 O.2    41  ASN41      -0.2718
     61  CB        -6.7720  -25.8850  -43.7260 C.3    41  ASN41       0.1169
     62  CG        -7.0620  -24.4020  -43.6920 C.2    41  ASN41       0.2627
     63  OD1       -6.1580  -23.5620  -43.5900 O.2    41  ASN41      -0.2716
     64  ND2       -8.3350  -24.0470  -43.7680 N.am   41  ASN41      -0.0877
     65  N         -6.0640  -28.7200  -45.5560 N.am   42  ILE42      -0.1980
     66  CA        -5.6640  -30.1340  -45.5510 C.3    42  ILE42       0.1595
     67  C         -4.6460  -30.3590  -46.6770 C.2    42  ILE42       0.2287
     68  O         -4.8170  -29.8020  -47.7640 O.2    42  ILE42      -0.2864
     69  CB        -6.8750  -31.1110  -45.6780 C.3    42  ILE42       0.0276
     70  CG1       -8.1370  -30.5790  -44.9570 C.3    42  ILE42       0.0022
     71  CG2       -6.4990  -32.5220  -45.1910 C.3    42  ILE42       0.0022
     72  CD1       -9.4750  -31.2610  -45.3160 C.3    42  ILE42       0.0001
     73  N         -3.6280  -36.4570  -47.9400 N.3    46  ILE46      -0.1245
     74  CA        -4.8250  -36.8860  -47.2030 C.3    46  ILE46       0.1561
     75  C         -6.0650  -36.7700  -48.1120 C.2    46  ILE46       0.2260
     76  O         -6.9240  -37.6540  -48.0860 O.2    46  ILE46      -0.2867
     77  CB        -4.9870  -36.1530  -45.8350 C.3    46  ILE46       0.0252
     78  CG1       -3.6920  -36.2490  -44.9840 C.3    46  ILE46       0.0019
     79  CG2       -6.1860  -36.7060  -45.0500 C.3    46  ILE46       0.0019
     80  CD1       -3.5690  -35.2220  -43.8300 C.3    46  ILE46       0.0001
     81  N         -8.6600  -39.6260  -49.0570 N.3    50  TYR50      -0.1241
     82  CA       -10.0800  -39.4090  -48.7610 C.3    50  TYR50       0.1605
     83  C        -10.9700  -39.6540  -49.9820 C.2    50  TYR50       0.2264
     84  O        -12.0240  -40.2740  -49.8390 O.2    50  TYR50      -0.2867
     85  CB       -10.3050  -37.9970  -48.1950 C.3    50  TYR50       0.0534
     86  CG       -11.5840  -37.8440  -47.4020 C.ar   50  TYR50      -0.0201
     87  CD1      -12.7760  -37.4800  -48.0250 C.ar   50  TYR50      -0.0009
     88  CD2      -11.5960  -38.0160  -46.0210 C.ar   50  TYR50      -0.0009
     89  CE1      -13.9550  -37.3240  -47.2970 C.ar   50  TYR50       0.0417
     90  CE2      -12.7680  -37.8580  -45.2820 C.ar   50  TYR50       0.0417
     91  CZ       -13.9450  -37.5110  -45.9250 C.ar   50  TYR50       0.1957
     92  OH       -15.1020  -37.3560  -45.2030 O.3    50  TYR50      -0.2866
     93  N        -16.1460  -39.7740  -40.7940 N.3    89  CYS89      -0.1235
     94  CA       -15.0790  -39.3740  -39.8770 C.3    89  CYS89       0.1677
     95  C        -14.5400  -40.5490  -39.0560 C.2    89  CYS89       0.2270
     96  O        -13.3270  -40.6610  -38.8900 O.2    89  CYS89      -0.2867
     97  CB       -15.5400  -38.2270  -38.9840 C.3    89  CYS89       0.0956
     98  SG       -14.2440  -37.5550  -37.9150 S.3    89  CYS89      -0.0801
     99  N        -12.7860  -43.2530  -41.6970 N.3    92  PHE92      -0.1227
    100  CA       -11.5260  -42.7950  -42.2850 C.3    92  PHE92       0.1736
    101  C        -10.4100  -42.5910  -41.2630 C.2    92  PHE92       0.2595
    102  O         -9.2990  -43.0770  -41.4810 O.2    92  PHE92      -0.2718
    103  CB       -11.7340  -41.5220  -43.1310 C.3    92  PHE92       0.0547
    104  CG       -10.5060  -41.0360  -43.8680 C.ar   92  PHE92      -0.0202
    105  CD1      -10.1140  -41.6250  -45.0640 C.ar   92  PHE92      -0.0042
    106  CD2       -9.7530  -39.9770  -43.3750 C.ar   92  PHE92      -0.0042
    107  CE1       -8.9740  -41.1830  -45.7400 C.ar   92  PHE92      -0.0003
    108  CE2       -8.6130  -39.5340  -44.0530 C.ar   92  PHE92      -0.0003
    109  CZ        -8.2340  -40.1370  -45.2330 C.ar   92  PHE92      -0.0000
    110  N        -10.6890  -41.8460  -40.1790 N.am   93  ASN93      -0.1974
    111  CA        -9.7030  -41.5310  -39.1460 C.3    93  ASN93       0.1688
    112  C         -9.4900  -42.6790  -38.1430 C.2    93  ASN93       0.2292
    113  O        -10.4580  -43.1220  -37.5170 O.2    93  ASN93      -0.2864
    114  CB       -10.0500  -40.2210  -38.4280 C.3    93  ASN93       0.1181
    115  CG       -10.1640  -39.0320  -39.3490 C.2    93  ASN93       0.2629
    116  OD1       -9.1650  -38.4320  -39.7580 O.2    93  ASN93      -0.2716
    117  ND2      -11.3900  -38.6640  -39.6890 N.am   93  ASN93      -0.0877
    118  N         -3.9260  -38.4420  -31.5220 N.3    98  GLU98      -0.1231
    119  CA        -3.8770  -37.2200  -32.3380 C.3    98  GLU98       0.1699
    120  C         -5.2270  -36.8740  -32.9770 C.2    98  GLU98       0.2592
    121  O         -5.4670  -35.7080  -33.2970 O.2    98  GLU98      -0.2718
    122  CB        -2.7390  -37.2470  -33.3810 C.3    98  GLU98       0.0402
    123  CG        -2.5820  -38.5530  -34.1430 C.3    98  GLU98       0.1161
    124  CD        -1.4050  -39.3990  -33.6950 C.2    98  GLU98       0.3649
    125  OE1       -0.4600  -39.5710  -34.4990 O.co2  98  GLU98      -0.2457
    126  OE2       -1.4250  -39.8930  -32.5440 O.co2  98  GLU98      -0.2457
    127  N         -6.1090  -37.8790  -33.1380 N.am   99  ASN99      -0.1974
    128  CA        -7.4490  -37.7220  -33.7100 C.3    99  ASN99       0.1688
    129  C         -8.5430  -37.7370  -32.6240 C.2    99  ASN99       0.2292
    130  O         -9.7180  -37.9370  -32.9430 O.2    99  ASN99      -0.2864
    131  CB        -7.7120  -38.8130  -34.7620 C.3    99  ASN99       0.1181
    132  CG        -6.8610  -38.7350  -36.0050 C.2    99  ASN99       0.2629
    133  OD1       -6.4170  -37.6640  -36.4370 O.2    99  ASN99      -0.2716
    134  ND2       -6.6670  -39.8750  -36.6450 N.am   99  ASN99      -0.0877
    135  N        -11.3510  -34.7340  -33.0890 N.3   102  ILE102     -0.1245
    136  CA       -12.1930  -34.9810  -34.2630 C.3   102  ILE102      0.1561
    137  C        -13.1450  -36.1860  -34.1270 C.2   102  ILE102      0.2260
    138  O        -14.2990  -36.0930  -34.5530 O.2   102  ILE102     -0.2867
    139  CB       -11.3910  -34.9280  -35.5960 C.3   102  ILE102      0.0252
    140  CG1      -12.3280  -34.6870  -36.7980 C.3   102  ILE102      0.0019
    141  CG2      -10.4580  -36.1480  -35.7860 C.3   102  ILE102      0.0019
    142  CD1      -11.7010  -34.1890  -38.0070 C.3   102  ILE102      0.0001
@<TRIPOS>BOND
     1    83    84    2
     2    83    82    1
     3    49    50    1
     4    81    82    1
     5    82    85    1
     6    44    45    2
     7    44    43    1
     8    51    52    2
     9    51    50    1
    10    50    53    1
    11    85    86    1
    12    75    76    2
    13    75    74    1
    14    87    86   ar
    15    87    89   ar
    16    73    74    1
    17    68    67    2
    18    42    43    1
    19    86    88   ar
    20    89    91   ar
    21    43    46    1
    22    74    77    1
    23    47    46    1
    24    53    54    1
    25    46    48    1
    26    67    66    1
    27    57    58    1
    28    37    36    1
    29    37    38    2
    30    88    90   ar
    31    91    90   ar
    32    91    92    1
    33    39    41    1
    34    39    36    1
    35    39    40    1
    36    77    79    1
    37    77    78    1
    38    54    56   ar
    39    54    55   ar
    40   107   109   ar
    41   107   105   ar
    42    69    66    1
    43    69    71    1
    44    69    70    1
    45    36    35    1
    46    65    66    1
    47    65    59   am
    48    72    70    1
    49   109   108   ar
    50   105   104   ar
    51    78    80    1
    52    58    59    1
    53    58    61    1
    54    59    60    2
    55   108   106   ar
    56   104   106   ar
    57   104   103    1
    58    64    62   am
    59    61    62    1
    60    62    63    2
    61   103   100    1
    62   100    99    1
    63   100   101    1
    64    27    26    2
    65   102   101    2
    66    26    25    1
    67   101   110   am
    68    15    14    2
    69    93    94    1
    70    25    28    1
    71    25    24    1
    72   110   111    1
    73    14    24   am
    74    14    13    1
    75    94    95    1
    76    94    97    1
    77    28    29    1
    78   116   115    2
    79   117   115   am
    80    30    29   ar
    81    30    32   ar
    82   115   114    1
    83     4     3    2
    84   111   114    1
    85   111   112    1
    86    95    96    2
    87    97    98    1
    88    13    16    1
    89    13    12    1
    90    29    31   ar
    91    32    34   ar
    92    18    20   ar
    93    18    17   ar
    94    16    17    1
    95     3    12   am
    96     3     2    1
    97   112   113    2
    98   142   140    1
    99    20    22   ar
   100    31    33   ar
   101    17    19   ar
   102    11     9   ar
   103    11    10   ar
   104     9     7   ar
   105    34    33   ar
   106     2     1    1
   107     2     5    1
   108    10     8   ar
   109     7     6   ar
   110   140   139    1
   111   134   132   am
   112     8     6   ar
   113     6     5    1
   114   133   132    2
   115    22    23    1
   116    22    21   ar
   117    19    21   ar
   118   132   131    1
   119   141   139    1
   120   139   136    1
   121   131   128    1
   122   138   137    2
   123   125   124   ar
   124   136   137    1
   125   136   135    1
   126   123   124    1
   127   123   122    1
   128   128   127    1
   129   128   129    1
   130   124   126   ar
   131   122   119    1
   132   121   120    2
   133   127   120   am
   134   120   119    1
   135   130   129    2
   136   119   118    1
