@<TRIPOS>MOLECULE
tmp/4pyaA00.pdb
 83 81 0 0 0
SMALL
GASTEIGER

@<TRIPOS>ATOM
      1  N        -50.2660   19.9650  195.1740 N.3    48  TRP48      -0.1241
      2  CA       -49.0450   19.2160  194.8920 C.3    48  TRP48       0.1605
      3  C        -48.2270   19.0020  196.1590 C.2    48  TRP48       0.2264
      4  O        -47.4640   18.0390  196.2770 O.2    48  TRP48      -0.2867
      5  CB       -48.2020   19.9490  193.8430 C.3    48  TRP48       0.0550
      6  CG       -47.7880   21.3230  194.2870 C.ar   48  TRP48       0.0003
      7  CD1      -48.4690   22.4850  194.0780 C.ar   48  TRP48       0.0946
      8  CD2      -46.6140   21.6780  195.0410 C.ar   48  TRP48       0.0152
      9  NE1      -47.8000   23.5370  194.6500 N.ar   48  TRP48      -0.2442
     10  CE2      -46.6570   23.0710  195.2440 C.ar   48  TRP48       0.0810
     11  CE3      -45.5370   20.9530  195.5630 C.ar   48  TRP48       0.0012
     12  CZ2      -45.6630   23.7560  195.9430 C.ar   48  TRP48       0.0191
     13  CZ3      -44.5460   21.6370  196.2570 C.ar   48  TRP48       0.0001
     14  CH2      -44.6170   23.0250  196.4390 C.ar   48  TRP48       0.0015
     15  N        -47.9670   12.2670  195.5540 N.3    53  LEU53      -0.1231
     16  CA       -47.6450   11.9120  194.1820 C.3    53  LEU53       0.1693
     17  C        -48.1770   12.9080  193.1480 C.2    53  LEU53       0.2592
     18  O        -47.9400   12.7430  191.9500 O.2    53  LEU53      -0.2718
     19  CB       -48.1700   10.5120  193.8650 C.3    53  LEU53       0.0284
     20  CG       -47.2230    9.3350  194.1330 C.3    53  LEU53       0.0019
     21  CD1      -46.6840    9.3490  195.5470 C.3    53  LEU53       0.0001
     22  CD2      -47.9300    8.0140  193.8470 C.3    53  LEU53       0.0001
     23  N        -48.8810   13.9430  193.5950 N.am   54  CYS54      -0.1956
     24  CA       -49.3840   14.9450  192.6530 C.3    54  CYS54       0.1843
     25  C        -48.2570   15.7960  192.1000 C.2    54  CYS54       0.2625
     26  O        -47.2600   16.0320  192.7750 O.2    54  CYS54      -0.2714
     27  CB       -50.4330   15.8480  193.3150 C.3    54  CYS54       0.0997
     28  SG       -52.0700   15.1120  193.3840 S.3    54  CYS54      -0.0797
     29  N        -48.4090   16.2450  190.8570 N.am   55  HIS55      -0.1973
     30  CA       -47.4050   17.0930  190.2220 C.3    55  HIS55       0.1656
     31  C        -47.6430   18.5710  190.4950 C.2    55  HIS55       0.2291
     32  O        -48.7860   19.0130  190.5720 O.2    55  HIS55      -0.2864
     33  CB       -47.3910   16.8840  188.6990 C.3    55  HIS55       0.0771
     34  CG       -47.1880   15.4670  188.2710 C.ar   55  HIS55       0.0820
     35  ND1      -46.2020   14.6620  188.7970 N.ar   55  HIS55      -0.2267
     36  CD2      -47.8270   14.7180  187.3420 C.ar   55  HIS55       0.1154
     37  CE1      -46.2520   13.4730  188.2220 C.ar   55  HIS55       0.1986
     38  NE2      -47.2290   13.4820  187.3330 N.ar   55  HIS55      -0.2212
     39  N        -48.3370   22.1650  189.3540 N.3    57  LEU57      -0.1245
     40  CA       -48.9860   22.6430  188.1440 C.3    57  LEU57       0.1561
     41  C        -49.1990   24.1410  188.2430 C.2    57  LEU57       0.2260
     42  O        -49.1500   24.7060  189.3280 O.2    57  LEU57      -0.2867
     43  CB       -50.3300   21.9470  187.9410 C.3    57  LEU57       0.0270
     44  CG       -50.3740   20.4270  187.9210 C.3    57  LEU57       0.0019
     45  CD1      -51.8170   19.9460  187.9600 C.3    57  LEU57       0.0001
     46  CD2      -49.6600   19.9220  186.6910 C.3    57  LEU57       0.0001
     47  N        -51.2880   17.8140  182.4470 N.3    87  THR87      -0.1203
     48  CA       -51.7720   17.0890  183.6150 C.3    87  THR87       0.1994
     49  C        -53.1160   17.6420  184.0750 C.2    87  THR87       0.2618
     50  O        -53.3100   18.8590  184.1130 O.2    87  THR87      -0.2717
     51  CB       -50.7490   17.1650  184.7610 C.3    87  THR87       0.1784
     52  OG1      -49.4950   16.6430  184.3060 O.3    87  THR87      -0.2211
     53  CG2      -51.2180   16.3780  185.9820 C.3    87  THR87       0.0376
     54  N        -54.0450   16.7460  184.4090 N.am   88  GLY88      -0.1956
     55  CA       -55.3750   17.1340  184.8540 C.3    88  GLY88       0.1869
     56  C        -55.4170   17.7250  186.2540 C.2    88  GLY88       0.2309
     57  O        -54.4160   17.7340  186.9800 O.2    88  GLY88      -0.2863
     58  N        -58.1100   17.1440  188.6570 N.3    90  GLU90      -0.1231
     59  CA       -59.1030   16.5150  189.5290 C.3    90  GLU90       0.1699
     60  C        -58.7600   16.6740  190.9930 C.2    90  GLU90       0.2592
     61  O        -59.6350   16.9530  191.8260 O.2    90  GLU90      -0.2718
     62  CB       -59.2330   15.0190  189.2280 C.3    90  GLU90       0.0402
     63  CG       -59.8260   14.7150  187.8740 C.3    90  GLU90       0.1161
     64  CD       -58.8310   14.9120  186.7490 C.2    90  GLU90       0.3649
     65  OE1      -57.6260   14.6120  186.9470 O.co2  90  GLU90      -0.2457
     66  OE2      -59.2550   15.3810  185.6730 O.co2  90  GLU90      -0.2457
     67  N        -57.4970   16.4450  191.3370 N.am   91  MET91      -0.1965
     68  CA       -57.1480   16.5020  192.7700 C.3    91  MET91       0.1736
     69  C        -57.2120   17.9360  193.3010 C.2    91  MET91       0.2616
     70  O        -57.5290   18.1560  194.4680 O.2    91  MET91      -0.2715
     71  CB       -55.7740   15.8940  193.0220 C.3    91  MET91       0.0427
     72  CG       -55.6800   14.4000  192.6670 C.3    91  MET91       0.0599
     73  SD       -57.1070   13.4750  193.3500 S.3    91  MET91      -0.1393
     74  CE       -57.1180   13.9300  195.0780 C.3    91  MET91       0.0692
     75  N        -56.9140   18.9070  192.4520 N.am   92  GLU92      -0.1977
     76  CA       -57.0330   20.3040  192.8580 C.3    92  GLU92       0.1602
     77  C        -58.4860   20.6360  193.1770 C.2    92  GLU92       0.2287
     78  O        -58.7930   21.2900  194.1710 O.2    92  GLU92      -0.2864
     79  CB       -56.5030   21.2260  191.7470 C.3    92  GLU92       0.0415
     80  CG       -54.9820   21.3570  191.6900 C.3    92  GLU92       0.1163
     81  CD       -54.2490   20.0900  191.2770 C.2    92  GLU92       0.3649
     82  OE1      -54.8730   19.1740  190.6760 O.co2  92  GLU92      -0.2457
     83  OE2      -53.0240   20.0290  191.5470 O.co2  92  GLU92      -0.2457
@<TRIPOS>BOND
     1    47    48    1
     2    48    49    1
     3    48    51    1
     4    49    50    2
     5    49    54   am
     6    52    51    1
     7    54    55    1
     8    51    53    1
     9    55    56    1
    10    66    64   ar
    11    56    57    2
    12    46    44    1
    13    64    65   ar
    14    64    63    1
    15    38    36   ar
    16    38    37   ar
    17    36    34   ar
    18    63    62    1
    19    44    43    1
    20    44    45    1
    21    43    40    1
    22    40    41    1
    23    40    39    1
    24    37    35   ar
    25    41    42    2
    26    34    33    1
    27    34    35   ar
    28    58    59    1
    29    33    30    1
    30    62    59    1
    31    59    60    1
    32    30    31    1
    33    30    29    1
    34    31    32    2
    35    82    81   ar
    36    29    25   am
    37    60    67   am
    38    60    61    2
    39    81    83   ar
    40    81    80    1
    41    67    68    1
    42    80    79    1
    43    79    76    1
    44    18    17    2
    45    25    24    1
    46    25    26    2
    47    75    76    1
    48    75    69   am
    49    24    27    1
    50    24    23    1
    51    72    71    1
    52    72    73    1
    53    68    71    1
    54    68    69    1
    55    76    77    1
    56    17    23   am
    57    17    16    1
    58    77    78    2
    59    69    70    2
    60    27    28    1
    61    73    74    1
    62     5     6    1
    63     5     2    1
    64    22    20    1
    65    19    20    1
    66    19    16    1
    67     7     6   ar
    68     7     9   ar
    69    20    21    1
    70    16    15    1
    71     6     8   ar
    72     9    10   ar
    73     2     1    1
    74     2     3    1
    75     8    10   ar
    76     8    11   ar
    77    10    12   ar
    78    11    13   ar
    79    12    14   ar
    80     3     4    2
    81    13    14   ar
