@<TRIPOS>MOLECULE
tmp/4pydE00.pdb
 126 120 0 0 0
SMALL
GASTEIGER

@<TRIPOS>ATOM
      1  N         -0.8120   -5.0110   34.4370 N.3     8  VAL8       -0.1245
      2  CA         0.5980   -4.8810   34.7950 C.3     8  VAL8        0.1561
      3  C          1.5010   -5.5210   33.7520 C.2     8  VAL8        0.2260
      4  O          1.2660   -6.6460   33.3270 O.2     8  VAL8       -0.2867
      5  CB         0.9050   -5.5180   36.1620 C.3     8  VAL8        0.0252
      6  CG1        2.3920   -5.4320   36.4590 C.3     8  VAL8        0.0019
      7  CG2        0.1050   -4.8350   37.2670 C.3     8  VAL8        0.0019
      8  N          4.5020   -7.5300   32.5520 N.3    10  VAL10      -0.1245
      9  CA         5.3370   -8.5620   33.1530 C.3    10  VAL10       0.1561
     10  C          6.4990   -8.9990   32.2830 C.2    10  VAL10       0.2260
     11  O          7.1470   -9.9970   32.5900 O.2    10  VAL10      -0.2867
     12  CB         4.5170   -9.8150   33.4900 C.3    10  VAL10       0.0252
     13  CG1        3.4420   -9.4840   34.5070 C.3    10  VAL10       0.0019
     14  CG2        3.9180  -10.3990   32.2250 C.3    10  VAL10       0.0019
     15  N         10.2570   -9.5950   33.8090 N.3    13  LYS13      -0.1245
     16  CA        10.4570  -10.5470   34.9050 C.3    13  LYS13       0.1561
     17  C         11.2360  -11.8020   34.4970 C.2    13  LYS13       0.2260
     18  O         11.2710  -12.1690   33.3190 O.2    13  LYS13      -0.2867
     19  CB         9.0950  -10.9420   35.4580 C.3    13  LYS13       0.0271
     20  CG         8.3680   -9.7830   36.1110 C.3    13  LYS13       0.0035
     21  CD         6.9540  -10.1530   36.5260 C.3    13  LYS13       0.0206
     22  CE         6.3340   -9.0670   37.3750 C.3    13  LYS13       0.1093
     23  NZ         7.0600   -8.9510   38.6710 N.3    13  LYS13      -0.1314
     24  N          7.0600  -20.6720   40.5940 N.3    18  ARG18      -0.1245
     25  CA         6.1900  -19.9190   41.4830 C.3    18  ARG18       0.1563
     26  C          5.1190  -20.8670   41.9980 C.2    18  ARG18       0.2260
     27  O          4.8320  -21.8830   41.3690 O.2    18  ARG18      -0.2867
     28  CB         5.5780  -18.7290   40.7560 C.3    18  ARG18       0.0307
     29  CG         6.6170  -17.7620   40.2160 C.3    18  ARG18       0.0489
     30  CD         5.9800  -16.8090   39.2240 C.3    18  ARG18       0.2205
     31  NE         6.9220  -15.8570   38.6390 N.pl3  18  ARG18      -0.0865
     32  CZ         7.1260  -14.6240   39.0960 C.cat  18  ARG18       0.5346
     33  NH1        6.4460  -14.1830   40.1460 N.pl3  18  ARG18       0.1354
     34  NH2        8.0010  -13.8250   38.4960 N.pl3  18  ARG18       0.1354
     35  N         -7.5270  -16.4710   33.7000 N.3    55  TRP55      -0.1241
     36  CA        -7.2420  -15.3290   32.8370 C.3    55  TRP55       0.1605
     37  C         -8.4980  -14.8840   32.1060 C.2    55  TRP55       0.2264
     38  O         -8.6080  -13.7400   31.6640 O.2    55  TRP55      -0.2867
     39  CB        -6.1340  -15.6580   31.8330 C.3    55  TRP55       0.0550
     40  CG        -6.4410  -16.8410   30.9870 C.ar   55  TRP55       0.0003
     41  CD1       -6.1050  -18.1420   31.2430 C.ar   55  TRP55       0.0946
     42  CD2       -7.1740  -16.8520   29.7590 C.ar   55  TRP55       0.0152
     43  NE1       -6.5830  -18.9590   30.2500 N.ar   55  TRP55      -0.2442
     44  CE2       -7.2440  -18.1930   29.3250 C.ar   55  TRP55       0.0810
     45  CE3       -7.7710  -15.8600   28.9780 C.ar   55  TRP55       0.0012
     46  CZ2       -7.8860  -18.5640   28.1430 C.ar   55  TRP55       0.0191
     47  CZ3       -8.4130  -16.2360   27.8080 C.ar   55  TRP55       0.0001
     48  CH2       -8.4640  -17.5770   27.4040 C.ar   55  TRP55       0.0015
     49  N         -8.2190   -8.6670   34.4340 N.3    60  LEU60      -0.1231
     50  CA        -6.8740   -8.1280   34.2860 C.3    60  LEU60       0.1693
     51  C         -5.7830   -9.1620   34.4820 C.2    60  LEU60       0.2592
     52  O         -4.6130   -8.8030   34.5480 O.2    60  LEU60      -0.2718
     53  CB        -6.6580   -6.9760   35.2640 C.3    60  LEU60       0.0284
     54  CG        -6.9610   -5.5600   34.7630 C.3    60  LEU60       0.0019
     55  CD1       -8.3290   -5.4500   34.1160 C.3    60  LEU60       0.0001
     56  CD2       -6.8480   -4.5650   35.9150 C.3    60  LEU60       0.0001
     57  N         -6.1510  -10.4390   34.5530 N.am   61  CYS61      -0.1956
     58  CA        -5.1580  -11.4960   34.6950 C.3    61  CYS61       0.1843
     59  C         -4.5250  -11.9080   33.3780 C.2    61  CYS61       0.2625
     60  O         -5.1030  -11.7420   32.2990 O.2    61  CYS61      -0.2714
     61  CB        -5.7620  -12.7310   35.3630 C.3    61  CYS61       0.0997
     62  SG        -5.7530  -12.7040   37.1620 S.3    61  CYS61      -0.0797
     63  N         -3.3100  -12.4350   33.4910 N.am   62  HIS62      -0.1973
     64  CA        -2.5550  -12.9190   32.3480 C.3    62  HIS62       0.1656
     65  C         -2.8960  -14.3390   31.9650 C.2    62  HIS62       0.2291
     66  O         -3.1500  -15.1670   32.8280 O.2    62  HIS62      -0.2864
     67  CB        -1.0460  -12.8490   32.6270 C.3    62  HIS62       0.0771
     68  CG        -0.5260  -11.4590   32.7790 C.ar   62  HIS62       0.0820
     69  ND1       -0.9090  -10.6310   33.8090 N.ar   62  HIS62      -0.2267
     70  CD2        0.2910  -10.7260   31.9860 C.ar   62  HIS62       0.1154
     71  CE1       -0.3220   -9.4560   33.6640 C.ar   62  HIS62       0.1986
     72  NE2        0.4040   -9.4850   32.5600 N.ar   62  HIS62      -0.2212
     73  N         -1.8130  -17.8410   31.4670 N.3    64  LEU64      -0.1245
     74  CA        -0.6600  -18.5270   32.0320 C.3    64  LEU64       0.1561
     75  C         -0.7010  -20.0130   31.6930 C.2    64  LEU64       0.2260
     76  O         -1.7650  -20.5610   31.4270 O.2    64  LEU64      -0.2867
     77  CB        -0.6240  -18.3430   33.5460 C.3    64  LEU64       0.0270
     78  CG        -0.5660  -16.8890   33.9990 C.3    64  LEU64       0.0019
     79  CD1       -0.5560  -16.8090   35.5260 C.3    64  LEU64       0.0001
     80  CD2        0.6420  -16.2030   33.3790 C.3    64  LEU64       0.0001
     81  N          6.7170  -16.0280   34.5290 N.3    93  LYS93      -0.1231
     82  CA         6.9490  -14.6600   34.9690 C.3    93  LYS93       0.1693
     83  C          5.8490  -14.1880   35.9030 C.2    93  LYS93       0.2593
     84  O          5.9590  -13.1160   36.4930 O.2    93  LYS93      -0.2718
     85  CB         7.0040  -13.7160   33.7750 C.3    93  LYS93       0.0285
     86  CG         8.0640  -14.0350   32.7480 C.3    93  LYS93       0.0035
     87  CD         8.0130  -13.0290   31.6010 C.3    93  LYS93       0.0206
     88  CE         9.1470  -13.2510   30.6280 C.3    93  LYS93       0.1093
     89  NZ        10.3820  -13.6940   31.3320 N.3    93  LYS93      -0.1314
     90  N          4.8000  -14.9950   36.0590 N.am   94  THR94      -0.1939
     91  CA         3.6310  -14.5670   36.8290 C.3    94  THR94       0.2028
     92  C          3.2290  -15.5450   37.9050 C.2    94  THR94       0.2642
     93  O          3.1110  -16.7310   37.6260 O.2    94  THR94      -0.2714
     94  CB         2.3800  -14.3780   35.9310 C.3    94  THR94       0.1808
     95  OG1        2.6750  -13.5170   34.8180 O.3    94  THR94      -0.2208
     96  CG2        1.2180  -13.8080   36.7590 C.3    94  THR94       0.0379
     97  N          2.9850  -15.0420   39.1160 N.am   95  GLY95      -0.1954
     98  CA         2.5420  -15.8660   40.2260 C.3    95  GLY95       0.1869
     99  C          1.1630  -16.4350   39.9500 C.2    95  GLY95       0.2309
    100  O          0.4810  -16.0400   39.0040 O.2    95  GLY95      -0.2863
    101  N         -1.5000  -16.7340   42.2740 N.3    97  GLU97      -0.1231
    102  CA        -2.3740  -16.4440   43.4050 C.3    97  GLU97       0.1699
    103  C         -3.8450  -16.5430   43.0160 C.2    97  GLU97       0.2592
    104  O         -4.6230  -17.2310   43.6670 O.2    97  GLU97      -0.2718
    105  CB        -2.0440  -15.0550   43.9310 C.3    97  GLU97       0.0402
    106  CG        -0.5820  -14.9550   44.3070 C.3    97  GLU97       0.1161
    107  CD        -0.1860  -13.5570   44.6490 C.2    97  GLU97       0.3649
    108  OE1       -0.9770  -12.6560   44.3130 O.co2  97  GLU97      -0.2457
    109  OE2        0.9400  -13.3450   45.1530 O.co2  97  GLU97      -0.2457
    110  N         -4.2140  -15.8740   41.9320 N.am   98  MET98      -0.1965
    111  CA        -5.6060  -15.8390   41.5120 C.3    98  MET98       0.1736
    112  C         -6.1400  -17.1850   41.0950 C.2    98  MET98       0.2616
    113  O         -7.3320  -17.4550   41.2770 O.2    98  MET98      -0.2715
    114  CB        -5.8030  -14.8320   40.3930 C.3    98  MET98       0.0427
    115  CG        -5.4130  -13.4460   40.8180 C.3    98  MET98       0.0599
    116  SD        -6.0740  -13.1470   42.4760 S.3    98  MET98      -0.1393
    117  CE        -7.8110  -12.9810   42.1190 C.3    98  MET98       0.0692
    118  N         -5.2660  -18.0080   40.5180 N.am   99  GLU99      -0.1977
    119  CA        -5.6290  -19.3520   40.0950 C.3    99  GLU99       0.1602
    120  C         -6.0730  -20.2030   41.2930 C.2    99  GLU99       0.2287
    121  O         -7.0660  -20.9210   41.2240 O.2    99  GLU99      -0.2864
    122  CB        -4.4570  -20.0390   39.3870 C.3    99  GLU99       0.0415
    123  CG        -4.2430  -19.6870   37.9300 C.3    99  GLU99       0.1163
    124  CD        -3.7710  -18.2740   37.7240 C.2    99  GLU99       0.3649
    125  OE1       -3.2300  -17.6890   38.6760 O.co2  99  GLU99      -0.2457
    126  OE2       -3.9140  -17.7490   36.6010 O.co2  99  GLU99      -0.2457
@<TRIPOS>BOND
     1    48    47   ar
     2    48    46   ar
     3    47    45   ar
     4    46    44   ar
     5    45    42   ar
     6    44    42   ar
     7    44    43   ar
     8    42    40   ar
     9    43    41   ar
    10    88    89    1
    11    88    87    1
    12    40    41   ar
    13    40    39    1
    14    76    75    2
    15    73    74    1
    16    87    86    1
    17    38    37    2
    18    75    74    1
    19    39    36    1
    20    65    64    1
    21    65    66    2
    22    70    72   ar
    23    70    68   ar
    24    74    77    1
    25    37    36    1
    26    14    12    1
    27    10    11    2
    28    10     9    1
    29    60    59    2
    30    64    67    1
    31    64    63    1
    32     8     9    1
    33    72    71   ar
    34    67    68    1
    35    86    85    1
    36    68    69   ar
    37    36    35    1
    38     9    12    1
    39    18    17    2
    40     4     3    2
    41    59    63   am
    42    59    58    1
    43    80    78    1
    44    12    13    1
    45    77    78    1
    46    71    69   ar
    47     3     2    1
    48    85    82    1
    49    15    16    1
    50    78    79    1
    51    55    54    1
    52    50    49    1
    53    50    51    1
    54    50    53    1
    55     1     2    1
    56    51    52    2
    57    51    57   am
    58    17    16    1
    59    81    82    1
    60    57    58    1
    61    58    61    1
    62    54    53    1
    63    54    56    1
    64     2     5    1
    65    95    94    1
    66    16    19    1
    67    82    83    1
    68    61    62    1
    69    19    20    1
    70    83    90   am
    71    83    84    2
    72    94    96    1
    73    94    91    1
    74    90    91    1
    75    20    21    1
    76     5     6    1
    77     5     7    1
    78    21    22    1
    79   126   124   ar
    80    91    92    1
    81    22    23    1
    82    93    92    2
    83   124   123    1
    84   124   125   ar
    85    92    97   am
    86   123   122    1
    87    34    32    1
    88    31    32    2
    89    31    30    1
    90   100    99    2
    91    32    33    1
    92    97    98    1
    93    30    29    1
    94   122   119    1
    95    99    98    1
    96   119   118    1
    97   119   120    1
    98    29    28    1
    99   114   115    1
   100   114   111    1
   101   118   112   am
   102    24    25    1
   103    28    25    1
   104   115   116    1
   105   112   113    2
   106   112   111    1
   107   121   120    2
   108    27    26    2
   109    25    26    1
   110   111   110    1
   111   110   103   am
   112   117   116    1
   113   101   102    1
   114   103   102    1
   115   103   104    2
   116   102   105    1
   117   105   106    1
   118   106   107    1
   119   108   107   ar
   120   107   109   ar
