@<TRIPOS>MOLECULE
tmp/4pygB00.pdb
 138 135 0 0 0
SMALL
GASTEIGER

@<TRIPOS>ATOM
      1  N         29.6160  -45.5620   16.4350 N.3   168  SER168     -0.1217
      2  CA        30.7730  -44.8820   15.8490 C.3   168  SER168      0.1889
      3  C         32.0620  -45.7320   15.8570 C.2   168  SER168      0.2288
      4  O         32.3160  -46.4570   16.8270 O.2   168  SER168     -0.2866
      5  CB        30.9960  -43.5760   16.6000 C.3   168  SER168      0.2089
      6  OG        31.9670  -42.7920   15.9510 O.3   168  SER168     -0.2183
      7  N         34.7970  -45.3700   16.8500 N.3   170  LYS170     -0.1231
      8  CA        35.4850  -45.1940   18.1280 C.3   170  LYS170      0.1693
      9  C         34.6110  -45.6210   19.3130 C.2   170  LYS170      0.2592
     10  O         35.1160  -45.7870   20.4200 O.2   170  LYS170     -0.2718
     11  CB        35.8780  -43.7160   18.3120 C.3   170  LYS170      0.0285
     12  CG        37.2810  -43.2660   17.8280 C.3   170  LYS170      0.0035
     13  CD        38.3870  -43.6760   18.8320 C.3   170  LYS170      0.0206
     14  CE        39.6180  -42.7840   18.7550 C.3   170  LYS170      0.1093
     15  NZ        40.2350  -42.8150   17.4090 N.3   170  LYS170     -0.1314
     16  N         33.3010  -45.7610   19.1020 N.am  171  PHE171     -0.1976
     17  CA        32.3860  -46.2320   20.1540 C.3   171  PHE171      0.1639
     18  C         31.3340  -47.1110   19.5130 C.2   171  PHE171      0.2290
     19  O         30.2260  -46.6280   19.1980 O.2   171  PHE171     -0.2864
     20  CB        31.7130  -45.0630   20.8800 C.3   171  PHE171      0.0560
     21  CG        31.0590  -45.4510   22.1920 C.ar  171  PHE171     -0.0200
     22  CD1       31.8170  -45.5900   23.3590 C.ar  171  PHE171     -0.0042
     23  CD2       29.6800  -45.6820   22.2640 C.ar  171  PHE171     -0.0042
     24  CE1       31.2120  -45.9520   24.5610 C.ar  171  PHE171     -0.0003
     25  CE2       29.0710  -46.0580   23.4570 C.ar  171  PHE171     -0.0003
     26  CZ        29.8350  -46.1930   24.6020 C.ar  171  PHE171     -0.0000
     27  N         44.0190  -34.6180   17.6300 N.3   473  ARG473     -0.1231
     28  CA        42.9100  -35.5500   17.5770 C.3   473  ARG473      0.1694
     29  C         41.8790  -34.9810   18.5220 C.2   473  ARG473      0.2592
     30  O         42.2280  -34.2120   19.4340 O.2   473  ARG473     -0.2718
     31  CB        43.3440  -36.9510   18.0280 C.3   473  ARG473      0.0321
     32  CG        43.6890  -37.0730   19.5090 C.3   473  ARG473      0.0489
     33  CD        44.8150  -38.0660   19.7080 C.3   473  ARG473      0.2205
     34  NE        44.9520  -38.4930   21.1050 N.pl3 473  ARG473     -0.0865
     35  CZ        45.5760  -37.8020   22.0610 C.cat 473  ARG473      0.5346
     36  NH1       45.6420  -38.2750   23.3070 N.pl3 473  ARG473      0.1354
     37  NH2       46.1230  -36.6310   21.7780 N.pl3 473  ARG473      0.1354
     38  N         40.6170  -35.3380   18.3060 N.am  474  ILE474     -0.1966
     39  CA        39.5790  -34.9570   19.2510 C.3   474  ILE474      0.1727
     40  C         39.4340  -35.9920   20.3370 C.2   474  ILE474      0.2616
     41  O         39.5030  -37.2040   20.0900 O.2   474  ILE474     -0.2715
     42  CB        38.2070  -34.6980   18.5950 C.3   474  ILE474      0.0290
     43  CG1       38.2600  -33.4510   17.7190 C.3   474  ILE474      0.0022
     44  CG2       37.1280  -34.4820   19.6580 C.3   474  ILE474      0.0023
     45  CD1       38.4230  -33.7570   16.2780 C.3   474  ILE474      0.0001
     46  N         39.2200  -35.4880   21.5440 N.am  475  ARG475     -0.1963
     47  CA        39.0690  -36.3230   22.7190 C.3   475  ARG475      0.1729
     48  C         37.6940  -36.1030   23.3790 C.2   475  ARG475      0.2616
     49  O         37.1520  -35.0010   23.3360 O.2   475  ARG475     -0.2715
     50  CB        40.2390  -36.0540   23.6860 C.3   475  ARG475      0.0348
     51  CG        41.5720  -36.6850   23.2450 C.3   475  ARG475      0.0492
     52  CD        42.7180  -36.4040   24.2250 C.3   475  ARG475      0.2205
     53  NE        42.2220  -36.1450   25.5830 N.pl3 475  ARG475     -0.0865
     54  CZ        42.2020  -37.0340   26.5720 C.cat 475  ARG475      0.5346
     55  NH1       42.6840  -38.2550   26.3660 N.pl3 475  ARG475      0.1354
     56  NH2       41.6990  -36.6940   27.7600 N.pl3 475  ARG475      0.1354
     57  N         37.1450  -37.1570   23.9770 N.am  476  VAL476     -0.1963
     58  CA        35.8630  -37.0750   24.6960 C.3   476  VAL476      0.1727
     59  C         35.9720  -37.1050   26.2300 C.2   476  VAL476      0.2617
     60  O         35.1380  -36.5060   26.9200 O.2   476  VAL476     -0.2715
     61  CB        34.8640  -38.1520   24.2350 C.3   476  VAL476      0.0290
     62  CG1       34.3790  -37.8520   22.8180 C.3   476  VAL476      0.0023
     63  CG2       35.5040  -39.5040   24.2830 C.3   476  VAL476      0.0023
     64  N         36.9950  -37.7860   26.7570 N.am  477  GLY477     -0.1940
     65  CA        37.1890  -37.8970   28.2160 C.3   477  GLY477      0.2014
     66  C         36.4930  -39.1210   28.7940 C.2   477  GLY477      0.2639
     67  O         37.1180  -40.1780   28.9820 O.2   477  GLY477     -0.2714
     68  N         35.1960  -38.9880   29.0760 N.am  478  GLN478     -0.1963
     69  CA        34.3710  -40.1780   29.2740 C.3   478  GLN478      0.1733
     70  C         33.2690  -40.3070   28.2160 C.2   478  GLN478      0.2617
     71  O         33.3300  -39.6730   27.1570 O.2   478  GLN478     -0.2715
     72  CB        33.8240  -40.3050   30.7180 C.3   478  GLN478      0.0408
     73  CG        32.8030  -39.2630   31.1380 C.3   478  GLN478      0.0908
     74  CD        33.4120  -37.8770   31.2130 C.2   478  GLN478      0.2608
     75  OE1       34.2330  -37.5940   32.0880 O.2   478  GLN478     -0.2717
     76  NE2       33.0330  -37.0100   30.2690 N.am  478  GLN478     -0.0878
     77  N         32.3190  -41.1970   28.5240 N.am  479  SER479     -0.1936
     78  CA        31.1130  -41.4930   27.7620 C.3   479  SER479      0.2055
     79  C         30.0740  -40.4370   28.1270 C.2   479  SER479      0.2642
     80  O         30.0560  -39.9380   29.2650 O.2   479  SER479     -0.2714
     81  CB        30.6290  -42.9020   28.1300 C.3   479  SER479      0.2130
     82  OG        29.3700  -43.2180   27.5850 O.3   479  SER479     -0.2179
     83  N         29.2430  -40.0780   27.1470 N.am  480  MET480     -0.1976
     84  CA        28.2780  -38.9940   27.3010 C.3   480  MET480      0.1605
     85  C         26.8990  -39.3670   26.7910 C.2   480  MET480      0.2287
     86  O         26.7380  -39.9490   25.7120 O.2   480  MET480     -0.2864
     87  CB        28.7690  -37.7030   26.6310 C.3   480  MET480      0.0413
     88  CG        28.4180  -37.5480   25.1750 C.3   480  MET480      0.0598
     89  SD        29.3790  -38.5810   24.0590 S.3   480  MET480     -0.1393
     90  CE        31.0110  -37.8390   24.2120 C.3   480  MET480      0.0692
     91  N         35.8970  -36.3560   14.2730 N.3   577  ARG577     -0.1231
     92  CA        35.5040  -37.4830   15.1060 C.3   577  ARG577      0.1694
     93  C         33.9800  -37.4520   15.2150 C.2   577  ARG577      0.2592
     94  O         33.3880  -36.3850   15.4300 O.2   577  ARG577     -0.2718
     95  CB        36.1070  -37.3470   16.5100 C.3   577  ARG577      0.0321
     96  CG        36.1730  -38.6630   17.3050 C.3   577  ARG577      0.0489
     97  CD        36.4470  -38.4480   18.7760 C.3   577  ARG577      0.2205
     98  NE        36.1410  -39.6510   19.5430 N.pl3 577  ARG577     -0.0865
     99  CZ        37.0270  -40.3690   20.2320 C.cat 577  ARG577      0.5346
    100  NH1       38.2920  -40.0060   20.3110 N.pl3 577  ARG577      0.1354
    101  NH2       36.6330  -41.4520   20.8770 N.pl3 577  ARG577      0.1354
    102  N         33.3440  -38.6090   15.0500 N.am  578  ASP578     -0.1960
    103  CA        31.8960  -38.7010   15.2620 C.3   578  ASP578      0.1840
    104  C         31.6060  -39.1670   16.6750 C.2   578  ASP578      0.2622
    105  O         32.1970  -40.1180   17.1600 O.2   578  ASP578     -0.2715
    106  CB        31.2370  -39.6490   14.2690 C.3   578  ASP578      0.1450
    107  CG        31.3920  -39.1970   12.8440 C.2   578  ASP578      0.3671
    108  OD1       30.9730  -38.0630   12.5000 O.co2 578  ASP578     -0.2456
    109  OD2       31.9270  -39.9980   12.0560 O.co2 578  ASP578     -0.2456
    110  N         30.7040  -38.4750   17.3460 N.am  579  LEU579     -0.1963
    111  CA        30.3250  -38.8720   18.6720 C.3   579  LEU579      0.1728
    112  C         29.0350  -39.6450   18.5850 C.2   579  LEU579      0.2616
    113  O         28.1760  -39.3640   17.7410 O.2   579  LEU579     -0.2715
    114  CB        30.1250  -37.6600   19.5500 C.3   579  LEU579      0.0311
    115  CG        31.2990  -36.7130   19.6620 C.3   579  LEU579      0.0022
    116  CD1       31.0030  -35.8080   20.8290 C.3   579  LEU579      0.0001
    117  CD2       32.6260  -37.4100   19.8760 C.3   579  LEU579      0.0001
    118  N         28.9080  -40.6400   19.4530 N.am  580  TYR580     -0.1974
    119  CA        27.6500  -41.3530   19.5890 C.3   580  TYR580      0.1639
    120  C         27.1230  -40.9870   20.9460 C.2   580  TYR580      0.2290
    121  O         27.8360  -41.1010   21.9370 O.2   580  TYR580     -0.2864
    122  CB        27.8490  -42.8640   19.5130 C.3   580  TYR580      0.0560
    123  CG        26.5950  -43.5870   19.8780 C.ar  580  TYR580     -0.0198
    124  CD1       25.6230  -43.8340   18.9140 C.ar  580  TYR580     -0.0009
    125  CD2       26.3440  -43.9740   21.1860 C.ar  580  TYR580     -0.0009
    126  CE1       24.4440  -44.4630   19.2260 C.ar  580  TYR580      0.0417
    127  CE2       25.1570  -44.6160   21.5170 C.ar  580  TYR580      0.0417
    128  CZ        24.2110  -44.8600   20.5220 C.ar  580  TYR580      0.1957
    129  OH        23.0260  -45.4950   20.8020 O.3   580  TYR580     -0.2866
    130  N         24.8780  -41.7740   24.1020 N.3   582  GLU582     -0.1245
    131  CA        24.2130  -42.9650   24.6330 C.3   582  GLU582      0.1567
    132  C         22.7910  -42.7830   25.0890 C.2   582  GLU582      0.2260
    133  O         22.4770  -41.8630   25.8410 O.2   582  GLU582     -0.2867
    134  CB        25.0160  -43.6520   25.7160 C.3   582  GLU582      0.0388
    135  CG        26.0180  -44.5620   25.0880 C.3   582  GLU582      0.1160
    136  CD        25.9000  -45.9640   25.5790 C.2   582  GLU582      0.3649
    137  OE1       24.8890  -46.6260   25.2610 O.co2 582  GLU582     -0.2457
    138  OE2       26.8320  -46.4070   26.2780 O.co2 582  GLU582     -0.2457
@<TRIPOS>BOND
     1   109   107   ar
     2   108   107   ar
     3   107   106    1
     4   106   103    1
     5    91    92    1
     6   102    93   am
     7   102   103    1
     8    92    93    1
     9    92    95    1
    10    93    94    2
    11   103   104    1
    12     2     3    1
    13     2     1    1
    14     2     5    1
    15     3     4    2
    16     6     5    1
    17    45    43    1
    18    95    96    1
    19   104   105    2
    20   104   110   am
    21     7     8    1
    22    96    97    1
    23   110   111    1
    24    15    14    1
    25    28    27    1
    26    28    31    1
    27    28    29    1
    28    43    42    1
    29   113   112    2
    30    12    11    1
    31    12    13    1
    32    31    32    1
    33     8    11    1
    34     8     9    1
    35    38    29   am
    36    38    39    1
    37    29    30    2
    38   112   111    1
    39   112   118   am
    40    42    39    1
    41    42    44    1
    42   111   114    1
    43    14    13    1
    44    97    98    1
    45   124   126   ar
    46   124   123   ar
    47    16     9   am
    48    16    17    1
    49    19    18    2
    50   126   128   ar
    51    39    40    1
    52     9    10    2
    53   118   119    1
    54    32    33    1
    55   122   119    1
    56   122   123    1
    57    18    17    1
    58    98    99    2
    59   114   115    1
    60   119   120    1
    61   115   117    1
    62   115   116    1
    63    33    34    1
    64   123   125   ar
    65    41    40    2
    66    17    20    1
    67    99   100    1
    68    99   101    1
    69    40    46   am
    70   128   129    1
    71   128   127   ar
    72    20    21    1
    73   120   121    2
    74    34    35    2
    75   125   127   ar
    76    46    47    1
    77    37    35    1
    78    35    36    1
    79    21    23   ar
    80    21    22   ar
    81    23    25   ar
    82    47    48    1
    83    47    50    1
    84    62    61    1
    85    51    50    1
    86    51    52    1
    87    49    48    2
    88    22    24   ar
    89    48    57   am
    90    25    26   ar
    91    57    58    1
    92    89    90    1
    93    89    88    1
    94   130   131    1
    95    52    53    1
    96    61    63    1
    97    61    58    1
    98    24    26   ar
    99   131   132    1
   100   131   134    1
   101    58    59    1
   102   135   136    1
   103   135   134    1
   104   132   133    2
   105    88    87    1
   106   137   136   ar
   107   136   138   ar
   108    53    54    2
   109    86    85    2
   110    59    64   am
   111    59    60    2
   112    55    54    1
   113    54    56    1
   114    87    84    1
   115    64    65    1
   116    85    84    1
   117    83    84    1
   118    83    79   am
   119    71    70    2
   120    82    81    1
   121    78    79    1
   122    78    81    1
   123    78    77    1
   124    79    80    2
   125    70    77   am
   126    70    69    1
   127    65    66    1
   128    66    67    2
   129    66    68   am
   130    68    69    1
   131    69    72    1
   132    76    74   am
   133    72    73    1
   134    73    74    1
   135    74    75    2
