@<TRIPOS>MOLECULE
tmp/4pyhA00.pdb
 214 210 0 0 0
SMALL
GASTEIGER

@<TRIPOS>ATOM
      1  N         20.4660  -15.6900   -6.2850 N.3     1  GLY1       -0.1210
      2  CA        19.5690  -16.7320   -6.8690 C.3     1  GLY1        0.1956
      3  C         18.1130  -16.4490   -6.5930 C.2     1  GLY1        0.2613
      4  O         17.7610  -15.4380   -5.9800 O.2     1  GLY1       -0.2717
      5  N         17.2590  -17.3510   -7.0500 N.am    2  SER2       -0.1938
      6  CA        15.8410  -17.0970   -7.0520 C.3     2  SER2        0.2055
      7  C         15.1980  -17.3790   -5.6920 C.2     2  SER2        0.2643
      8  O         14.3350  -16.6120   -5.2580 O.2     2  SER2       -0.2714
      9  CB        15.1530  -17.8650   -8.2000 C.3     2  SER2        0.2130
     10  OG        15.8530  -19.0530   -8.5600 O.3     2  SER2       -0.2179
     11  N         15.6080  -18.4570   -5.0170 N.am    3  HIS3       -0.1959
     12  CA        14.9510  -18.8640   -3.7690 C.3     3  HIS3        0.1787
     13  C         15.9950  -19.1540   -2.7010 C.2     3  HIS3        0.2620
     14  O         16.4800  -20.2780   -2.5570 O.2     3  HIS3       -0.2715
     15  CB        14.0670  -20.0850   -3.9770 C.3     3  HIS3        0.0785
     16  CG        13.0180  -19.9010   -5.0260 C.ar    3  HIS3        0.0821
     17  ND1       11.7110  -19.5860   -4.7250 N.ar    3  HIS3       -0.2267
     18  CD2       13.0810  -19.9960   -6.3750 C.ar    3  HIS3        0.1154
     19  CE1       11.0120  -19.4960   -5.8430 C.ar    3  HIS3        0.1986
     20  NE2       11.8200  -19.7380   -6.8600 N.ar    3  HIS3       -0.2212
     21  N         16.3550  -18.1200   -1.9670 N.am    4  MET4       -0.1963
     22  CA        17.4310  -18.2180   -0.9950 C.3     4  MET4        0.1736
     23  C         16.9530  -18.2020    0.4490 C.2     4  MET4        0.2616
     24  O         17.7340  -18.4880    1.3540 O.2     4  MET4       -0.2715
     25  CB        18.4370  -17.1050   -1.2210 C.3     4  MET4        0.0427
     26  CG        18.9430  -17.0830   -2.6610 C.3     4  MET4        0.0599
     27  SD        19.9090  -15.6170   -2.9890 S.3     4  MET4       -0.1393
     28  CE        21.3520  -16.0460   -2.0380 C.3     4  MET4        0.0692
     29  N         15.6910  -17.8630    0.6940 N.am    5  TYR5       -0.1974
     30  CA        15.2370  -17.7730    2.0880 C.3     5  TYR5        0.1639
     31  C         14.8720  -19.1510    2.5890 C.2     5  TYR5        0.2290
     32  O         14.1240  -19.8700    1.9340 O.2     5  TYR5       -0.2864
     33  CB        14.0430  -16.8440    2.2260 C.3     5  TYR5        0.0560
     34  CG        13.4950  -16.7410    3.6260 C.ar    5  TYR5       -0.0198
     35  CD1       14.2950  -16.3100    4.6830 C.ar    5  TYR5       -0.0009
     36  CD2       12.1680  -17.0660    3.8950 C.ar    5  TYR5       -0.0009
     37  CE1       13.7970  -16.2150    5.9780 C.ar    5  TYR5        0.0417
     38  CE2       11.6570  -16.9500    5.1800 C.ar    5  TYR5        0.0417
     39  CZ        12.4680  -16.5200    6.2140 C.ar    5  TYR5        0.1957
     40  OH        11.9470  -16.4450    7.4820 O.3     5  TYR5       -0.2866
     41  N          4.2120  -18.1460    6.0560 N.3    55  PHE55      -0.1241
     42  CA         5.1820  -18.9200    6.8490 C.3    55  PHE55       0.1605
     43  C          4.6620  -19.3660    8.2190 C.2    55  PHE55       0.2264
     44  O          5.4000  -19.9360    9.0080 O.2    55  PHE55      -0.2867
     45  CB         6.4950  -18.1340    6.9750 C.3    55  PHE55       0.0534
     46  CG         7.2690  -18.0530    5.6870 C.ar   55  PHE55      -0.0203
     47  CD1        7.9190  -19.1760    5.1880 C.ar   55  PHE55      -0.0042
     48  CD2        7.3400  -16.8820    4.9700 C.ar   55  PHE55      -0.0042
     49  CE1        8.6210  -19.1340    3.9950 C.ar   55  PHE55      -0.0003
     50  CE2        8.0600  -16.8260    3.7670 C.ar   55  PHE55      -0.0003
     51  CZ         8.7000  -17.9560    3.2810 C.ar   55  PHE55      -0.0000
     52  N          5.5650   -6.9150   -0.4150 N.3    81  ASP81      -0.1225
     53  CA         6.6820   -7.6700   -0.9910 C.3    81  ASP81       0.1805
     54  C          6.6310   -7.7190   -2.5360 C.2    81  ASP81       0.2597
     55  O          5.5680   -7.5740   -3.1660 O.2    81  ASP81      -0.2718
     56  CB         6.6860   -9.0830   -0.4150 C.3    81  ASP81       0.1424
     57  CG         8.0580   -9.7560   -0.4560 C.2    81  ASP81       0.3668
     58  OD1        9.0480   -9.1120   -0.8200 O.co2  81  ASP81      -0.2456
     59  OD2        8.1160  -10.9630   -0.1310 O.co2  81  ASP81      -0.2456
     60  N          7.7950   -7.9050   -3.1400 N.am   82  PHE82      -0.1976
     61  CA         7.9250   -8.0600   -4.5970 C.3    82  PHE82       0.1639
     62  C          7.3280   -6.8810   -5.3840 C.2    82  PHE82       0.2290
     63  O          6.7840   -7.0220   -6.4940 O.2    82  PHE82      -0.2864
     64  CB         7.3760   -9.4190   -5.0170 C.3    82  PHE82       0.0560
     65  CG         8.3860  -10.5300   -4.8660 C.ar   82  PHE82      -0.0200
     66  CD1        9.2750  -10.5550   -3.7960 C.ar   82  PHE82      -0.0042
     67  CD2        8.4990  -11.4980   -5.8290 C.ar   82  PHE82      -0.0042
     68  CE1       10.2250  -11.5520   -3.6660 C.ar   82  PHE82      -0.0003
     69  CE2        9.4470  -12.5000   -5.7150 C.ar   82  PHE82      -0.0003
     70  CZ        10.3070  -12.5360   -4.6340 C.ar   82  PHE82      -0.0000
     71  N         10.7100  -10.2070    5.5210 N.3   114  THR114     -0.1203
     72  CA        10.5020  -11.6380    5.6210 C.3   114  THR114      0.1994
     73  C         11.8480  -12.3000    5.5860 C.2   114  THR114      0.2617
     74  O         12.2320  -12.9730    6.5600 O.2   114  THR114     -0.2717
     75  CB         9.6150  -12.1860    4.4900 C.3   114  THR114      0.1784
     76  OG1        8.3020  -11.6170    4.5950 O.3   114  THR114     -0.2211
     77  CG2        9.6030  -13.7300    4.5210 C.3   114  THR114      0.0376
     78  N         12.5710  -12.0760    4.4850 N.am  115  ALA115     -0.1979
     79  CA        13.8870  -12.6590    4.2590 C.3   115  ALA115      0.1597
     80  C         15.0520  -11.7890    4.7350 C.2   115  ALA115      0.2287
     81  O         16.1790  -12.2780    4.8890 O.2   115  ALA115     -0.2864
     82  CB        14.0580  -12.9700    2.7790 C.3   115  ALA115      0.0319
     83  N         16.1980   -9.5670    2.7870 N.3   117  MET117     -0.1230
     84  CA        16.9460   -9.5470    1.5220 C.3   117  MET117      0.1702
     85  C         16.5400   -8.4430    0.5610 C.2   117  MET117      0.2593
     86  O         17.2490   -8.1820   -0.4090 O.2   117  MET117     -0.2718
     87  CB        16.8070  -10.8980    0.8200 C.3   117  MET117      0.0401
     88  CG        17.5020  -11.9940    1.6060 C.3   117  MET117      0.0596
     89  SD        17.4930  -13.5680    0.7250 S.3   117  MET117     -0.1393
     90  CE        18.1090  -14.7650    1.9020 C.3   117  MET117      0.0692
     91  N         15.4060   -7.8070    0.8060 N.am  118  GLY118     -0.1942
     92  CA        14.8850   -6.7780   -0.0740 C.3   118  GLY118      0.2014
     93  C         14.4370   -5.5330    0.6580 C.2   118  GLY118      0.2638
     94  O         15.1390   -4.5190    0.6630 O.2   118  GLY118     -0.2714
     95  N         13.2830   -5.6170    1.3140 N.am  119  ARG119     -0.1977
     96  CA        12.6920   -4.4310    1.9450 C.3   119  ARG119      0.1597
     97  C         13.5150   -3.9090    3.1160 C.2   119  ARG119      0.2287
     98  O         13.7640   -2.7180    3.1990 O.2   119  ARG119     -0.2864
     99  CB        11.2470   -4.7300    2.4080 C.3   119  ARG119      0.0334
    100  CG        10.2580   -4.8550    1.2650 C.3   119  ARG119      0.0492
    101  CD         8.9770   -5.5290    1.7290 C.3   119  ARG119      0.2205
    102  NE         9.1730   -6.9370    2.0440 N.pl3 119  ARG119     -0.0865
    103  CZ         8.2670   -7.7500    2.5710 C.cat 119  ARG119      0.5346
    104  NH1        7.0380   -7.3230    2.8450 N.pl3 119  ARG119      0.1354
    105  NH2        8.5790   -9.0150    2.8360 N.pl3 119  ARG119      0.1354
    106  N         19.4570   -7.6890   -1.9430 N.3   150  PHE150     -0.1241
    107  CA        18.9790   -7.0710   -3.1690 C.3   150  PHE150      0.1605
    108  C         18.2720   -5.7910   -2.7340 C.2   150  PHE150      0.2264
    109  O         17.0540   -5.7780   -2.5450 O.2   150  PHE150     -0.2867
    110  CB        18.0320   -8.0550   -3.8580 C.3   150  PHE150      0.0534
    111  CG        18.6520   -9.4070   -4.0620 C.ar  150  PHE150     -0.0203
    112  CD1       19.4110   -9.6520   -5.1870 C.ar  150  PHE150     -0.0042
    113  CD2       18.5240  -10.4110   -3.0980 C.ar  150  PHE150     -0.0042
    114  CE1       20.0070  -10.8810   -5.3800 C.ar  150  PHE150     -0.0003
    115  CE2       19.1160  -11.6600   -3.2970 C.ar  150  PHE150     -0.0003
    116  CZ        19.8860  -11.8710   -4.4320 C.ar  150  PHE150     -0.0000
    117  N         17.5080   -2.7320   -3.7930 N.3   152  LYS152     -0.1245
    118  CA        16.5580   -1.9050   -4.5470 C.3   152  LYS152      0.1561
    119  C         17.0180   -0.4470   -4.6830 C.2   152  LYS152      0.2260
    120  O         16.2810    0.4930   -4.3530 O.2   152  LYS152     -0.2867
    121  CB        15.1620   -1.9560   -3.9140 C.3   152  LYS152      0.0271
    122  CG        14.7090   -3.3470   -3.4960 C.3   152  LYS152      0.0035
    123  CD        14.4120   -4.2460   -4.6770 C.3   152  LYS152      0.0206
    124  CE        13.8230   -5.5870   -4.2200 C.3   152  LYS152      0.1093
    125  NZ        14.8360   -6.6480   -4.1480 N.3   152  LYS152     -0.1314
    126  N          5.1320   -7.6790   -8.7250 N.3   193  TRP193     -0.1241
    127  CA         5.2370   -8.9180   -9.4830 C.3   193  TRP193      0.1605
    128  C          4.2830   -9.9870   -8.9690 C.2   193  TRP193      0.2264
    129  O          4.0800  -11.0060   -9.6340 O.2   193  TRP193     -0.2867
    130  CB         6.6530   -9.4500   -9.4820 C.3   193  TRP193      0.0550
    131  CG         7.6630   -8.5610  -10.2020 C.ar  193  TRP193      0.0003
    132  CD1        8.6940   -7.8660   -9.6380 C.ar  193  TRP193      0.0946
    133  CD2        7.7190   -8.2990  -11.6070 C.ar  193  TRP193      0.0152
    134  NE1        9.4130   -7.2100  -10.6150 N.ar  193  TRP193     -0.2442
    135  CE2        8.8130   -7.4370  -11.8290 C.ar  193  TRP193      0.0810
    136  CE3        6.9410   -8.7010  -12.7010 C.ar  193  TRP193      0.0012
    137  CZ2        9.1650   -6.9890  -13.0980 C.ar  193  TRP193      0.0191
    138  CZ3        7.2890   -8.2420  -13.9680 C.ar  193  TRP193      0.0001
    139  CH2        8.3950   -7.4070  -14.1580 C.ar  193  TRP193      0.0015
    140  N          9.8910   -1.6840  -15.0260 N.3   220  GLU220     -0.1245
    141  CA         9.8850   -2.9840  -15.6790 C.3   220  GLU220      0.1567
    142  C          8.5440   -3.6620  -15.4780 C.2   220  GLU220      0.2260
    143  O          7.9180   -3.5620  -14.4020 O.2   220  GLU220     -0.2867
    144  CB        11.0140   -3.8710  -15.1600 C.3   220  GLU220      0.0388
    145  CG        12.3880   -3.3630  -15.6040 C.3   220  GLU220      0.1160
    146  CD        13.5590   -4.2040  -15.1190 C.2   220  GLU220      0.3649
    147  OE1       13.4020   -5.4130  -14.8260 O.co2 220  GLU220     -0.2457
    148  OE2       14.6670   -3.6410  -15.0550 O.co2 220  GLU220     -0.2457
    149  N          5.8940   -7.0110  -17.4450 N.3   222  LYS222     -0.1245
    150  CA         5.8100   -8.1460  -18.3360 C.3   222  LYS222      0.1561
    151  C          4.3560   -8.5030  -18.5450 C.2   222  LYS222      0.2260
    152  O          3.4950   -8.1740  -17.7390 O.2   222  LYS222     -0.2867
    153  CB         6.6210   -9.3100  -17.7710 C.3   222  LYS222      0.0271
    154  CG         7.1370  -10.2640  -18.8160 C.3   222  LYS222      0.0035
    155  CD         8.3010  -11.0960  -18.2940 C.3   222  LYS222      0.0206
    156  CE         8.5920  -12.2070  -19.2810 C.3   222  LYS222      0.1093
    157  NZ         9.8750  -12.9070  -19.0780 N.3   222  LYS222     -0.1314
    158  N          3.7810  -16.0800  -19.1180 N.3   229  TRP229     -0.1241
    159  CA         4.6330  -14.9010  -18.9920 C.3   229  TRP229      0.1605
    160  C          5.3820  -14.6710  -20.2980 C.2   229  TRP229      0.2264
    161  O          6.0650  -15.5760  -20.7770 O.2   229  TRP229     -0.2867
    162  CB         5.6710  -15.0780  -17.8830 C.3   229  TRP229      0.0550
    163  CG         5.1570  -15.0170  -16.4830 C.ar  229  TRP229      0.0003
    164  CD1        4.6340  -16.0420  -15.7520 C.ar  229  TRP229      0.0946
    165  CD2        5.2030  -13.8820  -15.6080 C.ar  229  TRP229      0.0152
    166  NE1        4.3040  -15.6010  -14.4790 N.ar  229  TRP229     -0.2442
    167  CE2        4.6540  -14.2790  -14.3710 C.ar  229  TRP229      0.0810
    168  CE3        5.6500  -12.5590  -15.7550 C.ar  229  TRP229      0.0012
    169  CZ2        4.5350  -13.3990  -13.2840 C.ar  229  TRP229      0.0191
    170  CZ3        5.5220  -11.6880  -14.6780 C.ar  229  TRP229      0.0001
    171  CH2        4.9670  -12.1090  -13.4600 C.ar  229  TRP229      0.0015
    172  N         18.3920  -10.6520  -17.4680 N.3   241  ASN241     -0.1225
    173  CA        19.0070  -10.2230  -16.2140 C.3   241  ASN241      0.1785
    174  C         19.7320  -11.4100  -15.5890 C.2   241  ASN241      0.2597
    175  O         19.7880  -12.4960  -16.1910 O.2   241  ASN241     -0.2718
    176  CB        17.9520   -9.6420  -15.2490 C.3   241  ASN241      0.1169
    177  CG        16.9490  -10.6810  -14.7610 C.2   241  ASN241      0.2627
    178  OD1       17.0850  -11.8770  -15.0260 O.2   241  ASN241     -0.2716
    179  ND2       15.9240  -10.2200  -14.0510 N.am  241  ASN241     -0.0877
    180  N         20.2630  -11.2060  -14.3840 N.am  242  LYS242     -0.1966
    181  CA        20.9550  -12.2690  -13.6250 C.3   242  LYS242      0.1728
    182  C         20.1910  -13.5920  -13.6410 C.2   242  LYS242      0.2616
    183  O         20.7650  -14.6590  -13.8990 O.2   242  LYS242     -0.2715
    184  CB        21.1460  -11.8420  -12.1640 C.3   242  LYS242      0.0311
    185  CG        22.0760  -10.6530  -11.9620 C.3   242  LYS242      0.0038
    186  CD        21.7640   -9.9100  -10.6700 C.3   242  LYS242      0.0206
    187  CE        22.5050   -8.5800  -10.5870 C.3   242  LYS242      0.1093
    188  NZ        23.9810   -8.7500  -10.4550 N.3   242  LYS242     -0.1314
    189  N         18.8870  -13.4960  -13.3810 N.am  243  ASP243     -0.1971
    190  CA        18.0220  -14.6650  -13.2160 C.3   243  ASP243      0.1709
    191  C         17.5650  -15.2550  -14.5540 C.2   243  ASP243      0.2293
    192  O         16.8180  -16.2340  -14.5800 O.2   243  ASP243     -0.2864
    193  CB        16.7990  -14.3020  -12.3570 C.3   243  ASP243      0.1436
    194  CG        17.1710  -13.5560  -11.0610 C.2   243  ASP243      0.3671
    195  OD1       17.3480  -12.3120  -11.1080 O.co2 243  ASP243     -0.2456
    196  OD2       17.2630  -14.2100   -9.9890 O.co2 243  ASP243     -0.2456
    197  N         15.8840  -13.6020  -16.9430 N.3   245  HIS245     -0.1241
    198  CA        14.5600  -13.0910  -17.3070 C.3   245  HIS245      0.1621
    199  C         14.6410  -11.7680  -18.0750 C.2   245  HIS245      0.2264
    200  O         15.4640  -10.8940  -17.7830 O.2   245  HIS245     -0.2867
    201  CB        13.6820  -12.9660  -16.0640 C.3   245  HIS245      0.0745
    202  CG        13.3950  -14.2830  -15.4080 C.ar  245  HIS245      0.0817
    203  ND1       13.3650  -14.4460  -14.0390 N.ar  245  HIS245     -0.2268
    204  CD2       13.1510  -15.5070  -15.9390 C.ar  245  HIS245      0.1154
    205  CE1       13.0920  -15.7080  -13.7540 C.ar  245  HIS245      0.1986
    206  NE2       12.9570  -16.3730  -14.8870 N.ar  245  HIS245     -0.2212
    207  N         12.4260   -8.5130  -19.3130 N.3   247  ASN247     -0.1240
    208  CA        11.2400   -7.7190  -18.9940 C.3   247  ASN247      0.1653
    209  C         11.0920   -6.5750  -19.9920 C.2   247  ASN247      0.2266
    210  O         12.0740   -6.0460  -20.4780 O.2   247  ASN247     -0.2867
    211  CB        11.3890   -7.0960  -17.5870 C.3   247  ASN247      0.1155
    212  CG        11.2240   -8.1100  -16.4470 C.2   247  ASN247      0.2627
    213  OD1       10.5150   -9.1090  -16.5720 O.2   247  ASN247     -0.2716
    214  ND2       11.8830   -7.8300  -15.3110 N.am  247  ASN247     -0.0877
@<TRIPOS>BOND
     1   161   160    2
     2   210   209    2
     3   160   159    1
     4   209   208    1
     5   207   208    1
     6   156   157    1
     7   156   155    1
     8   158   159    1
     9   208   211    1
    10   159   162    1
    11   154   155    1
    12   154   153    1
    13   151   150    1
    14   151   152    2
    15   150   153    1
    16   150   149    1
    17   199   200    2
    18   199   198    1
    19   162   163    1
    20   211   212    1
    21   172   173    1
    22   198   197    1
    23   198   201    1
    24   213   212    2
    25   163   164   ar
    26   163   165   ar
    27   212   214   am
    28   173   174    1
    29   173   176    1
    30   175   174    2
    31   201   202    1
    32   204   202   ar
    33   204   206   ar
    34   168   165   ar
    35   168   170   ar
    36   164   166   ar
    37   141   142    1
    38   141   144    1
    39   141   140    1
    40   165   167   ar
    41   145   144    1
    42   145   146    1
    43   174   180   am
    44   142   143    2
    45   202   203   ar
    46   176   177    1
    47   146   148   ar
    48   146   147   ar
    49   178   177    2
    50   206   205   ar
    51   177   179   am
    52   170   171   ar
    53   192   191    2
    54   191   190    1
    55   166   167   ar
    56   180   181    1
    57   167   169   ar
    58   139   138   ar
    59   139   137   ar
    60   203   205   ar
    61   138   136   ar
    62   183   182    2
    63   182   181    1
    64   182   189   am
    65   181   184    1
    66   171   169   ar
    67   189   190    1
    68   190   193    1
    69   137   135   ar
    70   136   133   ar
    71   193   194    1
    72   184   185    1
    73   185   186    1
    74   135   133   ar
    75   135   134   ar
    76   133   131   ar
    77   195   194   ar
    78   194   196   ar
    79   186   187    1
    80   134   132   ar
    81   187   188    1
    82   131   132   ar
    83   131   130    1
    84   129   128    2
    85   127   130    1
    86   127   128    1
    87   127   126    1
    88    10     9    1
    89     9     6    1
    90     6     5    1
    91     6     7    1
    92     5     3   am
    93     2     3    1
    94     2     1    1
    95    20    18   ar
    96    20    19   ar
    97     3     4    2
    98    63    62    2
    99    18    16   ar
   100    19    17   ar
   101    67    69   ar
   102    67    65   ar
   103    69    70   ar
   104     7     8    2
   105     7    11   am
   106    62    61    1
   107   114   112   ar
   108   114   116   ar
   109   112   111   ar
   110    16    17   ar
   111    16    15    1
   112    11    12    1
   113    64    65    1
   114    64    61    1
   115    65    66   ar
   116   119   118    1
   117   119   120    2
   118   123   124    1
   119   123   122    1
   120    70    68   ar
   121    61    60    1
   122   118   121    1
   123   118   117    1
   124   116   115   ar
   125   124   125    1
   126   111   110    1
   127   111   113   ar
   128    15    12    1
   129   121   122    1
   130   110   107    1
   131    66    68   ar
   132    12    13    1
   133   115   113   ar
   134   107   108    1
   135   107   106    1
   136    55    54    2
   137    60    54   am
   138    27    26    1
   139    27    28    1
   140   108   109    2
   141    13    14    2
   142    13    21   am
   143    26    25    1
   144    54    53    1
   145    21    22    1
   146    25    22    1
   147    22    23    1
   148    53    56    1
   149    53    52    1
   150    58    57   ar
   151    57    56    1
   152    57    59   ar
   153    86    85    2
   154    92    93    1
   155    92    91    1
   156    23    29   am
   157    23    24    2
   158    85    91   am
   159    85    84    1
   160    93    94    2
   161    93    95   am
   162    29    30    1
   163    89    88    1
   164    89    90    1
   165    87    84    1
   166    87    88    1
   167   100   101    1
   168   100    99    1
   169    95    96    1
   170    84    83    1
   171   101   102    1
   172    32    31    2
   173    96    99    1
   174    96    97    1
   175   102   103    2
   176    30    33    1
   177    30    31    1
   178    33    34    1
   179   103   105    1
   180   103   104    1
   181    82    79    1
   182    97    98    2
   183    51    50   ar
   184    51    49   ar
   185    34    36   ar
   186    34    35   ar
   187    50    48   ar
   188    36    38   ar
   189    49    47   ar
   190    79    78    1
   191    79    80    1
   192    78    73   am
   193    75    77    1
   194    75    76    1
   195    75    72    1
   196    35    37   ar
   197    80    81    2
   198    48    46   ar
   199    38    39   ar
   200    47    46   ar
   201    71    72    1
   202    73    72    1
   203    73    74    2
   204    46    45    1
   205    37    39   ar
   206    41    42    1
   207    39    40    1
   208    42    45    1
   209    42    43    1
   210    43    44    2
