@<TRIPOS>MOLECULE
tmp/4pypA00.pdb
 192 185 0 0 0
SMALL
GASTEIGER

@<TRIPOS>ATOM
      1  N        576.6400  -33.6770  202.9120 N.3    18  PHE18      -0.1241
      2  CA       578.0110  -33.3300  202.5990 C.3    18  PHE18       0.1605
      3  C        578.9090  -34.4110  203.1970 C.2    18  PHE18       0.2264
      4  O        579.8290  -34.8980  202.5460 O.2    18  PHE18      -0.2867
      5  CB       578.3500  -31.9390  203.1440 C.3    18  PHE18       0.0534
      6  CG       579.6770  -31.3760  202.6500 C.ar   18  PHE18      -0.0203
      7  CD1      580.8570  -31.6260  203.3400 C.ar   18  PHE18      -0.0042
      8  CD2      579.7450  -30.5850  201.5050 C.ar   18  PHE18      -0.0042
      9  CE1      582.0650  -31.1140  202.9020 C.ar   18  PHE18      -0.0003
     10  CE2      580.9690  -30.0700  201.0670 C.ar   18  PHE18      -0.0003
     11  CZ       582.1190  -30.3400  201.7680 C.ar   18  PHE18      -0.0000
     12  N        580.8690  -37.3670  200.2570 N.3    22  THR22      -0.1218
     13  CA       582.3020  -37.2090  200.3240 C.3    22  THR22       0.1862
     14  C        582.9500  -38.5560  200.6430 C.2    22  THR22       0.2287
     15  O        583.6430  -39.1170  199.7980 O.2    22  THR22      -0.2866
     16  CB       582.6820  -36.1400  201.3750 C.3    22  THR22       0.1770
     17  OG1      581.7780  -35.0340  201.2680 O.3    22  THR22      -0.2211
     18  CG2      584.0870  -35.6110  201.1420 C.3    22  THR22       0.0375
     19  N        577.6750  -27.8630  211.6980 N.3   152  HIS152     -0.1226
     20  CA       578.0010  -28.0190  210.2720 C.3   152  HIS152      0.1752
     21  C        579.2160  -28.8960  210.1390 C.2   152  HIS152      0.2595
     22  O        579.3240  -29.6820  209.2080 O.2   152  HIS152     -0.2718
     23  CB       578.2640  -26.6830  209.5660 C.3   152  HIS152      0.0759
     24  CG       578.6830  -26.8180  208.1200 C.ar  152  HIS152      0.0818
     25  ND1      577.8890  -27.4070  207.1580 N.ar  152  HIS152     -0.2268
     26  CD2      579.8070  -26.4130  207.4750 C.ar  152  HIS152      0.1154
     27  CE1      578.5040  -27.3630  205.9850 C.ar  152  HIS152      0.1986
     28  NE2      579.6700  -26.7670  206.1520 N.ar  152  HIS152     -0.2212
     29  N        580.1460  -28.7530  211.0710 N.am  153  GLN153     -0.1979
     30  CA       581.3410  -29.5840  211.0670 C.3   153  GLN153      0.1601
     31  C        580.9490  -31.0130  211.4040 C.2   153  GLN153      0.2287
     32  O        581.0460  -31.9150  210.5670 O.2   153  GLN153     -0.2864
     33  CB       582.3540  -29.0620  212.0730 C.3   153  GLN153      0.0394
     34  CG       582.2460  -27.5700  212.3170 C.3   153  GLN153      0.0908
     35  CD       582.8670  -27.1780  213.6330 C.2   153  GLN153      0.2608
     36  OE1      583.4260  -28.0210  214.3400 O.2   153  GLN153     -0.2717
     37  NE2      582.7800  -25.8950  213.9740 N.am  153  GLN153     -0.0878
     38  N        579.2810  -33.1400  209.0110 N.3   156  ILE156     -0.1231
     39  CA       580.0690  -33.6690  207.9180 C.3   156  ILE156      0.1692
     40  C        580.8080  -34.9300  208.3510 C.2   156  ILE156      0.2591
     41  O        580.7190  -35.9850  207.7160 O.2   156  ILE156     -0.2718
     42  CB       581.0530  -32.6100  207.4180 C.3   156  ILE156      0.0266
     43  CG1      580.2820  -31.4920  206.7050 C.3   156  ILE156      0.0019
     44  CG2      582.1000  -33.2380  206.5100 C.3   156  ILE156      0.0020
     45  CD1      581.0670  -30.2170  206.4980 C.3   156  ILE156      0.0001
     46  N        581.5130  -34.8260  209.4650 N.am  157  VAL157     -0.1980
     47  CA       582.2760  -35.9480  209.9760 C.3   157  VAL157      0.1595
     48  C        581.4270  -37.1930  210.3140 C.2   157  VAL157      0.2287
     49  O        581.8220  -38.3380  210.0420 O.2   157  VAL157     -0.2864
     50  CB       583.0380  -35.5140  211.2020 C.3   157  VAL157      0.0276
     51  CG1      583.9830  -36.5830  211.5720 C.3   157  VAL157      0.0022
     52  CG2      583.8020  -34.2650  210.8860 C.3   157  VAL157      0.0022
     53  N        580.3120  -38.6420  207.2790 N.3   160  ILE160     -0.1245
     54  CA       581.3600  -39.5120  206.7590 C.3   160  ILE160      0.1561
     55  C        581.3170  -40.9060  207.3800 C.2   160  ILE160      0.2260
     56  O        581.3900  -41.9230  206.6790 O.2   160  ILE160     -0.2867
     57  CB       582.7440  -38.8870  206.9930 C.3   160  ILE160      0.0252
     58  CG1      583.1460  -38.0790  205.7620 C.3   160  ILE160      0.0019
     59  CG2      583.7910  -39.9530  207.3180 C.3   160  ILE160      0.0019
     60  CD1      583.7480  -36.7220  206.0870 C.3   160  ILE160      0.0001
     61  N        595.7260  -27.8200  203.7240 N.3   274  GLN274     -0.1231
     62  CA       594.6490  -28.6670  204.2270 C.3   274  GLN274      0.1698
     63  C        594.3860  -29.8560  203.2890 C.2   274  GLN274      0.2592
     64  O        594.3240  -31.0010  203.7360 O.2   274  GLN274     -0.2718
     65  CB       593.3680  -27.8590  204.4110 C.3   274  GLN274      0.0381
     66  CG       592.3730  -28.5400  205.3280 C.3   274  GLN274      0.0905
     67  CD       590.9180  -28.1380  205.0840 C.2   274  GLN274      0.2608
     68  OE1      590.4460  -28.1130  203.9440 O.2   274  GLN274     -0.2717
     69  NE2      590.1980  -27.8420  206.1670 N.am  274  GLN274     -0.0878
     70  N        594.2500  -29.5800  201.9930 N.am  275  GLN275     -0.1979
     71  CA       594.0350  -30.6210  200.9910 C.3   275  GLN275      0.1601
     72  C        595.3210  -31.3100  200.4870 C.2   275  GLN275      0.2287
     73  O        595.3100  -32.5230  200.2560 O.2   275  GLN275     -0.2864
     74  CB       593.2770  -30.0410  199.8060 C.3   275  GLN275      0.0394
     75  CG       591.9730  -29.3940  200.2380 C.3   275  GLN275      0.0908
     76  CD       590.9500  -30.4270  200.7480 C.2   275  GLN275      0.2608
     77  OE1      590.5070  -31.2890  199.9850 O.2   275  GLN275     -0.2717
     78  NE2      590.6200  -30.3780  202.0460 N.am  275  GLN275     -0.0878
     79  N        594.8170  -35.8300  203.1300 N.3   279  ILE279     -0.1231
     80  CA       593.7150  -36.4620  203.8650 C.3   279  ILE279      0.1692
     81  C        592.7280  -37.2410  203.0260 C.2   279  ILE279      0.2592
     82  O        592.4590  -38.4130  203.2880 O.2   279  ILE279     -0.2718
     83  CB       592.8830  -35.4450  204.6170 C.3   279  ILE279      0.0266
     84  CG1      592.8910  -34.1210  203.8590 C.3   279  ILE279      0.0019
     85  CG2      593.3730  -35.3460  206.0450 C.3   279  ILE279      0.0020
     86  CD1      591.8150  -33.1800  204.2900 C.3   279  ILE279      0.0001
     87  N        592.1640  -36.5800  202.0290 N.am  280  ASN280     -0.1974
     88  CA       591.1270  -37.2090  201.2450 C.3   280  ASN280      0.1688
     89  C        591.6780  -38.4400  200.5420 C.2   280  ASN280      0.2292
     90  O        590.9270  -39.2880  200.0970 O.2   280  ASN280     -0.2864
     91  CB       590.5140  -36.2090  200.2680 C.3   280  ASN280      0.1181
     92  CG       589.5610  -35.2410  200.9600 C.2   280  ASN280      0.2629
     93  OD1      589.7340  -34.0200  200.9010 O.2   280  ASN280     -0.2716
     94  ND2      588.5570  -35.7900  201.6380 N.am  280  ASN280     -0.0877
     95  N        590.5970  -40.6610  202.9270 N.3   283  PHE283     -0.1241
     96  CA       589.1450  -40.6190  202.9790 C.3   283  PHE283      0.1605
     97  C        588.5230  -40.8460  201.6250 C.2   283  PHE283      0.2264
     98  O        587.3180  -40.8310  201.5150 O.2   283  PHE283     -0.2867
     99  CB       588.6470  -39.2950  203.5530 C.3   283  PHE283      0.0534
    100  CG       588.5770  -39.2810  205.0420 C.ar  283  PHE283     -0.0203
    101  CD1      588.0760  -40.3710  205.7240 C.ar  283  PHE283     -0.0042
    102  CD2      589.0330  -38.1960  205.7660 C.ar  283  PHE283     -0.0042
    103  CE1      588.0110  -40.3730  207.1040 C.ar  283  PHE283     -0.0003
    104  CE2      588.9740  -38.1930  207.1460 C.ar  283  PHE283     -0.0003
    105  CZ       588.4620  -39.2780  207.8140 C.ar  283  PHE283     -0.0000
    106  N        588.2600  -39.9880  213.4980 N.3   309  ASN309     -0.1240
    107  CA       588.0080  -38.6940  212.8880 C.3   309  ASN309      0.1653
    108  C        586.9130  -37.8770  213.5760 C.2   309  ASN309      0.2266
    109  O        587.1040  -36.7070  213.9050 O.2   309  ASN309     -0.2867
    110  CB       587.6260  -38.9130  211.4420 C.3   309  ASN309      0.1155
    111  CG       587.6900  -37.6700  210.6450 C.2   309  ASN309      0.2627
    112  OD1      586.6830  -37.0230  210.4130 O.2   309  ASN309     -0.2716
    113  ND2      588.8830  -37.3170  210.2070 N.am  309  ASN309     -0.0877
    114  N        587.4240  -34.5620  216.0000 N.3   313  THR313     -0.1218
    115  CA       586.6680  -33.3600  215.6360 C.3   313  THR313      0.1862
    116  C        586.0240  -32.7820  216.8940 C.2   313  THR313      0.2287
    117  O        586.0500  -31.5750  217.1110 O.2   313  THR313     -0.2866
    118  CB       585.5680  -33.6370  214.5650 C.3   313  THR313      0.1770
    119  OG1      586.1680  -33.9640  213.3070 O.3   313  THR313     -0.2211
    120  CG2      584.7000  -32.4210  214.3600 C.3   313  THR313      0.0375
    121  N        595.0760  -34.5560  212.3040 N.3   371  PHE371     -0.1227
    122  CA       594.5270  -33.6400  211.3130 C.3   371  PHE371      0.1736
    123  C        593.4420  -32.7120  211.8530 C.2   371  PHE371      0.2595
    124  O        593.4180  -31.5180  211.5700 O.2   371  PHE371     -0.2718
    125  CB       593.9490  -34.4190  210.1500 C.3   371  PHE371      0.0547
    126  CG       593.1210  -33.5900  209.2420 C.ar  371  PHE371     -0.0202
    127  CD1      593.7150  -32.8460  208.2430 C.ar  371  PHE371     -0.0042
    128  CD2      591.7450  -33.5500  209.3800 C.ar  371  PHE371     -0.0042
    129  CE1      592.9490  -32.0870  207.3820 C.ar  371  PHE371     -0.0003
    130  CE2      590.9710  -32.7850  208.5260 C.ar  371  PHE371     -0.0003
    131  CZ       591.5680  -32.0540  207.5300 C.ar  371  PHE371     -0.0000
    132  N        592.5150  -33.2820  212.5990 N.am  372  GLU372     -0.1979
    133  CA       591.3390  -32.5420  212.9680 C.3   372  GLU372      0.1602
    134  C        591.6410  -31.5110  214.0370 C.2   372  GLU372      0.2287
    135  O        590.8690  -30.5800  214.2320 O.2   372  GLU372     -0.2864
    136  CB       590.2580  -33.4950  213.4390 C.3   372  GLU372      0.0415
    137  CG       588.9000  -33.0550  213.0080 C.3   372  GLU372      0.1163
    138  CD       588.6720  -33.1880  211.5110 C.2   372  GLU372      0.3649
    139  OE1      589.0750  -32.2720  210.7690 O.co2 372  GLU372     -0.2457
    140  OE2      588.0790  -34.1990  211.0760 O.co2 372  GLU372     -0.2457
    141  N        592.7280  -29.0540  210.0560 N.3   376  GLY376     -0.1210
    142  CA       591.3010  -29.1980  209.8650 C.3   376  GLY376      0.1940
    143  C        590.6200  -27.8520  209.9300 C.2   376  GLY376      0.2453
    144  O        590.2490  -27.3010  208.9000 O.2   376  GLY376     -0.2732
    145  N        590.4720  -27.3090  211.1480 N.am  377  PRO377     -0.2728
    146  CA       589.7600  -26.0570  211.4190 C.3   377  PRO377      0.1401
    147  C        590.5830  -24.7650  211.2260 C.2   377  PRO377      0.2269
    148  O        590.0220  -23.7390  210.8200 O.2   377  PRO377     -0.2865
    149  CB       589.3590  -26.2170  212.8920 C.3   377  PRO377      0.0296
    150  CG       590.4370  -27.0620  213.4730 C.3   377  PRO377      0.0237
    151  CD       590.8030  -28.0280  212.3920 C.3   377  PRO377      0.0939
    152  N        590.4990  -22.2270  208.1330 N.3   380  TRP380     -0.1227
    153  CA       589.2780  -21.4410  207.9700 C.3   380  TRP380      0.1737
    154  C        589.3490  -20.2860  208.9520 C.2   380  TRP380      0.2595
    155  O        589.3870  -19.1360  208.5250 O.2   380  TRP380     -0.2718
    156  CB       588.0100  -22.2730  208.1640 C.3   380  TRP380      0.0564
    157  CG       587.7040  -23.1670  206.9740 C.ar  380  TRP380      0.0003
    158  CD1      587.6650  -24.5310  206.9700 C.ar  380  TRP380      0.0946
    159  CD2      587.4290  -22.7590  205.6240 C.ar  380  TRP380      0.0152
    160  NE1      587.3820  -24.9980  205.7090 N.ar  380  TRP380     -0.2442
    161  CE2      587.2280  -23.9290  204.8630 C.ar  380  TRP380      0.0810
    162  CE3      587.3300  -21.5160  204.9800 C.ar  380  TRP380      0.0012
    163  CZ2      586.9340  -23.8970  203.4930 C.ar  380  TRP380      0.0191
    164  CZ3      587.0380  -21.4820  203.6140 C.ar  380  TRP380      0.0001
    165  CH2      586.8420  -22.6630  202.8910 C.ar  380  TRP380      0.0015
    166  N        589.4240  -20.5910  210.2490 N.am  381  PHE381     -0.1976
    167  CA       589.5640  -19.5770  211.3160 C.3   381  PHE381      0.1639
    168  C        590.4570  -18.3750  210.9870 C.2   381  PHE381      0.2290
    169  O        590.1490  -17.2460  211.3620 O.2   381  PHE381     -0.2864
    170  CB       590.1110  -20.2240  212.5950 C.3   381  PHE381      0.0560
    171  CG       589.0480  -20.7380  213.5300 C.ar  381  PHE381     -0.0200
    172  CD1      588.1010  -19.8790  214.0720 C.ar  381  PHE381     -0.0042
    173  CD2      589.0080  -22.0730  213.8850 C.ar  381  PHE381     -0.0042
    174  CE1      587.1230  -20.3450  214.9360 C.ar  381  PHE381     -0.0003
    175  CE2      588.0390  -22.5430  214.7460 C.ar  381  PHE381     -0.0003
    176  CZ       587.0960  -21.6770  215.2750 C.ar  381  PHE381     -0.0000
    177  N        590.6730  -24.7130  198.2280 N.3   403  ASN403     -0.1240
    178  CA       590.2450  -25.9400  198.8460 C.3   403  ASN403      0.1653
    179  C        589.6170  -26.9210  197.8480 C.2   403  ASN403      0.2266
    180  O        589.9840  -28.0810  197.8240 O.2   403  ASN403     -0.2867
    181  CB       589.2680  -25.6380  199.9630 C.3   403  ASN403      0.1155
    182  CG       589.2300  -26.7340  200.9870 C.2   403  ASN403      0.2627
    183  OD1      588.8710  -27.8780  200.6790 O.2   403  ASN403     -0.2716
    184  ND2      589.6090  -26.4050  202.2160 N.am  403  ASN403     -0.0877
    185  N        591.8910  -30.1220  196.3720 N.3   407  ASN407     -0.1240
    186  CA       591.1010  -31.3400  196.5180 C.3   407  ASN407      0.1653
    187  C        591.0540  -32.1340  195.2020 C.2   407  ASN407      0.2266
    188  O        591.3560  -33.3270  195.1940 O.2   407  ASN407     -0.2867
    189  CB       589.6840  -31.0120  196.9810 C.3   407  ASN407      0.1155
    190  CG       589.0030  -32.1800  197.6690 C.2   407  ASN407      0.2627
    191  OD1      588.8760  -33.2560  197.1010 O.2   407  ASN407     -0.2716
    192  ND2      588.5780  -31.9760  198.9080 N.am  407  ASN407     -0.0877
@<TRIPOS>BOND
     1   188   187    2
     2   187   186    1
     3   185   186    1
     4   186   189    1
     5   189   190    1
     6   191   190    2
     7   190   192   am
     8   180   179    2
     9   179   178    1
    10   177   178    1
    11   178   181    1
    12    15    14    2
    13    74    75    1
    14    74    71    1
    15   181   182    1
    16    77    76    2
    17    90    89    2
    18    75    76    1
    19    73    72    2
    20    12    13    1
    21    91    92    1
    22    91    88    1
    23    13    14    1
    24    13    16    1
    25    72    71    1
    26    89    88    1
    27   183   182    2
    28    76    78   am
    29    93    92    2
    30    92    94   am
    31   182   184   am
    32    71    70    1
    33    10     8   ar
    34    10    11   ar
    35    18    16    1
    36    88    87    1
    37    17    16    1
    38     8     6   ar
    39    98    97    2
    40    97    96    1
    41    11     9   ar
    42    70    63   am
    43    87    81   am
    44     4     3    2
    45     2     1    1
    46     2     5    1
    47     2     3    1
    48     6     5    1
    49     6     7   ar
    50   165   163   ar
    51   165   164   ar
    52     9     7   ar
    53    95    96    1
    54    96    99    1
    55    81    82    2
    56    81    80    1
    57    79    80    1
    58    63    64    2
    59    63    62    1
    60   163   161   ar
    61    99   100    1
    62   164   162   ar
    63    61    62    1
    64    84    86    1
    65    84    83    1
    66    80    83    1
    67    68    67    2
    68    62    65    1
    69    65    66    1
    70    83    85    1
    71   161   159   ar
    72   161   160   ar
    73   162   159   ar
    74   100   101   ar
    75   100   102   ar
    76    67    66    1
    77    67    69   am
    78   159   157   ar
    79   160   158   ar
    80   101   103   ar
    81    58    60    1
    82    58    57    1
    83   102   104   ar
    84    27    28   ar
    85    27    25   ar
    86    28    26   ar
    87    45    43    1
    88    44    42    1
    89    56    55    2
    90    43    42    1
    91    54    57    1
    92    54    53    1
    93    54    55    1
    94   158   157   ar
    95   157   156    1
    96    57    59    1
    97   103   105   ar
    98   104   105   ar
    99    25    24   ar
   100   129   131   ar
   101   129   127   ar
   102    42    39    1
   103    26    24   ar
   104   131   130   ar
   105    41    40    2
   106    39    40    1
   107    39    38    1
   108   153   152    1
   109   153   156    1
   110   153   154    1
   111    24    23    1
   112   127   126   ar
   113    40    46   am
   114   155   154    2
   115   130   128   ar
   116   144   143    2
   117   154   166   am
   118    22    21    2
   119   126   128   ar
   120   126   125    1
   121    46    47    1
   122    23    20    1
   123   142   143    1
   124   142   141    1
   125   143   145   am
   126    47    48    1
   127    47    50    1
   128    49    48    2
   129    21    20    1
   130    21    29   am
   131   125   122    1
   132   113   111   am
   133   166   167    1
   134    20    19    1
   135   112   111    2
   136    32    31    2
   137   111   110    1
   138   139   138   ar
   139   148   147    2
   140    52    50    1
   141   168   167    1
   142   168   169    2
   143    30    29    1
   144    30    31    1
   145    30    33    1
   146   140   138   ar
   147   145   146    1
   148   145   151    1
   149    50    51    1
   150   147   146    1
   151   122   123    1
   152   122   121    1
   153   167   170    1
   154   146   149    1
   155   110   107    1
   156   138   137    1
   157   124   123    2
   158   123   132   am
   159    33    34    1
   160    34    35    1
   161   151   150    1
   162   170   171    1
   163   132   133    1
   164   107   106    1
   165   107   108    1
   166   149   150    1
   167   133   136    1
   168   133   134    1
   169   137   136    1
   170   119   118    1
   171   171   173   ar
   172   171   172   ar
   173   108   109    2
   174    35    37   am
   175    35    36    2
   176   173   175   ar
   177   134   135    2
   178   172   174   ar
   179   120   118    1
   180   118   115    1
   181   175   176   ar
   182   174   176   ar
   183   115   114    1
   184   115   116    1
   185   116   117    2
