@<TRIPOS>MOLECULE
tmp/4pyvA01.pdb
 203 193 0 0 0
SMALL
GASTEIGER

@<TRIPOS>ATOM
      1  N         53.5910  102.8540    7.2840 N.3    16  THR16      -0.1203
      2  CA        52.2630  103.0370    7.8500 C.3    16  THR16       0.1994
      3  C         52.1130  104.3680    8.5430 C.2    16  THR16       0.2617
      4  O         50.9880  104.8620    8.6430 O.2    16  THR16      -0.2717
      5  CB        51.9130  101.8940    8.8000 C.3    16  THR16       0.1784
      6  OG1       52.9300  101.7590    9.7790 O.3    16  THR16      -0.2211
      7  CG2       51.7310  100.5920    8.1010 C.3    16  THR16       0.0376
      8  N         53.2090  104.9430    9.0760 N.am   17  GLN17      -0.1979
      9  CA        53.0840  106.2390    9.7510 C.3    17  GLN17       0.1601
     10  C         54.1180  107.1470    9.2140 C.2    17  GLN17       0.2287
     11  O         55.2980  106.7800    9.1770 O.2    17  GLN17      -0.2864
     12  CB        53.2390  106.1300   11.2740 C.3    17  GLN17       0.0394
     13  CG        52.1480  105.3070   11.9660 C.3    17  GLN17       0.0908
     14  CD        52.5660  104.8240   13.3240 C.2    17  GLN17       0.2608
     15  OE1       53.2480  105.5360   14.0720 O.2    17  GLN17      -0.2717
     16  NE2       52.1440  103.6050   13.6740 N.am   17  GLN17      -0.0878
     17  N         51.2170  113.5540   12.7060 N.3    34  VAL34      -0.1245
     18  CA        50.7160  113.0880   11.4250 C.3    34  VAL34       0.1561
     19  C         49.9130  114.2570   10.7930 C.2    34  VAL34       0.2260
     20  O         49.0550  114.8310   11.4620 O.2    34  VAL34      -0.2867
     21  CB        49.8470  111.8250   11.6250 C.3    34  VAL34       0.0252
     22  CG1       49.0280  111.5360   10.3820 C.3    34  VAL34       0.0019
     23  CG2       50.7140  110.6320   11.9770 C.3    34  VAL34       0.0019
     24  N         47.1520  115.0360    8.5510 N.3    36  ASP36      -0.1239
     25  CA        45.9270  114.3260    8.1570 C.3    36  ASP36       0.1674
     26  C         44.9140  115.1370    7.3210 C.2    36  ASP36       0.2266
     27  O         44.2480  116.0080    7.8610 O.2    36  ASP36      -0.2867
     28  CB        45.2710  113.8020    9.4540 C.3    36  ASP36       0.1410
     29  CG        44.0640  112.8900    9.3560 C.2    36  ASP36       0.3668
     30  OD1       43.7940  112.3830    8.2550 O.co2  36  ASP36      -0.2456
     31  OD2       43.4350  112.6180   10.4140 O.co2  36  ASP36      -0.2456
     32  N         42.1690  113.8650    6.1240 N.3    38  GLY38      -0.1210
     33  CA        40.8720  113.3250    6.4970 C.3    38  GLY38       0.1956
     34  C         40.2570  113.8820    7.7760 C.2    38  GLY38       0.2613
     35  O         39.1970  113.4120    8.1890 O.2    38  GLY38      -0.2717
     36  N         40.9310  114.8520    8.4400 N.am   39  SER39      -0.1938
     37  CA        40.4960  115.5140    9.6900 C.3    39  SER39       0.2055
     38  C         40.9670  116.9700    9.7060 C.2    39  SER39       0.2644
     39  O         41.8260  117.3280    8.9080 O.2    39  SER39      -0.2714
     40  CB        40.9680  114.7500   10.9260 C.3    39  SER39       0.2130
     41  OG        42.3200  115.0230   11.2550 O.3    39  SER39      -0.2179
     42  N         40.3870  117.8140   10.5690 N.am   40  SER40      -0.1935
     43  CA        40.7070  119.2450   10.5600 C.3    40  SER40       0.2055
     44  C         41.1370  119.8470   11.9010 C.2    40  SER40       0.2643
     45  O         41.3630  121.0580   11.9870 O.2    40  SER40      -0.2714
     46  CB        39.5280  120.0400   10.0030 C.3    40  SER40       0.2130
     47  OG        38.8080  119.3030    9.0310 O.3    40  SER40      -0.2179
     48  N         41.2650  119.0150   12.9260 N.am   41  ASN41      -0.1971
     49  CA        41.6790  119.4670   14.2500 C.3    41  ASN41       0.1688
     50  C         43.1570  119.1730   14.5190 C.2    41  ASN41       0.2292
     51  O         43.6960  118.1570   14.0590 O.2    41  ASN41      -0.2864
     52  CB        40.8370  118.7860   15.3390 C.3    41  ASN41       0.1181
     53  CG        39.3680  119.1260   15.2850 C.2    41  ASN41       0.2629
     54  OD1       38.5980  118.4500   14.5960 O.2    41  ASN41      -0.2716
     55  ND2       38.9400  120.1560   16.0280 N.am   41  ASN41      -0.0877
     56  N         36.8460  113.4940   19.8300 N.3    79  LEU79      -0.1231
     57  CA        37.2020  113.1420   18.4640 C.3    79  LEU79       0.1693
     58  C         37.0020  111.6590   18.3090 C.2    79  LEU79       0.2592
     59  O         37.7140  110.8620   18.9300 O.2    79  LEU79      -0.2718
     60  CB        38.6600  113.5430   18.1640 C.3    79  LEU79       0.0284
     61  CG        39.0740  114.9670   18.5220 C.3    79  LEU79       0.0019
     62  CD1       40.5620  115.1450   18.3690 C.3    79  LEU79       0.0001
     63  CD2       38.3740  115.9790   17.6430 C.3    79  LEU79       0.0001
     64  N         35.9750  111.2830   17.5390 N.am   80  ARG80      -0.1966
     65  CA        35.6790  109.8710   17.3130 C.3    80  ARG80       0.1729
     66  C         36.2780  109.4930   15.9910 C.2    80  ARG80       0.2616
     67  O         35.8250  109.9490   14.9420 O.2    80  ARG80      -0.2715
     68  CB        34.1750  109.5690   17.4030 C.3    80  ARG80       0.0348
     69  CG        33.6520  109.5300   18.8450 C.3    80  ARG80       0.0492
     70  CD        32.1490  109.7980   18.9250 C.3    80  ARG80       0.2205
     71  NE        31.7440  110.2020   20.2710 N.pl3  80  ARG80      -0.0865
     72  CZ        31.4510  111.4470   20.6320 C.cat  80  ARG80       0.5346
     73  NH1       31.4960  112.4340   19.7410 N.pl3  80  ARG80       0.1354
     74  NH2       31.1120  111.7170   21.8880 N.pl3  80  ARG80       0.1354
     75  N         37.3830  108.7740   16.0590 N.am   81  TYR81      -0.1960
     76  CA        38.1250  108.3240   14.8930 C.3    81  TYR81       0.1771
     77  C         37.6240  106.9320   14.4860 C.2    81  TYR81       0.2620
     78  O         37.0860  106.1870   15.3150 O.2    81  TYR81      -0.2715
     79  CB        39.6550  108.3050   15.1970 C.3    81  TYR81       0.0574
     80  CG        40.3210  109.6690   15.2300 C.ar   81  TYR81      -0.0198
     81  CD1       40.4650  110.4230   14.0700 C.ar   81  TYR81      -0.0009
     82  CD2       40.8420  110.1890   16.4140 C.ar   81  TYR81      -0.0009
     83  CE1       41.0880  111.6690   14.0860 C.ar   81  TYR81       0.0417
     84  CE2       41.4580  111.4450   16.4440 C.ar   81  TYR81       0.0417
     85  CZ        41.5930  112.1710   15.2700 C.ar   81  TYR81       0.1957
     86  OH        42.1810  113.4090   15.2340 O.3    81  TYR81      -0.2866
     87  N         37.8010  106.5890   13.2000 N.am   82  SER82      -0.1936
     88  CA        37.4260  105.2760   12.6530 C.3    82  SER82       0.2055
     89  C         38.2420  104.1370   13.3100 C.2    82  SER82       0.2643
     90  O         37.7690  102.9990   13.3540 O.2    82  SER82      -0.2714
     91  CB        37.5800  105.2560   11.1290 C.3    82  SER82       0.2130
     92  OG        38.8620  105.6780   10.6860 O.3    82  SER82      -0.2179
     93  N         39.4550  104.4700   13.8380 N.am   83  THR83      -0.1950
     94  CA        40.4000  103.5750   14.5340 C.3    83  THR83       0.1897
     95  C         40.2440  103.6070   16.0750 C.2    83  THR83       0.2313
     96  O         40.6160  102.6440   16.7420 O.2    83  THR83      -0.2863
     97  CB        41.8640  103.8670   14.1040 C.3    83  THR83       0.1794
     98  OG1       42.0350  105.2710   13.9360 O.3    83  THR83      -0.2208
     99  CG2       42.2660  103.1540   12.8150 C.3    83  THR83       0.0378
    100  N         44.2700  102.1910   19.9950 N.3   116  PRO116     -0.2102
    101  CA        45.4550  102.0300   19.1200 C.3   116  PRO116      0.1504
    102  C         46.7200  102.8810   19.3900 C.2   116  PRO116      0.2575
    103  O         47.7480  102.6640   18.7330 O.2   116  PRO116     -0.2718
    104  CB        44.8910  102.4490   17.7520 C.3   116  PRO116      0.0282
    105  CG        43.9600  103.5880   18.1080 C.3   116  PRO116      0.0208
    106  CD        43.3490  103.2130   19.4480 C.3   116  PRO116      0.0893
    107  N         46.6400  103.8650   20.2950 N.am  117  PHE117     -0.1977
    108  CA        47.7130  104.8260   20.5000 C.3   117  PHE117      0.1639
    109  C         48.9980  104.2640   21.1330 C.2   117  PHE117      0.2290
    110  O         49.9990  104.9590   21.1010 O.2   117  PHE117     -0.2864
    111  CB        47.1920  106.0730   21.2320 C.3   117  PHE117      0.0560
    112  CG        46.2180  106.8130   20.3220 C.ar  117  PHE117     -0.0200
    113  CD1       46.6770  107.5670   19.2520 C.ar  117  PHE117     -0.0042
    114  CD2       44.8390  106.6450   20.4620 C.ar  117  PHE117     -0.0042
    115  CE1       45.7740  108.1770   18.3690 C.ar  117  PHE117     -0.0003
    116  CE2       43.9480  107.2360   19.5640 C.ar  117  PHE117     -0.0003
    117  CZ        44.4180  108.0000   18.5310 C.ar  117  PHE117     -0.0000
    118  N         50.5210  101.9550   19.5880 N.3   119  LEU119     -0.1231
    119  CA        51.1710  101.6130   18.3240 C.3   119  LEU119      0.1693
    120  C         51.6450  102.8440   17.5840 C.2   119  LEU119      0.2591
    121  O         52.3590  102.7350   16.5850 O.2   119  LEU119     -0.2718
    122  CB        50.2290  100.8250   17.4000 C.3   119  LEU119      0.0284
    123  CG        49.6010   99.5130   17.9540 C.3   119  LEU119      0.0019
    124  CD1       48.5620   98.9780   16.9960 C.3   119  LEU119      0.0001
    125  CD2       50.6540   98.4380   18.2490 C.3   119  LEU119      0.0001
    126  N         51.1820  104.0200   18.0150 N.am  120  ALA120     -0.1980
    127  CA        51.5320  105.2990   17.3910 C.3   120  ALA120      0.1597
    128  C         52.9640  105.7170   17.7820 C.2   120  ALA120      0.2287
    129  O         53.3150  105.7290   18.9610 O.2   120  ALA120     -0.2864
    130  CB        50.5340  106.3800   17.7920 C.3   120  ALA120      0.0319
    131  N         53.9920  108.5810   16.4950 N.3   122  PHE122     -0.1241
    132  CA        53.7000  110.0090   16.5570 C.3   122  PHE122      0.1605
    133  C         52.9660  110.3470   17.8770 C.2   122  PHE122      0.2264
    134  O         52.3330  109.4700   18.4680 O.2   122  PHE122     -0.2867
    135  CB        52.8330  110.4170   15.3390 C.3   122  PHE122      0.0534
    136  CG        51.5140  109.6820   15.1920 C.ar  122  PHE122     -0.0203
    137  CD1       51.4480  108.4690   14.5220 C.ar  122  PHE122     -0.0042
    138  CD2       50.3350  110.2140   15.7070 C.ar  122  PHE122     -0.0042
    139  CE1       50.2260  107.7890   14.3830 C.ar  122  PHE122     -0.0003
    140  CE2       49.1200  109.5230   15.5840 C.ar  122  PHE122     -0.0003
    141  CZ        49.0750  108.3190   14.9170 C.ar  122  PHE122     -0.0000
    142  N         48.1730  114.8550   16.0150 N.3   125  VAL125     -0.1245
    143  CA        47.7120  115.0270   14.6460 C.3   125  VAL125      0.1561
    144  C         47.5000  116.4910   14.2880 C.2   125  VAL125      0.2260
    145  O         46.9950  117.2390   15.0920 O.2   125  VAL125     -0.2867
    146  CB        46.3930  114.1840   14.4140 C.3   125  VAL125      0.0252
    147  CG1       45.9010  114.2800   12.9720 C.3   125  VAL125      0.0019
    148  CG2       46.5420  112.7060   14.8440 C.3   125  VAL125      0.0019
    149  N         34.7000  120.2020    8.7760 N.3   133  GLN133     -0.1245
    150  CA        34.9220  118.9320    9.4900 C.3   133  GLN133      0.1566
    151  C         35.5590  119.1260   10.8680 C.2   133  GLN133      0.2260
    152  O         35.7360  118.1460   11.5990 O.2   133  GLN133     -0.2867
    153  CB        35.7930  117.9540    8.6770 C.3   133  GLN133      0.0367
    154  CG        35.3800  117.7170    7.2390 C.3   133  GLN133      0.0905
    155  CD        35.5770  116.2760    6.8410 C.2   133  GLN133      0.2608
    156  OE1       34.6680  115.4600    7.0290 O.2   133  GLN133     -0.2717
    157  NE2       36.7370  115.9340    6.2660 N.am  133  GLN133     -0.0878
    158  N         35.8420  119.6980   14.5790 N.3   135  ILE135     -0.1245
    159  CA        35.0690  119.4750   15.7970 C.3   135  ILE135      0.1561
    160  C         35.1820  120.7210   16.6510 C.2   135  ILE135      0.2260
    161  O         36.2890  121.2100   16.8860 O.2   135  ILE135     -0.2867
    162  CB        35.5590  118.1970   16.5130 C.3   135  ILE135      0.0252
    163  CG1       35.5110  116.9460   15.5550 C.3   135  ILE135      0.0019
    164  CG2       34.8430  117.9540   17.8540 C.3   135  ILE135      0.0019
    165  CD1       34.1380  116.3400   15.2150 C.3   135  ILE135      0.0001
    166  N         38.0220  109.4970   -0.9000 N.3   219  LEU219     -0.1245
    167  CA        38.5920  110.4390    0.0540 C.3   219  LEU219      0.1561
    168  C         40.1240  110.3010   -0.0400 C.2   219  LEU219      0.2260
    169  O         40.6480  109.1910    0.0790 O.2   219  LEU219     -0.2867
    170  CB        38.0690  110.1060    1.4780 C.3   219  LEU219      0.0270
    171  CG        38.6850  110.8750    2.6750 C.3   219  LEU219      0.0019
    172  CD1       38.2350  112.3380    2.7170 C.3   219  LEU219      0.0001
    173  CD2       38.3610  110.1800    3.9810 C.3   219  LEU219      0.0001
    174  N         43.1000  110.7560    1.7440 N.3   221  ASP221     -0.1239
    175  CA        43.4700  110.7890    3.1510 C.3   221  ASP221      0.1674
    176  C         44.9410  110.4940    3.4730 C.2   221  ASP221      0.2266
    177  O         45.3430  109.3300    3.6410 O.2   221  ASP221     -0.2867
    178  CB        42.5540  109.7980    3.8860 C.3   221  ASP221      0.1410
    179  CG        42.4140  109.9910    5.3670 C.2   221  ASP221      0.3668
    180  OD1       43.1140  110.8600    5.9210 O.co2 221  ASP221     -0.2456
    181  OD2       41.6150  109.2570    5.9810 O.co2 221  ASP221     -0.2456
    182  N         46.3130  110.8520    6.2710 N.3   223  GLY223     -0.1210
    183  CA        46.3530  110.2750    7.6140 C.3   223  GLY223      0.1956
    184  C         46.0290  108.8040    7.6770 C.2   223  GLY223      0.2612
    185  O         46.1980  108.1830    8.7220 O.2   223  GLY223     -0.2717
    186  N         45.5190  108.2370    6.5830 N.am  224  ALA224     -0.1965
    187  CA        45.1870  106.8150    6.5450 C.3   224  ALA224      0.1728
    188  C         46.4340  106.0480    6.0350 C.2   224  ALA224      0.2616
    189  O         47.0590  106.4910    5.0610 O.2   224  ALA224     -0.2715
    190  CB        43.9810  106.5950    5.6330 C.3   224  ALA224      0.0334
    191  N         46.8310  104.9560    6.7220 N.am  225  SER225     -0.1950
    192  CA        47.9950  104.1410    6.3490 C.3   225  SER225      0.1924
    193  C         47.7710  103.3980    5.0220 C.2   225  SER225      0.2314
    194  O         48.6410  103.3570    4.1430 O.2   225  SER225     -0.2863
    195  CB        48.2830  103.0820    7.4140 C.3   225  SER225      0.2116
    196  OG        48.5530  103.5990    8.7040 O.3   225  SER225     -0.2180
    197  N         31.1810  106.4320    8.3250 N.3   301  PRO301     -0.2116
    198  CA        29.7630  106.8130    8.4520 C.3   301  PRO301      0.1372
    199  C         29.4240  108.1240    7.7410 C.2   301  PRO301      0.2244
    200  O         30.3220  108.9640    7.5870 O.2   301  PRO301     -0.2868
    201  CB        29.5690  106.9350    9.9680 C.3   301  PRO301      0.0268
    202  CG        30.8990  107.3530   10.4860 C.3   301  PRO301      0.0207
    203  CD        31.9490  106.8230    9.5270 C.3   301  PRO301      0.0892
@<TRIPOS>BOND
     1   166   167    1
     2   168   167    1
     3   168   169    2
     4   167   170    1
     5   170   171    1
     6   174   175    1
     7   171   172    1
     8   171   173    1
     9   175   176    1
    10   175   178    1
    11   176   177    2
    12   178   179    1
    13   194   193    2
    14   193   192    1
    15   189   188    2
    16   179   180   ar
    17   179   181   ar
    18   190   187    1
    19   188   187    1
    20   188   191   am
    21    32    33    1
    22   157   155   am
    23   182   183    1
    24   192   191    1
    25   192   195    1
    26    33    34    1
    27   187   186    1
    28   186   184   am
    29   155   156    2
    30   155   154    1
    31   154   153    1
    32     1     2    1
    33    26    27    2
    34    26    25    1
    35   195   196    1
    36   200   199    2
    37   183   184    1
    38   184   185    2
    39   199   198    1
    40    34    35    2
    41    34    36   am
    42     2     3    1
    43     2     5    1
    44     7     5    1
    45    25    24    1
    46    25    28    1
    47    30    29   ar
    48   197   198    1
    49   197   203    1
    50    36    37    1
    51   198   201    1
    52     3     4    2
    53     3     8   am
    54   153   150    1
    55   149   150    1
    56     5     6    1
    57    39    38    2
    58    47    46    1
    59     8     9    1
    60    11    10    2
    61    10     9    1
    62    29    28    1
    63    29    31   ar
    64   150   151    1
    65   203   202    1
    66    37    38    1
    67    37    40    1
    68    38    42   am
    69     9    12    1
    70   201   202    1
    71    46    43    1
    72    22    21    1
    73    43    42    1
    74    43    44    1
    75    92    91    1
    76    19    18    1
    77    19    20    2
    78   151   152    2
    79    40    41    1
    80    91    88    1
    81    12    13    1
    82    18    21    1
    83    18    17    1
    84    21    23    1
    85    44    45    2
    86    44    48   am
    87    13    14    1
    88    88    87    1
    89    88    89    1
    90    99    97    1
    91    48    49    1
    92   147   146    1
    93    87    77   am
    94    89    90    2
    95    89    93   am
    96    14    16   am
    97    14    15    2
    98    93    94    1
    99    98    97    1
   100    51    50    2
   101    81    83   ar
   102    81    80   ar
   103    83    85   ar
   104    97    94    1
   105    49    50    1
   106    49    52    1
   107   144   143    1
   108   144   145    2
   109   139   137   ar
   110   139   141   ar
   111   146   143    1
   112   146   148    1
   113    77    76    1
   114    77    78    2
   115   137   136   ar
   116    94    95    1
   117   158   159    1
   118    54    53    2
   119   143   142    1
   120    76    79    1
   121    76    75    1
   122   141   140   ar
   123    67    66    2
   124   136   135    1
   125   136   138   ar
   126    79    80    1
   127   165   163    1
   128    80    82   ar
   129    86    85    1
   130    85    84   ar
   131    53    52    1
   132    53    55   am
   133   135   132    1
   134   163   162    1
   135   140   138   ar
   136   159   162    1
   137   159   160    1
   138    66    75   am
   139    66    65    1
   140    95    96    2
   141    82    84   ar
   142   131   132    1
   143   162   164    1
   144   132   133    1
   145   121   120    2
   146   160   161    2
   147   124   123    1
   148    65    68    1
   149    65    64    1
   150   127   128    1
   151   127   130    1
   152   127   126    1
   153   122   123    1
   154   122   119    1
   155    68    69    1
   156    64    58   am
   157   120   126   am
   158   120   119    1
   159    63    61    1
   160   104   105    1
   161   104   101    1
   162   128   129    2
   163   133   134    2
   164   123   125    1
   165   105   106    1
   166    60    57    1
   167    60    61    1
   168    58    57    1
   169    58    59    2
   170   119   118    1
   171    62    61    1
   172   115   117   ar
   173   115   113   ar
   174    57    56    1
   175   117   116   ar
   176   103   102    2
   177    69    70    1
   178    70    71    1
   179   101   102    1
   180   101   100    1
   181   113   112   ar
   182   102   107   am
   183   106   100    1
   184   116   114   ar
   185    73    72    1
   186    71    72    2
   187   107   108    1
   188   112   114   ar
   189   112   111    1
   190   108   109    1
   191   108   111    1
   192    72    74    1
   193   110   109    2
