@<TRIPOS>MOLECULE
tmp/4pywA01.pdb
 229 222 0 0 0
SMALL
GASTEIGER

@<TRIPOS>ATOM
      1  N         26.1970  -17.0790  -21.3330 N.3    31  SER31      -0.1217
      2  CA        26.3440  -15.7110  -21.7830 C.3    31  SER31       0.1889
      3  C         26.3760  -15.7300  -23.2900 C.2    31  SER31       0.2288
      4  O         27.4060  -16.0880  -23.8820 O.2    31  SER31      -0.2866
      5  CB        27.6490  -15.1000  -21.3270 C.3    31  SER31       0.2089
      6  OG        27.8580  -13.8430  -21.9660 O.3    31  SER31      -0.2183
      7  N         29.2360  -13.6720  -24.6260 N.3    34  SER34      -0.1202
      8  CA        30.6120  -14.1640  -24.4500 C.3    34  SER34       0.2020
      9  C         30.9270  -15.1480  -25.5650 C.2    34  SER34       0.2618
     10  O         32.0150  -15.1380  -26.1460 O.2    34  SER34      -0.2717
     11  CB        30.8280  -14.8320  -23.0960 C.3    34  SER34       0.2103
     12  OG        32.0790  -15.5170  -23.0910 O.3    34  SER34      -0.2182
     13  N         29.9540  -15.9860  -25.8770 N.am   35  ILE35      -0.1979
     14  CA        30.1380  -16.9920  -26.9060 C.3    35  ILE35       0.1595
     15  C         30.2880  -16.3450  -28.2720 C.2    35  ILE35       0.2287
     16  O         31.2910  -16.5660  -28.9680 O.2    35  ILE35      -0.2864
     17  CB        28.9970  -18.0060  -26.8800 C.3    35  ILE35       0.0276
     18  CG1       29.0640  -18.7730  -25.5570 C.3    35  ILE35       0.0022
     19  CG2       29.0990  -18.9630  -28.0580 C.3    35  ILE35       0.0022
     20  CD1       27.8510  -19.6200  -25.2680 C.3    35  ILE35       0.0001
     21  N         33.6560  -14.4200  -28.7290 N.3    38  ALA38      -0.1231
     22  CA        34.8050  -15.2900  -28.9560 C.3    38  ALA38       0.1694
     23  C         34.8500  -15.8170  -30.3950 C.2    38  ALA38       0.2592
     24  O         35.9380  -15.9230  -30.9780 O.2    38  ALA38      -0.2718
     25  CB        34.7970  -16.4530  -27.9840 C.3    38  ALA38       0.0304
     26  N         33.6860  -16.1450  -30.9570 N.am   39  PHE39      -0.1976
     27  CA        33.6270  -16.7290  -32.2880 C.3    39  PHE39       0.1639
     28  C         33.6340  -15.7130  -33.4350 C.2    39  PHE39       0.2290
     29  O         34.1860  -15.9910  -34.5010 O.2    39  PHE39      -0.2864
     30  CB        32.4400  -17.6720  -32.3960 C.3    39  PHE39       0.0560
     31  CG        32.7050  -19.0200  -31.8020 C.ar   39  PHE39      -0.0200
     32  CD1       33.1200  -20.0630  -32.5930 C.ar   39  PHE39      -0.0042
     33  CD2       32.5820  -19.2340  -30.4400 C.ar   39  PHE39      -0.0042
     34  CE1       33.3710  -21.3160  -32.0570 C.ar   39  PHE39      -0.0003
     35  CE2       32.8240  -20.4800  -29.8910 C.ar   39  PHE39      -0.0003
     36  CZ        33.2240  -21.5250  -30.7030 C.ar   39  PHE39      -0.0000
     37  N         37.3320  -15.1540  -33.4780 N.3    42  LEU42      -0.1245
     38  CA        37.9030  -16.2980  -34.1910 C.3    42  LEU42       0.1561
     39  C         37.6920  -16.2700  -35.7060 C.2    42  LEU42       0.2260
     40  O         38.6370  -16.4910  -36.4780 O.2    42  LEU42      -0.2867
     41  CB        37.2950  -17.5980  -33.6740 C.3    42  LEU42       0.0270
     42  CG        37.9490  -18.8350  -34.3000 C.3    42  LEU42       0.0019
     43  CD1       39.3600  -18.9710  -33.7580 C.3    42  LEU42       0.0001
     44  CD2       37.1560  -20.1110  -34.0580 C.3    42  LEU42       0.0001
     45  N         41.5670  -15.9460  -16.6990 N.3   139  VAL139     -0.1245
     46  CA        40.1540  -16.0100  -16.3760 C.3   139  VAL139      0.1561
     47  C         39.8980  -15.7310  -14.8960 C.2   139  VAL139      0.2260
     48  O         39.0100  -14.9570  -14.5470 O.2   139  VAL139     -0.2867
     49  CB        39.5730  -17.3820  -16.7420 C.3   139  VAL139      0.0252
     50  CG1       38.0710  -17.4310  -16.4380 C.3   139  VAL139      0.0019
     51  CG2       39.8140  -17.6640  -18.2160 C.3   139  VAL139      0.0019
     52  N         37.6770  -12.6230  -13.7960 N.3   143  THR143     -0.1218
     53  CA        36.5040  -13.0300  -13.0540 C.3   143  THR143      0.1862
     54  C         36.6410  -12.7630  -11.5110 C.2   143  THR143      0.2287
     55  O         35.8670  -13.2550  -10.6800 O.2   143  THR143     -0.2866
     56  CB        36.3000  -14.5200  -13.4210 C.3   143  THR143      0.1770
     57  OG1       35.7900  -14.6190  -14.7750 O.3   143  THR143     -0.2211
     58  CG2       35.3960  -15.1900  -12.5000 C.3   143  THR143      0.0375
     59  N         36.2380  -17.9440  -10.9930 N.3   147  ILE147     -0.1245
     60  CA        36.3640  -19.0630  -11.9110 C.3   147  ILE147      0.1561
     61  C         37.8360  -19.3990  -11.9740 C.2   147  ILE147      0.2260
     62  O         38.5920  -18.6630  -12.6060 O.2   147  ILE147     -0.2867
     63  CB        35.8460  -18.7230  -13.3170 C.3   147  ILE147      0.0252
     64  CG1       34.4030  -18.2000  -13.2550 C.3   147  ILE147      0.0019
     65  CG2       35.9420  -19.9530  -14.2050 C.3   147  ILE147      0.0019
     66  CD1       33.3530  -19.2640  -13.0700 C.3   147  ILE147      0.0001
     67  N         38.3940  -22.8920  -15.6670 N.3   150  LEU150     -0.1231
     68  CA        37.5850  -22.9670  -16.8660 C.3   150  LEU150      0.1693
     69  C         38.0650  -24.1200  -17.7320 C.2   150  LEU150      0.2591
     70  O         37.2940  -25.0020  -18.0640 O.2   150  LEU150     -0.2718
     71  CB        37.6470  -21.6550  -17.6440 C.3   150  LEU150      0.0284
     72  CG        37.0020  -21.6860  -19.0370 C.3   150  LEU150      0.0019
     73  CD1       35.5530  -22.1500  -18.9200 C.3   150  LEU150      0.0001
     74  CD2       37.1120  -20.3260  -19.7210 C.3   150  LEU150      0.0001
     75  N         39.3510  -24.1150  -18.0650 N.am  151  VAL151     -0.1980
     76  CA        39.9370  -25.1130  -18.9450 C.3   151  VAL151      0.1595
     77  C         40.4930  -26.2750  -18.1490 C.2   151  VAL151      0.2287
     78  O         41.3900  -26.0860  -17.3340 O.2   151  VAL151     -0.2864
     79  CB        41.1260  -24.5320  -19.7320 C.3   151  VAL151      0.0276
     80  CG1       41.8610  -25.6370  -20.4870 C.3   151  VAL151      0.0022
     81  CG2       40.6690  -23.4380  -20.6770 C.3   151  VAL151      0.0022
     82  N         47.5240  -22.6990  -29.7360 N.3   160  PHE160     -0.1227
     83  CA        46.7150  -21.5150  -29.8810 C.3   160  PHE160      0.1736
     84  C         45.4180  -21.7220  -29.1090 C.2   160  PHE160      0.2595
     85  O         44.8650  -22.8160  -29.1270 O.2   160  PHE160     -0.2718
     86  CB        46.4710  -21.2980  -31.3660 C.3   160  PHE160      0.0547
     87  CG        45.2640  -20.4800  -31.6720 C.ar  160  PHE160     -0.0202
     88  CD1       43.9940  -21.0450  -31.6310 C.ar  160  PHE160     -0.0042
     89  CD2       45.3920  -19.1470  -32.0300 C.ar  160  PHE160     -0.0042
     90  CE1       42.8740  -20.2830  -31.9220 C.ar  160  PHE160     -0.0003
     91  CE2       44.2750  -18.3820  -32.3290 C.ar  160  PHE160     -0.0003
     92  CZ        43.0170  -18.9470  -32.2720 C.ar  160  PHE160     -0.0000
     93  N         44.9700  -20.6840  -28.4010 N.am  161  ALA161     -0.1966
     94  CA        43.6730  -20.6830  -27.7120 C.3   161  ALA161      0.1728
     95  C         43.1660  -19.2650  -27.5270 C.2   161  ALA161      0.2616
     96  O         43.9510  -18.3090  -27.4470 O.2   161  ALA161     -0.2715
     97  CB        43.7580  -21.3750  -26.3670 C.3   161  ALA161      0.0334
     98  N         41.8430  -19.1530  -27.4160 N.am  162  LEU162     -0.1963
     99  CA        41.1390  -17.8770  -27.3720 C.3   162  LEU162      0.1728
    100  C         40.1590  -17.9020  -26.1940 C.2   162  LEU162      0.2616
    101  O         39.4640  -18.8840  -25.9600 O.2   162  LEU162     -0.2715
    102  CB        40.4150  -17.6510  -28.7030 C.3   162  LEU162      0.0311
    103  CG        40.2280  -16.1870  -29.1210 C.3   162  LEU162      0.0022
    104  CD1       39.9680  -16.0960  -30.6230 C.3   162  LEU162      0.0001
    105  CD2       39.1170  -15.5140  -28.3060 C.3   162  LEU162      0.0001
    106  N         40.1270  -16.8180  -25.4400 N.am  163  VAL163     -0.1963
    107  CA        39.3410  -16.7560  -24.2370 C.3   163  VAL163      0.1727
    108  C         38.5840  -15.4390  -24.2110 C.2   163  VAL163      0.2616
    109  O         39.1130  -14.3750  -24.5520 O.2   163  VAL163     -0.2715
    110  CB        40.2500  -16.8630  -22.9780 C.3   163  VAL163      0.0290
    111  CG1       39.4850  -16.5130  -21.7050 C.3   163  VAL163      0.0023
    112  CG2       40.8580  -18.2550  -22.8680 C.3   163  VAL163      0.0023
    113  N         37.3350  -15.5220  -23.7990 N.am  164  ASN164     -0.1958
    114  CA        36.5680  -14.3510  -23.4870 C.3   164  ASN164      0.1819
    115  C         36.0060  -14.5740  -22.1130 C.2   164  ASN164      0.2621
    116  O         35.5170  -15.6610  -21.8050 O.2   164  ASN164     -0.2715
    117  CB        35.3990  -14.1700  -24.4560 C.3   164  ASN164      0.1195
    118  CG        34.4430  -13.1000  -23.9810 C.2   164  ASN164      0.2630
    119  OD1       34.5030  -11.9500  -24.4190 O.2   164  ASN164     -0.2716
    120  ND2       33.6120  -13.4520  -23.0120 N.am  164  ASN164     -0.0877
    121  N         36.0420  -13.5330  -21.2970 N.am  165  TYR165     -0.1960
    122  CA        35.3580  -13.5670  -20.0340 C.3   165  TYR165      0.1771
    123  C         34.5180  -12.3240  -19.9350 C.2   165  TYR165      0.2619
    124  O         34.8430  -11.3000  -20.5280 O.2   165  TYR165     -0.2715
    125  CB        36.3360  -13.6170  -18.8580 C.3   165  TYR165      0.0574
    126  CG        37.0540  -12.3110  -18.6370 C.ar  165  TYR165     -0.0198
    127  CD1       36.4710  -11.2990  -17.9000 C.ar  165  TYR165     -0.0009
    128  CD2       38.3230  -12.0900  -19.1580 C.ar  165  TYR165     -0.0009
    129  CE1       37.1060  -10.1000  -17.6910 C.ar  165  TYR165      0.0417
    130  CE2       38.9720  -10.8800  -18.9620 C.ar  165  TYR165      0.0417
    131  CZ        38.3550   -9.8920  -18.2250 C.ar  165  TYR165      0.1957
    132  OH        38.9770   -8.6960  -18.0070 O.3   165  TYR165     -0.2866
    133  N         33.4620  -12.4310  -19.1350 N.am  166  ILE166     -0.1977
    134  CA        32.6420  -11.3010  -18.7650 C.3   166  ILE166      0.1596
    135  C         32.3260  -11.4020  -17.2960 C.2   166  ILE166      0.2287
    136  O         32.0330  -12.4740  -16.7630 O.2   166  ILE166     -0.2864
    137  CB        31.3370  -11.2420  -19.5890 C.3   166  ILE166      0.0276
    138  CG1       30.3060  -10.3130  -18.9440 C.3   166  ILE166      0.0022
    139  CG2       30.7250  -12.6110  -19.7270 C.3   166  ILE166      0.0022
    140  CD1       29.1740  -10.0130  -19.8750 C.3   166  ILE166      0.0001
    141  N         30.9680  -26.7660  -26.2930 N.3   277  LEU277     -0.1245
    142  CA        30.4660  -26.0020  -27.4150 C.3   277  LEU277      0.1561
    143  C         30.5560  -26.6800  -28.7770 C.2   277  LEU277      0.2260
    144  O         29.9330  -26.2010  -29.7220 O.2   277  LEU277     -0.2867
    145  CB        31.1740  -24.6700  -27.4910 C.3   277  LEU277      0.0270
    146  CG        30.8420  -23.6660  -26.3960 C.3   277  LEU277      0.0019
    147  CD1       31.5090  -22.3510  -26.7660 C.3   277  LEU277      0.0001
    148  CD2       29.3370  -23.4820  -26.2310 C.3   277  LEU277      0.0001
    149  N         35.7260  -27.2660  -36.1420 N.3   290  PHE290     -0.1241
    150  CA        36.0170  -28.3880  -35.2440 C.3   290  PHE290      0.1605
    151  C         36.7100  -29.5770  -35.9340 C.2   290  PHE290      0.2264
    152  O         37.3320  -30.3980  -35.2500 O.2   290  PHE290     -0.2867
    153  CB        34.7350  -28.8470  -34.5340 C.3   290  PHE290      0.0534
    154  CG        34.1250  -27.7940  -33.6430 C.ar  290  PHE290     -0.0203
    155  CD1       33.2390  -26.8540  -34.1570 C.ar  290  PHE290     -0.0042
    156  CD2       34.4420  -27.7410  -32.2940 C.ar  290  PHE290     -0.0042
    157  CE1       32.6860  -25.8830  -33.3450 C.ar  290  PHE290     -0.0003
    158  CE2       33.8970  -26.7710  -31.4760 C.ar  290  PHE290     -0.0003
    159  CZ        33.0140  -25.8410  -32.0020 C.ar  290  PHE290     -0.0000
    160  N         43.1500  -26.5680  -31.9350 N.3   301  LEU301     -0.1231
    161  CA        41.8940  -25.9040  -31.5850 C.3   301  LEU301      0.1693
    162  C         40.6590  -26.7120  -32.0320 C.2   301  LEU301      0.2593
    163  O         39.9590  -26.3500  -32.9980 O.2   301  LEU301     -0.2718
    164  CB        41.8630  -24.4950  -32.1670 C.3   301  LEU301      0.0284
    165  CG        40.4840  -23.7910  -31.9460 C.3   301  LEU301      0.0019
    166  CD1       40.2830  -23.4640  -30.4880 C.3   301  LEU301      0.0001
    167  CD2       40.4610  -22.5730  -32.8550 C.3   301  LEU301      0.0001
    168  N         40.4150  -27.8130  -31.3190 N.am  302  SER302     -0.1938
    169  CA        39.2190  -28.6470  -31.5090 C.3   302  SER302      0.2055
    170  C         38.1970  -28.4890  -30.3840 C.2   302  SER302      0.2643
    171  O         36.9940  -28.6070  -30.6150 O.2   302  SER302     -0.2714
    172  CB        39.5990  -30.1200  -31.5320 C.3   302  SER302      0.2130
    173  OG        39.3600  -30.6940  -30.2520 O.3   302  SER302     -0.2179
    174  N         38.6840  -28.2810  -29.1640 N.am  303  LYS303     -0.1963
    175  CA        37.8310  -28.2260  -27.9860 C.3   303  LYS303      0.1728
    176  C         37.3710  -26.8010  -27.7240 C.2   303  LYS303      0.2616
    177  O         38.1330  -25.8540  -27.9100 O.2   303  LYS303     -0.2715
    178  CB        38.5750  -28.7580  -26.7640 C.3   303  LYS303      0.0311
    179  CG        37.6780  -29.4410  -25.7440 C.3   303  LYS303      0.0038
    180  CD        37.4120  -30.9120  -26.0750 C.3   303  LYS303      0.0206
    181  CE        35.9980  -31.1830  -26.5890 C.3   303  LYS303      0.1093
    182  NZ        35.7640  -30.8980  -28.0380 N.3   303  LYS303     -0.1314
    183  N         36.1190  -26.6610  -27.2960 N.am  304  ALA304     -0.1963
    184  CA        35.5540  -25.3650  -26.9450 C.3   304  ALA304      0.1728
    185  C         34.6420  -25.5380  -25.7390 C.2   304  ALA304      0.2616
    186  O         33.8150  -26.4460  -25.7060 O.2   304  ALA304     -0.2715
    187  CB        34.7850  -24.7800  -28.1180 C.3   304  ALA304      0.0334
    188  N         34.8120  -24.6790  -24.7400 N.am  305  VAL305     -0.1963
    189  CA        34.0250  -24.7690  -23.5150 C.3   305  VAL305      0.1727
    190  C         33.4120  -23.4400  -23.0910 C.2   305  VAL305      0.2616
    191  O         33.9460  -22.3470  -23.3500 O.2   305  VAL305     -0.2715
    192  CB        34.8410  -25.3150  -22.3170 C.3   305  VAL305      0.0290
    193  CG1       34.9830  -26.8320  -22.4010 C.3   305  VAL305      0.0023
    194  CG2       36.2050  -24.6400  -22.2230 C.3   305  VAL305      0.0023
    195  N         32.2740  -23.5560  -22.4190 N.am  306  HIS306     -0.1959
    196  CA        31.6070  -22.4120  -21.8290 C.3   306  HIS306      0.1787
    197  C         31.1690  -22.7720  -20.4450 C.2   306  HIS306      0.2620
    198  O         30.6290  -23.8590  -20.2220 O.2   306  HIS306     -0.2715
    199  CB        30.3830  -22.0230  -22.6300 C.3   306  HIS306      0.0785
    200  CG        29.7590  -20.7410  -22.1770 C.ar  306  HIS306      0.0821
    201  ND1       30.2720  -19.5060  -22.5080 N.ar  306  HIS306     -0.2267
    202  CD2       28.6530  -20.5000  -21.4360 C.ar  306  HIS306      0.1154
    203  CE1       29.5140  -18.5570  -21.9830 C.ar  306  HIS306      0.1986
    204  NE2       28.5250  -19.1350  -21.3280 N.ar  306  HIS306     -0.2212
    205  N         31.4030  -21.8540  -19.5200 N.am  307  LYS307     -0.1963
    206  CA        30.9430  -21.9970  -18.1600 C.3   307  LYS307      0.1728
    207  C         30.3930  -20.6670  -17.6690 C.2   307  LYS307      0.2616
    208  O         30.9800  -19.6170  -17.9160 O.2   307  LYS307     -0.2715
    209  CB        32.0780  -22.4600  -17.2680 C.3   307  LYS307      0.0311
    210  CG        31.6970  -22.4700  -15.8050 C.3   307  LYS307      0.0038
    211  CD        32.6760  -23.2560  -14.9640 C.3   307  LYS307      0.0206
    212  CE        32.0640  -23.6000  -13.6210 C.3   307  LYS307      0.1093
    213  NZ        32.9650  -24.5250  -12.9020 N.3   307  LYS307     -0.1314
    214  N         29.2630  -20.7050  -16.9700 N.am  308  ALA308     -0.1977
    215  CA        28.6270  -19.4680  -16.4740 C.3   308  ALA308      0.1597
    216  C         28.0300  -19.7220  -15.1280 C.2   308  ALA308      0.2287
    217  O         27.4250  -20.7700  -14.8850 O.2   308  ALA308     -0.2864
    218  CB        27.5340  -18.9800  -17.4270 C.3   308  ALA308      0.0319
    219  N         23.4190  -12.4040  -20.4380 N.3   353  PHE353     -0.1241
    220  CA        23.2400  -13.7570  -19.9480 C.3   353  PHE353      0.1605
    221  C         21.8000  -14.2200  -20.1540 C.2   353  PHE353      0.2264
    222  O         20.8740  -13.4150  -20.1690 O.2   353  PHE353     -0.2867
    223  CB        23.5560  -13.7840  -18.4490 C.3   353  PHE353      0.0534
    224  CG        25.0090  -13.4640  -18.1070 C.ar  353  PHE353     -0.0203
    225  CD1       25.9560  -14.4870  -18.0430 C.ar  353  PHE353     -0.0042
    226  CD2       25.4010  -12.1740  -17.7990 C.ar  353  PHE353     -0.0042
    227  CE1       27.2740  -14.2280  -17.7140 C.ar  353  PHE353     -0.0003
    228  CE2       26.7230  -11.9080  -17.4730 C.ar  353  PHE353     -0.0003
    229  CZ        27.6520  -12.9320  -17.4270 C.ar  353  PHE353     -0.0000
@<TRIPOS>BOND
     1    40    39    2
     2   149   150    1
     3   151   152    2
     4   151   150    1
     5    39    38    1
     6   150   153    1
     7   153   154    1
     8    29    28    2
     9    42    44    1
    10    42    43    1
    11    42    41    1
    12    38    41    1
    13    38    37    1
    14   155   154   ar
    15   155   157   ar
    16   154   156   ar
    17    28    27    1
    18   157   159   ar
    19   163   162    2
    20   167   165    1
    21    32    34   ar
    22    32    31   ar
    23    30    27    1
    24    30    31    1
    25    91    92   ar
    26    91    89   ar
    27   156   158   ar
    28    27    26    1
    29    92    90   ar
    30   164   165    1
    31   164   161    1
    32    34    36   ar
    33   162   161    1
    34   162   168   am
    35    89    87   ar
    36   159   158   ar
    37   165   166    1
    38   160   161    1
    39    90    88   ar
    40    31    33   ar
    41    87    88   ar
    42    87    86    1
    43   172   169    1
    44   172   173    1
    45   169   168    1
    46   169   170    1
    47    86    83    1
    48    24    23    2
    49    26    23   am
    50    36    35   ar
    51   104   103    1
    52   171   170    2
    53    33    35   ar
    54    23    22    1
    55   170   174   am
    56    83    82    1
    57    83    84    1
    58   144   143    2
    59   174   175    1
    60    85    84    2
    61   103   102    1
    62   103   105    1
    63    84    93   am
    64    16    15    2
    65    22    21    1
    66    22    25    1
    67   143   142    1
    68   102    99    1
    69    93    94    1
    70    15    14    1
    71   187   184    1
    72    19    17    1
    73   182   181    1
    74   175   176    1
    75   175   178    1
    76   177   176    2
    77   176   183   am
    78    94    95    1
    79    94    97    1
    80    95    96    2
    81    95    98   am
    82   145   142    1
    83   145   146    1
    84    98    99    1
    85   142   141    1
    86    99   100    1
    87   183   184    1
    88   184   185    1
    89    14    17    1
    90    14    13    1
    91    17    18    1
    92   147   146    1
    93   178   179    1
    94   181   180    1
    95   146   148    1
    96   100   101    2
    97   100   106   am
    98    10     9    2
    99   180   179    1
   100    13     9   am
   101   185   186    2
   102   185   188   am
   103     9     8    1
   104    18    20    1
   105   106   107    1
   106   188   189    1
   107     7     8    1
   108   109   108    2
   109   117   118    1
   110   117   114    1
   111     8    11    1
   112   119   118    2
   113   107   108    1
   114   107   110    1
   115   108   113   am
   116   118   120   am
   117     4     3    2
   118   113   114    1
   119   189   190    1
   120   189   192    1
   121   114   115    1
   122   191   190    2
   123     3     2    1
   124    11    12    1
   125   190   195   am
   126   110   112    1
   127   110   111    1
   128   199   200    1
   129   199   196    1
   130   201   200   ar
   131   201   203   ar
   132   195   196    1
   133   193   192    1
   134   192   194    1
   135   200   202   ar
   136   115   116    2
   137   115   121   am
   138   203   204   ar
   139     6     5    1
   140   196   197    1
   141     2     1    1
   142     2     5    1
   143   202   204   ar
   144   121   122    1
   145    81    79    1
   146   124   123    2
   147    80    79    1
   148   197   198    2
   149   197   205   am
   150   219   220    1
   151   222   221    2
   152   221   220    1
   153   122   123    1
   154   122   125    1
   155   220   223    1
   156   123   133   am
   157   140   138    1
   158    79    76    1
   159   139   137    1
   160    74    72    1
   161   137   138    1
   162   137   134    1
   163   205   206    1
   164   128   130   ar
   165   128   126   ar
   166   133   134    1
   167    72    73    1
   168    72    71    1
   169   130   131   ar
   170    76    77    1
   171    76    75    1
   172   125   126    1
   173   134   135    1
   174   126   127   ar
   175   223   224    1
   176   131   132    1
   177   131   129   ar
   178    51    49    1
   179   206   207    1
   180   206   209    1
   181    77    78    2
   182   224   225   ar
   183   224   226   ar
   184    75    69   am
   185    70    69    2
   186   225   227   ar
   187   208   207    2
   188   127   129   ar
   189   226   228   ar
   190    69    68    1
   191   227   229   ar
   192   207   214   am
   193    71    68    1
   194   228   229   ar
   195   218   215    1
   196   135   136    2
   197   209   210    1
   198   214   215    1
   199    68    67    1
   200    49    50    1
   201    49    46    1
   202    45    46    1
   203   215   216    1
   204    46    47    1
   205   210   211    1
   206   216   217    2
   207   211   212    1
   208    47    48    2
   209    57    56    1
   210    65    63    1
   211    52    53    1
   212   212   213    1
   213    56    53    1
   214    56    58    1
   215    63    64    1
   216    63    60    1
   217    64    66    1
   218    53    54    1
   219    62    61    2
   220    61    60    1
   221    60    59    1
   222    54    55    2
