@<TRIPOS>MOLECULE
tmp/4pywA00.pdb
 206 203 0 0 0
SMALL
GASTEIGER

@<TRIPOS>ATOM
      1  N         22.3410  -21.9630  -17.9090 N.3    29  PHE29      -0.1241
      2  CA        22.8480  -20.6080  -17.7730 C.3    29  PHE29       0.1605
      3  C         24.0750  -20.3970  -18.6690 C.2    29  PHE29       0.2264
      4  O         25.0260  -21.1870  -18.6640 O.2    29  PHE29      -0.2867
      5  CB        23.1460  -20.2810  -16.3040 C.3    29  PHE29       0.0534
      6  CG        23.4310  -18.8260  -16.0750 C.ar   29  PHE29      -0.0203
      7  CD1       22.4170  -17.8560  -16.2480 C.ar   29  PHE29      -0.0042
      8  CD2       24.7110  -18.3900  -15.7290 C.ar   29  PHE29      -0.0042
      9  CE1       22.6760  -16.4950  -16.0590 C.ar   29  PHE29      -0.0003
     10  CE2       24.9750  -17.0340  -15.5350 C.ar   29  PHE29      -0.0003
     11  CZ        23.9650  -16.0810  -15.7150 C.ar   29  PHE29      -0.0000
     12  N         26.1970  -17.0790  -21.3330 N.3    31  SER31      -0.1217
     13  CA        26.3440  -15.7110  -21.7830 C.3    31  SER31       0.1889
     14  C         26.3760  -15.7300  -23.2900 C.2    31  SER31       0.2288
     15  O         27.4060  -16.0880  -23.8820 O.2    31  SER31      -0.2866
     16  CB        27.6490  -15.1000  -21.3270 C.3    31  SER31       0.2089
     17  OG        27.8580  -13.8430  -21.9660 O.3    31  SER31      -0.2183
     18  N         37.6770  -12.6230  -13.7960 N.3   143  THR143     -0.1218
     19  CA        36.5040  -13.0300  -13.0540 C.3   143  THR143      0.1862
     20  C         36.6410  -12.7630  -11.5110 C.2   143  THR143      0.2287
     21  O         35.8670  -13.2550  -10.6800 O.2   143  THR143     -0.2866
     22  CB        36.3000  -14.5200  -13.4210 C.3   143  THR143      0.1770
     23  OG1       35.7900  -14.6190  -14.7750 O.3   143  THR143     -0.2211
     24  CG2       35.3960  -15.1900  -12.5000 C.3   143  THR143      0.0375
     25  N         36.4290  -15.8920   -9.1390 N.3   146  LYS146     -0.1231
     26  CA        35.2630  -16.7710   -9.1040 C.3   146  LYS146      0.1693
     27  C         35.3680  -17.9840  -10.0040 C.2   146  LYS146      0.2591
     28  O         34.6400  -18.9450   -9.8290 O.2   146  LYS146     -0.2718
     29  CB        33.9990  -16.0030   -9.4940 C.3   146  LYS146      0.0285
     30  CG        33.7990  -14.6810   -8.7730 C.3   146  LYS146      0.0035
     31  CD        33.9790  -14.8220   -7.2720 C.3   146  LYS146      0.0206
     32  CE        33.3330  -13.6690   -6.5270 C.3   146  LYS146      0.1093
     33  NZ        33.2480  -14.0290   -5.0880 N.3   146  LYS146     -0.1314
     34  N         36.2380  -17.9440  -10.9930 N.am  147  ILE147     -0.1980
     35  CA        36.3640  -19.0630  -11.9110 C.3   147  ILE147      0.1595
     36  C         37.8360  -19.3990  -11.9740 C.2   147  ILE147      0.2287
     37  O         38.5920  -18.6630  -12.6060 O.2   147  ILE147     -0.2864
     38  CB        35.8460  -18.7230  -13.3170 C.3   147  ILE147      0.0276
     39  CG1       34.4030  -18.2000  -13.2550 C.3   147  ILE147      0.0022
     40  CG2       35.9420  -19.9530  -14.2050 C.3   147  ILE147      0.0022
     41  CD1       33.3530  -19.2640  -13.0700 C.3   147  ILE147      0.0001
     42  N         36.0420  -13.5330  -21.2970 N.3   165  TYR165     -0.1227
     43  CA        35.3580  -13.5670  -20.0340 C.3   165  TYR165      0.1736
     44  C         34.5180  -12.3240  -19.9350 C.2   165  TYR165      0.2595
     45  O         34.8430  -11.3000  -20.5280 O.2   165  TYR165     -0.2718
     46  CB        36.3360  -13.6170  -18.8580 C.3   165  TYR165      0.0548
     47  CG        37.0540  -12.3110  -18.6370 C.ar  165  TYR165     -0.0200
     48  CD1       36.4710  -11.2990  -17.9000 C.ar  165  TYR165     -0.0009
     49  CD2       38.3230  -12.0900  -19.1580 C.ar  165  TYR165     -0.0009
     50  CE1       37.1060  -10.1000  -17.6910 C.ar  165  TYR165      0.0417
     51  CE2       38.9720  -10.8800  -18.9620 C.ar  165  TYR165      0.0417
     52  CZ        38.3550   -9.8920  -18.2250 C.ar  165  TYR165      0.1957
     53  OH        38.9770   -8.6960  -18.0070 O.3   165  TYR165     -0.2866
     54  N         33.4620  -12.4310  -19.1350 N.am  166  ILE166     -0.1966
     55  CA        32.6420  -11.3010  -18.7650 C.3   166  ILE166      0.1727
     56  C         32.3260  -11.4020  -17.2960 C.2   166  ILE166      0.2616
     57  O         32.0330  -12.4740  -16.7630 O.2   166  ILE166     -0.2715
     58  CB        31.3370  -11.2420  -19.5890 C.3   166  ILE166      0.0290
     59  CG1       30.3060  -10.3130  -18.9440 C.3   166  ILE166      0.0022
     60  CG2       30.7250  -12.6110  -19.7270 C.3   166  ILE166      0.0023
     61  CD1       29.1740  -10.0130  -19.8750 C.3   166  ILE166      0.0001
     62  N         32.3660  -10.2650  -16.6360 N.am  167  PHE167     -0.1960
     63  CA        32.0790  -10.2390  -15.2250 C.3   167  PHE167      0.1771
     64  C         31.0230   -9.1840  -14.9360 C.2   167  PHE167      0.2620
     65  O         31.2170   -7.9940  -15.2300 O.2   167  PHE167     -0.2715
     66  CB        33.3550   -9.9560  -14.4450 C.3   167  PHE167      0.0574
     67  CG        33.1330   -9.7700  -12.9810 C.ar  167  PHE167     -0.0200
     68  CD1       33.2220  -10.8470  -12.1080 C.ar  167  PHE167     -0.0042
     69  CD2       32.8690   -8.5130  -12.4540 C.ar  167  PHE167     -0.0042
     70  CE1       33.0290  -10.6790  -10.7450 C.ar  167  PHE167     -0.0003
     71  CE2       32.6950   -8.3390  -11.0880 C.ar  167  PHE167     -0.0003
     72  CZ        32.7720   -9.4300  -10.2370 C.ar  167  PHE167     -0.0000
     73  N         29.9360   -9.6190  -14.3160 N.am  168  PHE168     -0.1960
     74  CA        28.8580   -8.7070  -13.9930 C.3   168  PHE168      0.1771
     75  C         28.5270   -8.7810  -12.5120 C.2   168  PHE168      0.2619
     76  O         28.2570   -9.8510  -11.9710 O.2   168  PHE168     -0.2715
     77  CB        27.6260   -9.0890  -14.8190 C.3   168  PHE168      0.0574
     78  CG        26.3890   -8.2790  -14.5210 C.ar  168  PHE168     -0.0200
     79  CD1       26.0230   -7.2540  -15.3310 C.ar  168  PHE168     -0.0042
     80  CD2       25.5890   -8.5910  -13.4510 C.ar  168  PHE168     -0.0042
     81  CE1       24.8650   -6.5130  -15.0780 C.ar  168  PHE168     -0.0003
     82  CE2       24.4320   -7.8630  -13.1690 C.ar  168  PHE168     -0.0003
     83  CZ        24.0580   -6.8240  -13.9960 C.ar  168  PHE168     -0.0000
     84  N         28.4670   -7.6280  -11.8820 N.am  169  LYS169     -0.1963
     85  CA        27.9790   -7.5660  -10.5360 C.3   169  LYS169      0.1728
     86  C         27.1310   -6.3370  -10.3030 C.2   169  LYS169      0.2616
     87  O         27.6140   -5.2120  -10.4410 O.2   169  LYS169     -0.2715
     88  CB        29.1450   -7.6240   -9.5480 C.3   169  LYS169      0.0311
     89  CG        28.6370   -7.6670   -8.1320 C.3   169  LYS169      0.0038
     90  CD        29.6950   -8.0840   -7.1310 C.3   169  LYS169      0.0206
     91  CE        29.0830   -7.9860   -5.7530 C.3   169  LYS169      0.1093
     92  NZ        30.1590   -7.9270   -4.7470 N.3   169  LYS169     -0.1314
     93  N         25.8790   -6.5800   -9.9100 N.am  170  GLY170     -0.1955
     94  CA        24.8520   -5.5540   -9.8340 C.3   170  GLY170      0.1869
     95  C         24.0170   -5.5870   -8.5620 C.2   170  GLY170      0.2309
     96  O         23.8820   -6.6270   -7.8940 O.2   170  GLY170     -0.2863
     97  N         20.2520   -4.3900   -6.9450 N.3   172  TRP172     -0.1241
     98  CA        18.9000   -4.0680   -7.3730 C.3   172  TRP172      0.1605
     99  C         18.6270   -2.5970   -7.0610 C.2   172  TRP172      0.2264
    100  O         18.9400   -2.1470   -5.9570 O.2   172  TRP172     -0.2867
    101  CB        17.8810   -4.9020   -6.6260 C.3   172  TRP172      0.0550
    102  CG        17.9360   -6.3310   -6.8630 C.ar  172  TRP172      0.0003
    103  CD1       18.0500   -7.3060   -5.9070 C.ar  172  TRP172      0.0946
    104  CD2       17.7820   -6.9970   -8.1070 C.ar  172  TRP172      0.0152
    105  NE1       18.0060   -8.5440   -6.4980 N.ar  172  TRP172     -0.2442
    106  CE2       17.8530   -8.3730   -7.8550 C.ar  172  TRP172      0.0810
    107  CE3       17.6020   -6.5590   -9.4280 C.ar  172  TRP172      0.0012
    108  CZ2       17.7700   -9.3230   -8.8680 C.ar  172  TRP172      0.0191
    109  CZ3       17.5420   -7.4970  -10.4390 C.ar  172  TRP172      0.0001
    110  CH2       17.6170   -8.8610  -10.1600 C.ar  172  TRP172      0.0015
    111  N         18.6440   -2.9720  -12.3530 N.3   222  TYR222     -0.1241
    112  CA        19.8370   -2.8430  -11.4670 C.3   222  TYR222      0.1605
    113  C         20.1810   -1.3680  -11.4440 C.2   222  TYR222      0.2264
    114  O         19.9300   -0.6530  -12.4100 O.2   222  TYR222     -0.2867
    115  CB        21.0110   -3.6460  -12.0330 C.3   222  TYR222      0.0534
    116  CG        20.7910   -5.1430  -12.1260 C.ar  222  TYR222     -0.0201
    117  CD1       20.4560   -5.7570  -13.3170 C.ar  222  TYR222     -0.0009
    118  CD2       20.9420   -5.9390  -11.0230 C.ar  222  TYR222     -0.0009
    119  CE1       20.2640   -7.1190  -13.3900 C.ar  222  TYR222      0.0417
    120  CE2       20.7430   -7.2900  -11.0870 C.ar  222  TYR222      0.0417
    121  CZ        20.3850   -7.8780  -12.2720 C.ar  222  TYR222      0.1957
    122  OH        20.2200   -9.2350  -12.2730 O.3   222  TYR222     -0.2866
    123  N         31.4030  -21.8540  -19.5200 N.3   307  LYS307     -0.1231
    124  CA        30.9430  -21.9970  -18.1600 C.3   307  LYS307      0.1693
    125  C         30.3930  -20.6670  -17.6690 C.2   307  LYS307      0.2592
    126  O         30.9800  -19.6170  -17.9160 O.2   307  LYS307     -0.2718
    127  CB        32.0780  -22.4600  -17.2680 C.3   307  LYS307      0.0285
    128  CG        31.6970  -22.4700  -15.8050 C.3   307  LYS307      0.0035
    129  CD        32.6760  -23.2560  -14.9640 C.3   307  LYS307      0.0206
    130  CE        32.0640  -23.6000  -13.6210 C.3   307  LYS307      0.1093
    131  NZ        32.9650  -24.5250  -12.9020 N.3   307  LYS307     -0.1314
    132  N         29.2630  -20.7050  -16.9700 N.am  308  ALA308     -0.1966
    133  CA        28.6270  -19.4680  -16.4740 C.3   308  ALA308      0.1728
    134  C         28.0300  -19.7220  -15.1280 C.2   308  ALA308      0.2616
    135  O         27.4250  -20.7700  -14.8850 O.2   308  ALA308     -0.2715
    136  CB        27.5340  -18.9800  -17.4270 C.3   308  ALA308      0.0334
    137  N         28.1880  -18.7400  -14.2560 N.am  309  VAL309     -0.1963
    138  CA        27.7090  -18.8630  -12.8970 C.3   309  VAL309      0.1727
    139  C         26.8360  -17.6650  -12.5360 C.2   309  VAL309      0.2616
    140  O         27.1910  -16.5160  -12.8120 O.2   309  VAL309     -0.2715
    141  CB        28.8790  -18.9930  -11.9220 C.3   309  VAL309      0.0290
    142  CG1       28.3440  -19.0850  -10.5020 C.3   309  VAL309      0.0023
    143  CG2       29.6920  -20.2270  -12.2910 C.3   309  VAL309      0.0023
    144  N         25.6850  -17.9600  -11.9300 N.am  310  LEU310     -0.1963
    145  CA        24.7330  -16.9480  -11.5360 C.3   310  LEU310      0.1728
    146  C         24.5550  -16.9890  -10.0440 C.2   310  LEU310      0.2617
    147  O         24.3720  -18.0510   -9.4620 O.2   310  LEU310     -0.2715
    148  CB        23.3830  -17.2250  -12.1840 C.3   310  LEU310      0.0311
    149  CG        22.2600  -16.2280  -11.8620 C.3   310  LEU310      0.0022
    150  CD1       22.3710  -14.8710  -12.5330 C.3   310  LEU310      0.0001
    151  CD2       20.9670  -16.8670  -12.2910 C.3   310  LEU310      0.0001
    152  N         24.5650  -15.8190   -9.4330 N.am  311  THR311     -0.1937
    153  CA        24.0830  -15.7080   -8.0770 C.3   311  THR311      0.2028
    154  C         23.0730  -14.5860   -7.9090 C.2   311  THR311      0.2642
    155  O         23.3190  -13.4530   -8.3150 O.2   311  THR311     -0.2714
    156  CB        25.2920  -15.5280   -7.1560 C.3   311  THR311      0.1808
    157  OG1       26.1320  -16.6700   -7.3470 O.3   311  THR311     -0.2208
    158  CG2       24.8740  -15.4630   -5.6960 C.3   311  THR311      0.0379
    159  N         21.9430  -14.8860   -7.2820 N.am  312  ILE312     -0.1963
    160  CA        20.9050  -13.8530   -7.0690 C.3   312  ILE312      0.1727
    161  C         20.6340  -13.7490   -5.6050 C.2   312  ILE312      0.2616
    162  O         20.4480  -14.7540   -4.9750 O.2   312  ILE312     -0.2715
    163  CB        19.5890  -14.1890   -7.8610 C.3   312  ILE312      0.0290
    164  CG1       19.8140  -13.9690   -9.3470 C.3   312  ILE312      0.0022
    165  CG2       18.4270  -13.2870   -7.4700 C.3   312  ILE312      0.0023
    166  CD1       18.6530  -14.4520  -10.2390 C.3   312  ILE312      0.0001
    167  N         20.6060  -12.5370   -5.0630 N.am  313  ASP313     -0.1971
    168  CA        20.2090  -12.3300   -3.6890 C.3   313  ASP313      0.1709
    169  C         19.4590  -10.9990   -3.5000 C.2   313  ASP313      0.2293
    170  O         19.0250  -10.3720   -4.4810 O.2   313  ASP313     -0.2864
    171  CB        21.4610  -12.4720   -2.7620 C.3   313  ASP313      0.1436
    172  CG        22.4160  -11.3230   -2.8960 C.2   313  ASP313      0.3671
    173  OD1       22.2330  -10.4490   -3.7660 O.co2 313  ASP313     -0.2456
    174  OD2       23.3610  -11.2800   -2.0980 O.co2 313  ASP313     -0.2456
    175  N         20.0760   -7.7240   -2.2470 N.3   315  LYS315     -0.1231
    176  CA        20.4220   -6.3120   -2.5200 C.3   315  LYS315      0.1693
    177  C         21.5770   -6.1960   -3.4450 C.2   315  LYS315      0.2592
    178  O         21.5300   -5.3990   -4.3900 O.2   315  LYS315     -0.2718
    179  CB        20.7780   -5.5410   -1.2500 C.3   315  LYS315      0.0285
    180  CG        19.7650   -5.5770   -0.1030 C.3   315  LYS315      0.0035
    181  CD        20.3170   -4.8690    1.1380 C.3   315  LYS315      0.0206
    182  CE        19.9720   -3.3770    1.1880 C.3   315  LYS315      0.1093
    183  NZ        20.5850   -2.5470    0.1130 N.3   315  LYS315     -0.1314
    184  N         22.6140   -6.9870   -3.1500 N.am  316  GLY316     -0.1957
    185  CA        23.8740   -6.9940   -3.8950 C.3   316  GLY316      0.1869
    186  C         24.9670   -6.1870   -3.1940 C.2   316  GLY316      0.2309
    187  O         25.9640   -5.8000   -3.8280 O.2   316  GLY316     -0.2863
    188  N         19.3570  -11.2710  -18.9430 N.3   343  MET343     -0.1245
    189  CA        19.9850  -10.0690  -18.4600 C.3   343  MET343      0.1570
    190  C         20.4560   -9.2410  -19.6290 C.2   343  MET343      0.2261
    191  O         21.1680   -9.7190  -20.5260 O.2   343  MET343     -0.2867
    192  CB        21.1780  -10.4110  -17.5430 C.3   343  MET343      0.0387
    193  CG        20.7890  -11.3430  -16.4050 C.3   343  MET343      0.0595
    194  SD        22.1640  -11.8120  -15.3180 S.3   343  MET343     -0.1393
    195  CE        23.0210  -10.2350  -15.1610 C.3   343  MET343      0.0692
    196  N         23.4190  -12.4040  -20.4380 N.3   353  PHE353     -0.1241
    197  CA        23.2400  -13.7570  -19.9480 C.3   353  PHE353      0.1605
    198  C         21.8000  -14.2200  -20.1540 C.2   353  PHE353      0.2264
    199  O         20.8740  -13.4150  -20.1690 O.2   353  PHE353     -0.2867
    200  CB        23.5560  -13.7840  -18.4490 C.3   353  PHE353      0.0534
    201  CG        25.0090  -13.4640  -18.1070 C.ar  353  PHE353     -0.0203
    202  CD1       25.9560  -14.4870  -18.0430 C.ar  353  PHE353     -0.0042
    203  CD2       25.4010  -12.1740  -17.7990 C.ar  353  PHE353     -0.0042
    204  CE1       27.2740  -14.2280  -17.7140 C.ar  353  PHE353     -0.0003
    205  CE2       26.7230  -11.9080  -17.4730 C.ar  353  PHE353     -0.0003
    206  CZ        27.6520  -12.9320  -17.4270 C.ar  353  PHE353     -0.0000
@<TRIPOS>BOND
     1    15    14    2
     2    14    13    1
     3    17    16    1
     4    13    12    1
     5    13    16    1
     6    42    43    1
     7    45    44    2
     8   191   190    2
     9   196   197    1
    10   199   198    2
    11   198   197    1
    12    43    44    1
    13    43    46    1
    14   197   200    1
    15    44    54   am
    16    61    59    1
    17    60    58    1
    18   190   189    1
    19    58    59    1
    20    58    55    1
    21   123   124    1
    22    49    51   ar
    23    49    47   ar
    24    54    55    1
    25    51    52   ar
    26   188   189    1
    27    46    47    1
    28    55    56    1
    29     3     4    2
    30     3     2    1
    31    47    48   ar
    32   189   192    1
    33   200   201    1
    34    52    53    1
    35    52    50   ar
    36   124   125    1
    37   124   127    1
    38   201   202   ar
    39   201   203   ar
    40   202   204   ar
    41   126   125    2
    42     1     2    1
    43    48    50   ar
    44   203   205   ar
    45     2     5    1
    46   204   206   ar
    47   125   132   am
    48   192   193    1
    49   205   206   ar
    50   136   133    1
    51    56    57    2
    52    56    62   am
    53   127   128    1
    54   132   133    1
    55    62    63    1
    56   133   134    1
    57   193   194    1
    58     5     6    1
    59     7     6   ar
    60     7     9   ar
    61     6     8   ar
    62     9    11   ar
    63   128   129    1
    64     8    10   ar
    65    11    10   ar
    66    79    81   ar
    67    79    78   ar
    68   194   195    1
    69    65    64    2
    70    63    64    1
    71    63    66    1
    72   134   135    2
    73   134   137   am
    74    81    83   ar
    75   129   130    1
    76    64    73   am
    77    77    78    1
    78    77    74    1
    79    23    22    1
    80    78    80   ar
    81    66    67    1
    82    73    74    1
    83   137   138    1
    84    40    38    1
    85    83    82   ar
    86    74    75    1
    87    18    19    1
    88   130   131    1
    89    80    82   ar
    90    22    19    1
    91    22    24    1
    92   119   117   ar
    93   119   121   ar
    94   117   116   ar
    95    38    39    1
    96    38    35    1
    97    39    41    1
    98    19    20    1
    99    67    69   ar
   100    67    68   ar
   101   138   139    1
   102   138   141    1
   103   140   139    2
   104    37    36    2
   105   139   144   am
   106   150   149    1
   107    75    76    2
   108    75    84   am
   109    69    71   ar
   110   114   113    2
   111   111   112    1
   112   143   141    1
   113   151   149    1
   114   122   121    1
   115   121   120   ar
   116   148   149    1
   117   148   145    1
   118   116   115    1
   119   116   118   ar
   120    68    70   ar
   121   115   112    1
   122    36    35    1
   123   144   145    1
   124   141   142    1
   125    35    34    1
   126    84    85    1
   127   145   146    1
   128    20    21    2
   129   112   113    1
   130    71    72   ar
   131   120   118   ar
   132    34    27   am
   133    70    72   ar
   134    85    86    1
   135    85    88    1
   136    87    86    2
   137   109   110   ar
   138   109   107   ar
   139    86    93   am
   140   166   164    1
   141   110   108   ar
   142   146   147    2
   143   146   152   am
   144    27    28    2
   145    27    26    1
   146    93    94    1
   147    94    95    1
   148    88    89    1
   149    29    26    1
   150    29    30    1
   151   152   153    1
   152   107   104   ar
   153   164   163    1
   154    25    26    1
   155   108   106   ar
   156    30    31    1
   157    95    96    2
   158   155   154    2
   159    89    90    1
   160   104   106   ar
   161   104   102   ar
   162   153   154    1
   163   153   156    1
   164   154   159   am
   165   163   165    1
   166   163   160    1
   167   106   105   ar
   168    98    99    1
   169    98    97    1
   170    98   101    1
   171   157   156    1
   172   159   160    1
   173    31    32    1
   174   156   158    1
   175    90    91    1
   176   160   161    1
   177    99   100    2
   178   102   101    1
   179   102   103   ar
   180    32    33    1
   181   105   103   ar
   182    91    92    1
   183   161   167   am
   184   161   162    2
   185   167   168    1
   186   170   169    2
   187   178   177    2
   188   185   186    1
   189   185   184    1
   190   187   186    2
   191   173   172   ar
   192   168   169    1
   193   168   171    1
   194   177   184   am
   195   177   176    1
   196   172   171    1
   197   172   174   ar
   198   176   175    1
   199   176   179    1
   200   179   180    1
   201   180   181    1
   202   183   182    1
   203   181   182    1
