@<TRIPOS>MOLECULE
tmp/4pyxA01.pdb
 209 203 0 0 0
SMALL
GASTEIGER

@<TRIPOS>ATOM
      1  N          8.7530   -0.4520   10.3970 N.3     2  TRP2       -0.1241
      2  CA         7.9790   -1.4070   11.2690 C.3     2  TRP2        0.1605
      3  C          6.9700   -2.1860   10.4980 C.2     2  TRP2        0.2264
      4  O          6.4620   -1.7620    9.4360 O.2     2  TRP2       -0.2867
      5  CB         7.3550   -0.7280   12.5060 C.3     2  TRP2        0.0550
      6  CG         6.1680    0.1300   12.1630 C.ar    2  TRP2        0.0003
      7  CD1        6.1520    1.5070   11.8430 C.ar    2  TRP2        0.0946
      8  CD2        4.7840   -0.3230   12.0150 C.ar    2  TRP2        0.0152
      9  NE1        4.8870    1.9150   11.5090 N.ar    2  TRP2       -0.2442
     10  CE2        4.0060    0.8600   11.6200 C.ar    2  TRP2        0.0810
     11  CE3        4.1290   -1.5550   12.1810 C.ar    2  TRP2        0.0012
     12  CZ2        2.6580    0.8040   11.4050 C.ar    2  TRP2        0.0191
     13  CZ3        2.7380   -1.5780   11.9720 C.ar    2  TRP2        0.0001
     14  CH2        2.0230   -0.4160   11.6170 C.ar    2  TRP2        0.0015
     15  N          4.8890   -6.4150   10.5470 N.3     4  TYR4       -0.1241
     16  CA         4.4560   -7.5720   11.3400 C.3     4  TYR4        0.1605
     17  C          5.3110   -8.8330   11.1860 C.2     4  TYR4        0.2264
     18  O          4.9700   -9.8900   11.7840 O.2     4  TYR4       -0.2867
     19  CB         3.0020   -7.8590   11.0310 C.3     4  TYR4        0.0534
     20  CG         2.0560   -6.8150   11.6120 C.ar    4  TYR4       -0.0201
     21  CD1        1.6830   -6.8480   12.9710 C.ar    4  TYR4       -0.0009
     22  CD2        1.5180   -5.8310   10.7870 C.ar    4  TYR4       -0.0009
     23  CE1        0.7980   -5.8950   13.4890 C.ar    4  TYR4        0.0417
     24  CE2        0.6200   -4.9010   11.2730 C.ar    4  TYR4        0.0417
     25  CZ         0.2610   -4.9560   12.6370 C.ar    4  TYR4        0.1957
     26  OH        -0.6750   -4.0310   13.0510 O.3     4  TYR4       -0.2866
     27  N         -3.0210    0.1100    3.1820 N.3    59  ASN59      -0.1240
     28  CA        -1.8070    0.8620    3.5390 C.3    59  ASN59       0.1653
     29  C         -0.5980   -0.0080    3.7030 C.2    59  ASN59       0.2266
     30  O          0.4810    0.4040    4.1840 O.2    59  ASN59      -0.2867
     31  CB        -2.0670    1.7360    4.7790 C.3    59  ASN59       0.1155
     32  CG        -1.7790    1.0170    6.0910 C.2    59  ASN59       0.2627
     33  OD1       -2.0400   -0.2070    6.2840 O.2    59  ASN59      -0.2716
     34  ND2       -1.2740    1.8080    7.0400 N.am   59  ASN59      -0.0877
     35  N         -0.3930   -2.4300    5.7580 N.3    61  HIS61      -0.1226
     36  CA        -0.4040   -3.1310    7.0840 C.3    61  HIS61       0.1752
     37  C         -1.7570   -3.7720    7.3220 C.2    61  HIS61       0.2595
     38  O         -1.8580   -4.8670    7.9020 O.2    61  HIS61      -0.2718
     39  CB        -0.1240   -2.1630    8.2280 C.3    61  HIS61       0.0759
     40  CG         1.2660   -1.5130    8.1790 C.ar   61  HIS61       0.0818
     41  ND1        2.4030   -2.2160    8.3600 N.ar   61  HIS61      -0.2268
     42  CD2        1.6470   -0.1840    8.0360 C.ar   61  HIS61       0.1154
     43  CE1        3.4700   -1.3790    8.3720 C.ar   61  HIS61       0.1986
     44  NE2        3.0050   -0.1300    8.1610 N.ar   61  HIS61      -0.2212
     45  N         -2.7930   -3.0450    6.9520 N.am   62  ALA62      -0.1980
     46  CA        -4.1950   -3.4870    7.0160 C.3    62  ALA62       0.1597
     47  C         -5.0070   -2.6950    5.9960 C.2    62  ALA62       0.2287
     48  O         -4.4260   -2.0030    5.1720 O.2    62  ALA62      -0.2864
     49  CB        -4.7730   -3.3460    8.4660 C.3    62  ALA62       0.0319
     50  N         -8.0510    0.2800    5.5850 N.3    64  ASN64      -0.1240
     51  CA        -8.8250    1.2200    6.3460 C.3    64  ASN64       0.1653
     52  C        -10.0310    1.7170    5.6250 C.2    64  ASN64       0.2266
     53  O         -9.9160    2.1950    4.4900 O.2    64  ASN64      -0.2867
     54  CB        -8.0120    2.4650    6.7210 C.3    64  ASN64       0.1155
     55  CG        -6.7650    2.1490    7.4370 C.2    64  ASN64       0.2627
     56  OD1       -6.7380    1.2350    8.2700 O.2    64  ASN64      -0.2716
     57  ND2       -5.7090    2.9330    7.1680 N.am   64  ASN64      -0.0877
     58  N        -13.6680    8.1200   12.6780 N.3    88  ILE88      -0.1231
     59  CA       -12.8170    8.5000   11.5800 C.3    88  ILE88       0.1692
     60  C        -12.5690    7.3570   10.6200 C.2    88  ILE88       0.2591
     61  O        -12.5380    7.6020    9.4360 O.2    88  ILE88      -0.2718
     62  CB       -11.4930    9.1660   12.0450 C.3    88  ILE88       0.0266
     63  CG1      -10.5320    9.4480   10.8520 C.3    88  ILE88       0.0019
     64  CG2      -10.7760    8.3610   13.1460 C.3    88  ILE88       0.0020
     65  CD1       -9.5720   10.5630   11.2340 C.3    88  ILE88       0.0001
     66  N        -12.4030    6.1130   11.1240 N.am   89  GLN89      -0.1979
     67  CA       -12.1090    4.9900   10.2400 C.3    89  GLN89       0.1601
     68  C        -12.3960    3.6950   10.9950 C.2    89  GLN89       0.2287
     69  O        -12.4890    3.7230   12.2240 O.2    89  GLN89      -0.2864
     70  CB       -10.6340    5.0690    9.7530 C.3    89  GLN89       0.0394
     71  CG        -9.6040    5.0090   10.8710 C.3    89  GLN89       0.0908
     72  CD        -8.9150    3.6360   10.8670 C.2    89  GLN89       0.2608
     73  OE1       -9.4760    2.6690   11.3240 O.2    89  GLN89      -0.2717
     74  NE2       -7.6700    3.5930   10.4130 N.am   89  GLN89      -0.0878
     75  N        -10.8330   -0.5490   10.7980 N.3    91  HIS91      -0.1241
     76  CA        -9.9140   -1.4980   10.1820 C.3    91  HIS91       0.1621
     77  C        -10.0860   -2.7570   10.9730 C.2    91  HIS91       0.2264
     78  O        -10.8330   -2.7420   12.0040 O.2    91  HIS91      -0.2867
     79  CB        -8.4600   -0.9950   10.1760 C.3    91  HIS91       0.0745
     80  CG        -7.9490   -0.7320   11.5730 C.ar   91  HIS91       0.0817
     81  ND1       -8.3020    0.4170   12.2950 N.ar   91  HIS91      -0.2268
     82  CD2       -7.3030   -1.5640   12.4400 C.ar   91  HIS91       0.1154
     83  CE1       -7.7580    0.3170   13.5130 C.ar   91  HIS91       0.1986
     84  NE2       -7.1880   -0.9190   13.6220 N.ar   91  HIS91      -0.2212
     85  N         -7.8620   -6.6810   12.2390 N.3    93  HIS93      -0.1241
     86  CA        -6.5550   -7.3820   12.3880 C.3    93  HIS93       0.1621
     87  C         -6.9790   -8.8410   12.2700 C.2    93  HIS93       0.2264
     88  O         -8.0540   -9.1840   12.7950 O.2    93  HIS93      -0.2867
     89  CB        -5.9230   -7.1640   13.7840 C.3    93  HIS93       0.0745
     90  CG        -5.6390   -5.7030   14.0980 C.ar   93  HIS93       0.0817
     91  ND1       -4.4220   -5.1980   13.9680 N.ar   93  HIS93      -0.2268
     92  CD2       -6.4670   -4.6550   14.5380 C.ar   93  HIS93       0.1154
     93  CE1       -4.4430   -3.8630   14.3130 C.ar   93  HIS93       0.1986
     94  NE2       -5.7050   -3.5510   14.6460 N.ar   93  HIS93      -0.2212
     95  N        -11.7930   -2.6950   14.5840 N.3   116  HIS116     -0.1241
     96  CA       -11.5980   -1.5780   15.4670 C.3   116  HIS116      0.1621
     97  C        -12.2190   -0.3880   14.7950 C.2   116  HIS116      0.2264
     98  O        -11.8040   -0.0570   13.6530 O.2   116  HIS116     -0.2867
     99  CB       -10.0750   -1.3520   15.6080 C.3   116  HIS116      0.0745
    100  CG        -9.3890   -2.3620   16.5430 C.ar  116  HIS116      0.0817
    101  ND1       -8.0530   -2.6050   16.5400 N.ar  116  HIS116     -0.2268
    102  CD2       -9.9070   -3.1840   17.5060 C.ar  116  HIS116      0.1154
    103  CE1       -7.7360   -3.4980   17.4900 C.ar  116  HIS116      0.1986
    104  NE2       -8.8490   -3.9280   18.0090 N.ar  116  HIS116     -0.2212
    105  N        -12.5210    3.5130   15.1040 N.3   118  VAL118     -0.1245
    106  CA       -11.5690    4.4540   15.7620 C.3   118  VAL118      0.1561
    107  C        -12.2890    5.8110   15.7980 C.2   118  VAL118      0.2260
    108  O        -12.6830    6.2810   14.7270 O.2   118  VAL118     -0.2867
    109  CB       -10.2480    4.6300   14.9710 C.3   118  VAL118      0.0252
    110  CG1       -9.3350    5.6910   15.6170 C.3   118  VAL118      0.0019
    111  CG2       -9.4490    3.3170   14.8480 C.3   118  VAL118      0.0019
    112  N         -8.3230   14.8360   14.6660 N.3   127  PHE127     -0.1241
    113  CA        -7.6980   13.5980   15.0490 C.3   127  PHE127      0.1605
    114  C         -6.2070   13.7990   15.4110 C.2   127  PHE127      0.2264
    115  O         -5.7000   13.1890   16.3470 O.2   127  PHE127     -0.2867
    116  CB        -7.8530   12.6010   13.8870 C.3   127  PHE127      0.0534
    117  CG        -7.1740   11.3250   14.1340 C.ar  127  PHE127     -0.0203
    118  CD1       -7.8390   10.2950   14.8200 C.ar  127  PHE127     -0.0042
    119  CD2       -5.8350   11.1690   13.8070 C.ar  127  PHE127     -0.0042
    120  CE1       -7.1960    9.1130   15.1160 C.ar  127  PHE127     -0.0003
    121  CE2       -5.1870    9.9790   14.0970 C.ar  127  PHE127     -0.0003
    122  CZ        -5.8720    8.9500   14.7440 C.ar  127  PHE127     -0.0000
    123  N         -4.8290   12.5720   19.2590 N.3   131  VAL131     -0.1245
    124  CA        -3.8640   11.4800   19.6000 C.3   131  VAL131      0.1561
    125  C         -2.7650   11.9400   20.5560 C.2   131  VAL131      0.2260
    126  O         -2.0510   11.1380   21.1560 O.2   131  VAL131     -0.2867
    127  CB        -3.1790   10.7010   18.4010 C.3   131  VAL131      0.0252
    128  CG1       -4.2280    9.9790   17.6320 C.3   131  VAL131      0.0019
    129  CG2       -2.2850   11.5680   17.4720 C.3   131  VAL131      0.0019
    130  N         -8.7280    9.4480   22.1120 N.3   137  LEU137     -0.1245
    131  CA        -9.4290    8.4900   21.2210 C.3   137  LEU137      0.1561
    132  C        -10.2570    7.5150   21.9910 C.2   137  LEU137      0.2260
    133  O         -9.9620    7.2970   23.1720 O.2   137  LEU137     -0.2867
    134  CB        -8.3960    7.6690   20.4100 C.3   137  LEU137      0.0270
    135  CG        -7.4610    8.3080   19.4070 C.3   137  LEU137      0.0019
    136  CD1       -6.8170    7.2140   18.5420 C.3   137  LEU137      0.0001
    137  CD2       -8.0360    9.4020   18.5080 C.3   137  LEU137      0.0001
    138  N        -11.6730    3.6730   20.9450 N.3   139  VAL139     -0.1245
    139  CA       -11.7090    2.6820   19.8880 C.3   139  VAL139      0.1561
    140  C        -12.6520    1.5850   20.3900 C.2   139  VAL139      0.2260
    141  O        -12.4950    1.0950   21.5260 O.2   139  VAL139     -0.2867
    142  CB       -10.3480    2.0660   19.5860 C.3   139  VAL139      0.0252
    143  CG1      -10.4450    1.1050   18.3790 C.3   139  VAL139      0.0019
    144  CG2       -9.3460    3.1940   19.1770 C.3   139  VAL139      0.0019
    145  N         -2.7230    3.1060   21.0090 N.3   194  LEU194     -0.1231
    146  CA        -2.7640    2.5710   19.6930 C.3   194  LEU194      0.1693
    147  C         -2.0430    1.2460   19.7640 C.2   194  LEU194      0.2593
    148  O         -1.0480    1.1280   20.4830 O.2   194  LEU194     -0.2718
    149  CB        -2.0170    3.4900   18.7360 C.3   194  LEU194      0.0284
    150  CG        -2.3290    4.9880   18.7740 C.3   194  LEU194      0.0019
    151  CD1       -1.4430    5.6760   17.7200 C.3   194  LEU194      0.0001
    152  CD2       -3.7860    5.3140   18.5420 C.3   194  LEU194      0.0001
    153  N         -2.5250    0.2640   18.9740 N.am  195  THR195     -0.1939
    154  CA        -1.8160   -1.0030   18.8460 C.3   195  THR195      0.2028
    155  C         -0.7960   -1.0910   17.6940 C.2   195  THR195      0.2643
    156  O         -0.1810   -2.1810   17.4550 O.2   195  THR195     -0.2714
    157  CB        -2.8370   -2.1800   18.7480 C.3   195  THR195      0.1808
    158  OG1       -3.4690   -2.1970   17.4340 O.3   195  THR195     -0.2208
    159  CG2       -3.8320   -2.1560   20.0010 C.3   195  THR195      0.0379
    160  N         -0.5840    0.0020   16.9600 N.am  196  THR196     -0.1937
    161  CA         0.5350    0.0700   16.0400 C.3   196  THR196      0.2013
    162  C          1.3220    1.3440   16.3360 C.2   196  THR196      0.2484
    163  O          0.7390    2.3020   16.9040 O.2   196  THR196     -0.2729
    164  CB         0.1290    0.1310   14.5510 C.3   196  THR196      0.1807
    165  OG1       -0.8240    1.2100   14.3520 O.3   196  THR196     -0.2208
    166  CG2       -0.4830   -1.2410   14.0870 C.3   196  THR196      0.0379
    167  N          2.6440    1.3230   15.9810 N.am  197  PRO197     -0.2715
    168  CA         3.3970    2.5640   16.1060 C.3   197  PRO197      0.1521
    169  C          2.5960    3.7720   15.5350 C.2   197  PRO197      0.2440
    170  O          2.0930    3.6850   14.4320 O.2   197  PRO197     -0.2731
    171  CB         4.5810    2.2950   15.2060 C.3   197  PRO197      0.0310
    172  CG         4.8630    0.8140   15.3470 C.3   197  PRO197      0.0237
    173  CD         3.4200    0.3150   15.2060 C.3   197  PRO197      0.0939
    174  N          2.6090    4.9390   16.1680 N.am  198  PRO198     -0.2727
    175  CA         3.4730    5.4480   17.2560 C.3   198  PRO198      0.1402
    176  C          3.0680    4.9770   18.6540 C.2   198  PRO198      0.2269
    177  O          3.7320    5.3120   19.6140 O.2   198  PRO198     -0.2865
    178  CB         3.3050    6.9870   17.1760 C.3   198  PRO198      0.0296
    179  CG         2.1230    7.2280   16.2900 C.3   198  PRO198      0.0237
    180  CD         1.9920    6.0280   15.3760 C.3   198  PRO198      0.0939
    181  N         -5.8700    6.1570   24.1580 N.3   203  VAL203     -0.1245
    182  CA        -7.1080    5.3960   23.8150 C.3   203  VAL203      0.1561
    183  C         -7.8790    4.9400   25.0250 C.2   203  VAL203      0.2260
    184  O         -7.3360    4.3500   25.9210 O.2   203  VAL203     -0.2867
    185  CB        -6.8580    4.1260   22.9690 C.3   203  VAL203      0.0252
    186  CG1       -8.2020    3.4810   22.6450 C.3   203  VAL203      0.0019
    187  CG2       -6.0880    4.4350   21.6500 C.3   203  VAL203      0.0019
    188  N        -10.3280    2.1790   25.4840 N.3   205  TRP205     -0.1241
    189  CA       -10.6820    0.9590   24.7670 C.3   205  TRP205      0.1605
    190  C        -12.0070    0.4540   25.2760 C.2   205  TRP205      0.2264
    191  O        -12.2620    0.4140   26.4780 O.2   205  TRP205     -0.2867
    192  CB        -9.5830   -0.1590   24.9880 C.3   205  TRP205      0.0550
    193  CG        -8.5050   -0.0460   23.9980 C.ar  205  TRP205      0.0003
    194  CD1       -7.2400    0.5310   24.1620 C.ar  205  TRP205      0.0946
    195  CD2       -8.5690   -0.4640   22.5890 C.ar  205  TRP205      0.0152
    196  NE1       -6.5570    0.4630   23.0200 N.ar  205  TRP205     -0.2442
    197  CE2       -7.2850   -0.1300   22.0180 C.ar  205  TRP205      0.0810
    198  CE3       -9.5430   -1.0570   21.7870 C.ar  205  TRP205      0.0012
    199  CZ2       -6.9800   -0.3830   20.6860 C.ar  205  TRP205      0.0191
    200  CZ3       -9.2220   -1.3190   20.4300 C.ar  205  TRP205      0.0001
    201  CH2       -7.9590   -0.9950   19.9060 C.ar  205  TRP205      0.0015
    202  N         -1.6390   -9.6670   11.1780 N.3   240  ASN240     -0.1240
    203  CA        -1.2830   -8.2620   11.4040 C.3   240  ASN240      0.1653
    204  C         -1.8260   -7.8550   12.7800 C.2   240  ASN240      0.2266
    205  O         -2.4740   -6.8140   12.8790 O.2   240  ASN240     -0.2867
    206  CB        -1.8410   -7.3640   10.3050 C.3   240  ASN240      0.1155
    207  CG        -3.2800   -7.6230    9.9730 C.2   240  ASN240      0.2627
    208  OD1       -3.9040   -8.5110   10.5170 O.2   240  ASN240     -0.2716
    209  ND2       -3.8600   -6.7530    9.1070 N.am  240  ASN240     -0.0877
@<TRIPOS>BOND
     1    27    28    1
     2    28    29    1
     3    28    31    1
     4    29    30    2
     5    53    52    2
     6    31    32    1
     7    48    47    2
     8    50    51    1
     9    52    51    1
    10    35    36    1
    11    47    46    1
    12    32    33    2
    13    32    34   am
    14    51    54    1
    15    54    55    1
    16    45    46    1
    17    45    37   am
    18    46    49    1
    19    36    37    1
    20    36    39    1
    21    57    55   am
    22    37    38    2
    23    55    56    2
    24    42    44   ar
    25    42    40   ar
    26    44    43   ar
    27    40    39    1
    28    40    41   ar
    29    41    43   ar
    30   209   207   am
    31    61    60    2
    32     4     3    2
    33    70    67    1
    34    70    71    1
    35   207   206    1
    36   207   208    2
    37    79    76    1
    38    79    80    1
    39    76    75    1
    40    76    77    1
    41    67    68    1
    42    67    66    1
    43   206   203    1
    44     1     2    1
    45    74    72   am
    46     3     2    1
    47    15    16    1
    48    60    66   am
    49    60    59    1
    50    22    24   ar
    51    22    20   ar
    52    63    65    1
    53    63    62    1
    54    72    71    1
    55    72    73    2
    56    77    78    2
    57    68    69    2
    58    19    16    1
    59    19    20    1
    60   202   203    1
    61    17    16    1
    62    17    18    2
    63     2     5    1
    64    24    25   ar
    65   203   204    1
    66    12    14   ar
    67    12    10   ar
    68     9    10   ar
    69     9     7   ar
    70    80    81   ar
    71    80    82   ar
    72    59    62    1
    73    59    58    1
    74    20    21   ar
    75    14    13   ar
    76    10     8   ar
    77     7     6   ar
    78    13    11   ar
    79     8     6   ar
    80     8    11   ar
    81    62    64    1
    82     6     5    1
    83    85    86    1
    84    87    86    1
    85    87    88    2
    86    81    83   ar
    87    86    89    1
    88    82    84   ar
    89    25    26    1
    90    25    23   ar
    91   204   205    2
    92    21    23   ar
    93    83    84   ar
    94    98    97    2
    95    89    90    1
    96   119   121   ar
    97   119   117   ar
    98   116   117    1
    99   116   113    1
   100    91    90   ar
   101    91    93   ar
   102   166   164    1
   103   121   122   ar
   104    90    92   ar
   105   117   118   ar
   106    93    94   ar
   107   165   164    1
   108   170   169    2
   109    92    94   ar
   110   164   161    1
   111    95    96    1
   112   112   113    1
   113   108   107    2
   114   122   120   ar
   115    97    96    1
   116   118   120   ar
   117   111   109    1
   118   109   110    1
   119   109   106    1
   120   113   114    1
   121   105   106    1
   122   173   172    1
   123   173   167    1
   124   171   172    1
   125   171   168    1
   126   180   174    1
   127   180   179    1
   128   114   115    2
   129    96    99    1
   130   169   168    1
   131   169   174   am
   132    99   100    1
   133   106   107    1
   134   167   168    1
   135   167   162   am
   136   161   162    1
   137   161   160    1
   138   174   175    1
   139   179   178    1
   140   162   163    2
   141   101   100   ar
   142   101   103   ar
   143   100   102   ar
   144   160   155   am
   145   178   175    1
   146   175   176    1
   147   158   157    1
   148   156   155    2
   149   129   127    1
   150   103   104   ar
   151   102   104   ar
   152   128   127    1
   153   155   154    1
   154   151   150    1
   155   143   142    1
   156   127   124    1
   157   137   135    1
   158   152   150    1
   159   136   135    1
   160   176   177    2
   161   149   150    1
   162   149   146    1
   163   157   154    1
   164   157   159    1
   165   154   153    1
   166   153   147   am
   167   144   142    1
   168   123   124    1
   169   135   134    1
   170   142   139    1
   171   124   125    1
   172   146   147    1
   173   146   145    1
   174   147   148    2
   175   139   140    1
   176   139   138    1
   177   201   200   ar
   178   201   199   ar
   179   140   141    2
   180   134   131    1
   181   200   198   ar
   182   125   126    2
   183   199   197   ar
   184   131   132    1
   185   131   130    1
   186   187   185    1
   187   198   195   ar
   188   132   133    2
   189   197   195   ar
   190   197   196   ar
   191   195   193   ar
   192   186   185    1
   193   185   182    1
   194   196   194   ar
   195   182   181    1
   196   182   183    1
   197   193   194   ar
   198   193   192    1
   199   189   192    1
   200   189   190    1
   201   189   188    1
   202   183   184    2
   203   190   191    2
