@<TRIPOS>MOLECULE
tmp/4pyyA00.pdb
 184 179 0 0 0
SMALL
GASTEIGER

@<TRIPOS>ATOM
      1  N         29.4600    1.2550   10.2370 N.3     2  TRP2       -0.1241
      2  CA        28.8390    0.3200   11.1860 C.3     2  TRP2        0.1605
      3  C         27.8590   -0.5220   10.4660 C.2     2  TRP2        0.2264
      4  O         27.2730   -0.0770    9.4740 O.2     2  TRP2       -0.2867
      5  CB        28.1830    1.0300   12.3880 C.3     2  TRP2        0.0550
      6  CG        26.9920    1.8570   12.0170 C.ar    2  TRP2        0.0003
      7  CD1       26.9250    3.2330   11.7370 C.ar    2  TRP2        0.0946
      8  CD2       25.6390    1.3880   11.9990 C.ar    2  TRP2        0.0152
      9  NE1       25.6270    3.6010   11.4770 N.ar    2  TRP2       -0.2442
     10  CE2       24.8060    2.5160   11.5930 C.ar    2  TRP2        0.0810
     11  CE3       25.0440    0.1340   12.2050 C.ar    2  TRP2        0.0012
     12  CZ2       23.4270    2.4100   11.5170 C.ar    2  TRP2        0.0191
     13  CZ3       23.6590    0.0370   12.0360 C.ar    2  TRP2        0.0001
     14  CH2       22.8710    1.1470   11.7380 C.ar    2  TRP2        0.0015
     15  N         17.7640    2.0410    3.6200 N.3    59  ASN59      -0.1240
     16  CA        18.8640    2.9150    4.0690 C.3    59  ASN59       0.1653
     17  C         20.1280    2.1120    4.2830 C.2    59  ASN59       0.2266
     18  O         21.1210    2.6230    4.8420 O.2    59  ASN59      -0.2867
     19  CB        18.4670    3.6760    5.3170 C.3    59  ASN59       0.1155
     20  CG        18.2010    2.7780    6.4950 C.2    59  ASN59       0.2627
     21  OD1       18.4720    1.5650    6.4780 O.2    59  ASN59      -0.2716
     22  ND2       17.7740    3.3950    7.5720 N.am   59  ASN59      -0.0877
     23  N         20.4260   -0.4880    6.1290 N.3    61  HIS61      -0.1241
     24  CA        20.3310   -1.1430    7.4690 C.3    61  HIS61       0.1621
     25  C         19.0010   -1.7930    7.6140 C.2    61  HIS61       0.2264
     26  O         18.9330   -2.9610    8.0580 O.2    61  HIS61      -0.2867
     27  CB        20.5080   -0.1270    8.6070 C.3    61  HIS61       0.0745
     28  CG        21.7770    0.6870    8.4560 C.ar   61  HIS61       0.0817
     29  ND1       22.9970    0.1010    8.4740 N.ar   61  HIS61      -0.2268
     30  CD2       21.9880    2.0360    8.3160 C.ar   61  HIS61       0.1154
     31  CE1       23.9550    1.0220    8.3190 C.ar   61  HIS61       0.1986
     32  NE2       23.3610    2.2080    8.1850 N.ar   61  HIS61      -0.2212
     33  N         12.7850    2.2390    5.7460 N.3    64  ASN64      -0.1240
     34  CA        11.9810    3.1700    6.5210 C.3    64  ASN64       0.1653
     35  C         10.7600    3.5700    5.7070 C.2    64  ASN64       0.2266
     36  O         10.9080    3.9930    4.5780 O.2    64  ASN64      -0.2867
     37  CB        12.7440    4.4500    6.7840 C.3    64  ASN64       0.1155
     38  CG        13.9250    4.2590    7.7110 C.2    64  ASN64       0.2627
     39  OD1       13.9550    3.3060    8.5130 O.2    64  ASN64      -0.2716
     40  ND2       14.9270    5.1850    7.6240 N.am   64  ASN64      -0.0877
     41  N          6.9530   10.0220   12.7210 N.3    88  ILE88      -0.1231
     42  CA         7.8220   10.4240   11.6210 C.3    88  ILE88       0.1692
     43  C          8.1400    9.2820   10.6590 C.2    88  ILE88       0.2591
     44  O          8.2290    9.4810    9.4350 O.2    88  ILE88      -0.2718
     45  CB         9.0910   11.1600   12.1140 C.3    88  ILE88       0.0266
     46  CG1        9.9900   11.4740   10.9010 C.3    88  ILE88       0.0019
     47  CG2        9.8980   10.3650   13.1400 C.3    88  ILE88       0.0020
     48  CD1       11.0320   12.4610   11.3110 C.3    88  ILE88       0.0001
     49  N          8.2920    8.0550   11.1990 N.am   89  GLN89      -0.1979
     50  CA         8.6000    6.9400   10.3150 C.3    89  GLN89       0.1601
     51  C          8.3980    5.6460   11.0840 C.2    89  GLN89       0.2287
     52  O          8.2670    5.6860   12.2780 O.2    89  GLN89      -0.2864
     53  CB        10.0840    6.9920    9.8400 C.3    89  GLN89       0.0394
     54  CG        11.1990    6.9970   10.9500 C.3    89  GLN89       0.0908
     55  CD        11.8940    5.6440   10.9560 C.2    89  GLN89       0.2608
     56  OE1       11.3310    4.6470   11.3400 O.2    89  GLN89      -0.2717
     57  NE2       13.0910    5.6040   10.3900 N.am   89  GLN89      -0.0878
     58  N          9.9430    1.3170   10.8730 N.3    91  HIS91      -0.1241
     59  CA        10.8160    0.3660   10.2170 C.3    91  HIS91       0.1621
     60  C         10.7550   -0.8790   11.0490 C.2    91  HIS91       0.2264
     61  O         10.0760   -0.9130   12.1090 O.2    91  HIS91      -0.2867
     62  CB        12.2770    0.8540   10.1960 C.3    91  HIS91       0.0745
     63  CG        12.7750    1.1510   11.5760 C.ar   91  HIS91       0.0817
     64  ND1       12.5310    2.3220   12.1930 N.ar   91  HIS91      -0.2268
     65  CD2       13.4600    0.3610   12.4690 C.ar   91  HIS91       0.1154
     66  CE1       13.0860    2.3040   13.4260 C.ar   91  HIS91       0.1986
     67  NE2       13.6410    1.0800   13.6140 N.ar   91  HIS91      -0.2212
     68  N         13.0810   -4.6230   12.3810 N.3    93  HIS93      -0.1241
     69  CA        14.3180   -5.4200   12.5100 C.3    93  HIS93       0.1621
     70  C         13.9080   -6.8780   12.3960 C.2    93  HIS93       0.2264
     71  O         12.8190   -7.2400   12.9480 O.2    93  HIS93      -0.2867
     72  CB        14.9650   -5.1950   13.8790 C.3    93  HIS93       0.0745
     73  CG        15.2660   -3.7380   14.1670 C.ar   93  HIS93       0.0817
     74  ND1       16.5060   -3.1980   13.9540 N.ar   93  HIS93      -0.2268
     75  CD2       14.4180   -2.6940   14.5420 C.ar   93  HIS93       0.1154
     76  CE1       16.4660   -1.8740   14.3180 C.ar   93  HIS93       0.1986
     77  NE2       15.1690   -1.5570   14.5940 N.ar   93  HIS93      -0.2212
     78  N          9.1430   -0.8340   14.7370 N.3   116  HIS116     -0.1241
     79  CA         9.3450    0.3750   15.5350 C.3   116  HIS116      0.1621
     80  C          8.6520    1.5260   14.8860 C.2   116  HIS116      0.2264
     81  O          8.9990    1.8890   13.7240 O.2   116  HIS116     -0.2867
     82  CB        10.8640    0.6740   15.6450 C.3   116  HIS116      0.0745
     83  CG        11.5530   -0.3210   16.5390 C.ar  116  HIS116      0.0817
     84  ND1       12.9310   -0.5620   16.5230 N.ar  116  HIS116     -0.2268
     85  CD2       11.0100   -1.1460   17.4980 C.ar  116  HIS116      0.1154
     86  CE1       13.2050   -1.5190   17.4630 C.ar  116  HIS116      0.1986
     87  NE2       12.0500   -1.8750   18.0670 N.ar  116  HIS116     -0.2212
     88  N          8.2680    5.3690   15.1120 N.3   118  VAL118     -0.1245
     89  CA         9.1410    6.3650   15.7700 C.3   118  VAL118      0.1561
     90  C          8.4250    7.7220   15.8350 C.2   118  VAL118      0.2260
     91  O          7.8890    8.1410   14.8180 O.2   118  VAL118     -0.2867
     92  CB        10.4930    6.4940   14.9830 C.3   118  VAL118      0.0252
     93  CG1       11.4600    7.5060   15.5960 C.3   118  VAL118      0.0019
     94  CG2       11.1750    5.1220   14.8800 C.3   118  VAL118      0.0019
     95  N         12.8690   17.0510   14.7370 N.3   127  PHE127     -0.1241
     96  CA        13.3870   15.8330   15.3060 C.3   127  PHE127      0.1605
     97  C         14.8880   15.8700   15.5690 C.2   127  PHE127      0.2264
     98  O         15.3880   15.1940   16.4830 O.2   127  PHE127     -0.2867
     99  CB        13.0310   14.6420   14.4240 C.3   127  PHE127      0.0534
    100  CG        13.7410   14.6240   13.0910 C.ar  127  PHE127     -0.0203
    101  CD1       15.0940   14.3160   12.9890 C.ar  127  PHE127     -0.0042
    102  CD2       13.0190   14.8550   11.9040 C.ar  127  PHE127     -0.0042
    103  CE1       15.7140   14.2850   11.7210 C.ar  127  PHE127     -0.0003
    104  CE2       13.6460   14.8310   10.6590 C.ar  127  PHE127     -0.0003
    105  CZ        14.9760   14.5400   10.5890 C.ar  127  PHE127     -0.0000
    106  N         16.2610   14.5600   19.3600 N.3   131  VAL131     -0.1245
    107  CA        17.2250   13.4610   19.6700 C.3   131  VAL131      0.1561
    108  C         18.3260   13.8680   20.6380 C.2   131  VAL131      0.2260
    109  O         18.9670   13.0050   21.2040 O.2   131  VAL131     -0.2867
    110  CB        17.8400   12.7590   18.4200 C.3   131  VAL131      0.0252
    111  CG1       16.7160   12.1750   17.5700 C.3   131  VAL131      0.0019
    112  CG2       18.6990   13.6910   17.5770 C.3   131  VAL131      0.0019
    113  N         12.2010   11.3420   22.0380 N.3   137  LEU137     -0.1245
    114  CA        11.5120   10.4250   21.1350 C.3   137  LEU137      0.1561
    115  C         10.6550    9.4440   21.9530 C.2   137  LEU137      0.2260
    116  O         10.9330    9.1480   23.1250 O.2   137  LEU137     -0.2867
    117  CB        12.5460    9.5880   20.3480 C.3   137  LEU137      0.0270
    118  CG        13.4380   10.2860   19.3120 C.3   137  LEU137      0.0019
    119  CD1       14.2040    9.2290   18.4820 C.3   137  LEU137      0.0001
    120  CD2       12.7640   11.2230   18.3270 C.3   137  LEU137      0.0001
    121  N          9.2390    5.5760   21.0130 N.3   139  VAL139     -0.1245
    122  CA         9.2060    4.5060   19.9730 C.3   139  VAL139      0.1561
    123  C          8.2250    3.4380   20.4430 C.2   139  VAL139      0.2260
    124  O          8.3670    2.8940   21.5890 O.2   139  VAL139     -0.2867
    125  CB        10.6020    3.9180   19.6470 C.3   139  VAL139      0.0252
    126  CG1       10.4510    2.9480   18.4540 C.3   139  VAL139      0.0019
    127  CG2       11.4920    5.0550   19.1890 C.3   139  VAL139      0.0019
    128  N         18.2550    4.9850   21.1380 N.3   194  LEU194     -0.1231
    129  CA        18.1690    4.4320   19.7770 C.3   194  LEU194      0.1693
    130  C         18.9090    3.0820   19.8370 C.2   194  LEU194      0.2593
    131  O         19.8990    2.9010   20.5590 O.2   194  LEU194     -0.2718
    132  CB        18.8710    5.4350   18.8510 C.3   194  LEU194      0.0284
    133  CG        18.2850    6.8260   18.7700 C.3   194  LEU194      0.0019
    134  CD1       19.1650    7.5740   17.8260 C.3   194  LEU194      0.0001
    135  CD2       16.8930    6.7030   18.1530 C.3   194  LEU194      0.0001
    136  N         18.4250    2.0780   19.0990 N.am  195  THR195     -0.1939
    137  CA        19.1260    0.7890   19.0770 C.3   195  THR195      0.2028
    138  C         20.1670    0.6310   17.9620 C.2   195  THR195      0.2643
    139  O         20.7500   -0.4630   17.8160 O.2   195  THR195     -0.2714
    140  CB        18.1290   -0.3760   18.8870 C.3   195  THR195      0.1808
    141  OG1       17.5580   -0.2700   17.5640 O.3   195  THR195     -0.2208
    142  CG2       17.0410   -0.3620   19.9800 C.3   195  THR195      0.0379
    143  N         20.3450    1.6730   17.1390 N.am  196  THR196     -0.1937
    144  CA        21.4890    1.6850   16.2020 C.3   196  THR196      0.2013
    145  C         22.2780    2.9510   16.4410 C.2   196  THR196      0.2484
    146  O         21.7730    3.9370   17.0160 O.2   196  THR196     -0.2729
    147  CB        21.1320    1.6180   14.7290 C.3   196  THR196      0.1807
    148  OG1       20.7250    2.8860   14.2780 O.3   196  THR196     -0.2208
    149  CG2       19.9450    0.6720   14.5050 C.3   196  THR196      0.0379
    150  N         23.5410    2.9340   15.9610 N.am  197  PRO197     -0.2715
    151  CA        24.3110    4.2130   16.0350 C.3   197  PRO197      0.1521
    152  C         23.4300    5.3190   15.4760 C.2   197  PRO197      0.2440
    153  O         22.7970    5.0920   14.4020 O.2   197  PRO197     -0.2731
    154  CB        25.4890    3.9010   15.1000 C.3   197  PRO197      0.0310
    155  CG        25.7560    2.4140   15.3860 C.3   197  PRO197      0.0237
    156  CD        24.3160    1.8360   15.3660 C.3   197  PRO197      0.0939
    157  N         23.4240    6.4960   16.0750 N.am  198  PRO198     -0.2727
    158  CA        24.3400    6.9740   17.1160 C.3   198  PRO198      0.1402
    159  C         23.9880    6.6140   18.5730 C.2   198  PRO198      0.2269
    160  O         24.6220    7.1110   19.4970 O.2   198  PRO198     -0.2865
    161  CB        24.3270    8.4870   16.9080 C.3   198  PRO198      0.0296
    162  CG        23.0200    8.8010   16.2870 C.3   198  PRO198      0.0237
    163  CD        22.6250    7.6250   15.4820 C.3   198  PRO198      0.0939
    164  N         15.1440    8.0920   24.1230 N.3   203  VAL203     -0.1245
    165  CA        13.9000    7.3320   23.7960 C.3   203  VAL203      0.1561
    166  C         13.1250    6.9080   25.0370 C.2   203  VAL203      0.2260
    167  O         13.6860    6.2090   25.9130 O.2   203  VAL203     -0.2867
    168  CB        14.2150    6.0660   22.9380 C.3   203  VAL203      0.0252
    169  CG1       12.8660    5.4120   22.5060 C.3   203  VAL203      0.0019
    170  CG2       14.9560    6.5170   21.6570 C.3   203  VAL203      0.0019
    171  N         10.6710    4.1000   25.5890 N.3   205  TRP205     -0.1241
    172  CA        10.2320    2.9020   24.8540 C.3   205  TRP205      0.1605
    173  C          8.8870    2.4730   25.3550 C.2   205  TRP205      0.2264
    174  O          8.6770    2.3880   26.5500 O.2   205  TRP205     -0.2867
    175  CB        11.2380    1.7330   25.0940 C.3   205  TRP205      0.0550
    176  CG        12.3780    1.9010   24.1160 C.ar  205  TRP205      0.0003
    177  CD1       13.6520    2.4710   24.2760 C.ar  205  TRP205      0.0946
    178  CD2       12.2990    1.5160   22.7180 C.ar  205  TRP205      0.0152
    179  NE1       14.3080    2.4460   23.0630 N.ar  205  TRP205     -0.2442
    180  CE2       13.5900    1.8400   22.1360 C.ar  205  TRP205      0.0810
    181  CE3       11.3110    0.8630   21.9440 C.ar  205  TRP205      0.0012
    182  CZ2       13.8790    1.5930   20.8140 C.ar  205  TRP205      0.0191
    183  CZ3       11.6100    0.5750   20.6080 C.ar  205  TRP205      0.0001
    184  CH2       12.8570    0.9300   20.0600 C.ar  205  TRP205      0.0015
@<TRIPOS>BOND
     1    15    16    1
     2    16    17    1
     3    16    19    1
     4    17    18    2
     5    36    35    2
     6    19    20    1
     7    35    34    1
     8    33    34    1
     9    23    24    1
    10    21    20    2
    11    20    22   am
    12    34    37    1
    13    37    38    1
    14    24    25    1
    15    24    27    1
    16    25    26    2
    17    40    38   am
    18    38    39    2
    19    32    30   ar
    20    32    31   ar
    21    30    28   ar
    22    31    29   ar
    23    28    29   ar
    24    28    27    1
    25    44    43    2
    26     4     3    2
    27    53    50    1
    28    53    54    1
    29    62    59    1
    30    62    63    1
    31    59    58    1
    32    59    60    1
    33     1     2    1
    34    50    51    1
    35    50    49    1
    36    57    55   am
    37     3     2    1
    38   105   104   ar
    39   105   103   ar
    40   104   102   ar
    41    43    49   am
    42    43    42    1
    43    46    48    1
    44    46    45    1
    45    54    55    1
    46    55    56    2
    47    60    61    2
    48    51    52    2
    49     2     5    1
    50     9    10   ar
    51     9     7   ar
    52    12    10   ar
    53    12    14   ar
    54    63    64   ar
    55    63    65   ar
    56    10     8   ar
    57    42    45    1
    58    42    41    1
    59   103   101   ar
    60     7     6   ar
    61    14    13   ar
    62   102   100   ar
    63     8     6   ar
    64     8    11   ar
    65     6     5    1
    66    13    11   ar
    67    45    47    1
    68    64    66   ar
    69    68    69    1
    70    70    69    1
    71    70    71    2
    72    65    67   ar
    73    69    72    1
    74   101   100   ar
    75   100    99    1
    76    66    67   ar
    77    81    80    2
    78    72    73    1
    79    74    73   ar
    80    74    76   ar
    81    73    75   ar
    82   148   147    1
    83    76    77   ar
    84   153   152    2
    85    99    96    1
    86   149   147    1
    87    75    77   ar
    88   147   144    1
    89    78    79    1
    90    95    96    1
    91    91    90    2
    92    94    92    1
    93    80    79    1
    94    92    93    1
    95    92    89    1
    96   154   155    1
    97   154   151    1
    98    88    89    1
    99    96    97    1
   100   156   155    1
   101   156   150    1
   102   152   151    1
   103   152   157   am
   104   163   157    1
   105   163   162    1
   106    79    82    1
   107    97    98    2
   108    82    83    1
   109    89    90    1
   110   150   151    1
   111   150   145   am
   112   157   158    1
   113   144   145    1
   114   144   143    1
   115   162   161    1
   116   145   146    2
   117    84    83   ar
   118    84    86   ar
   119    83    85   ar
   120   161   158    1
   121   158   159    1
   122   143   138   am
   123    86    87   ar
   124    85    87   ar
   125   141   140    1
   126   111   110    1
   127   112   110    1
   128   139   138    2
   129   134   133    1
   130   138   137    1
   131   135   133    1
   132   120   118    1
   133   110   107    1
   134   126   125    1
   135   119   118    1
   136   159   160    2
   137   133   132    1
   138   132   129    1
   139   140   137    1
   140   140   142    1
   141   137   136    1
   142   136   130   am
   143   127   125    1
   144   118   117    1
   145   106   107    1
   146   125   122    1
   147   107   108    1
   148   129   130    1
   149   129   128    1
   150   130   131    2
   151   122   123    1
   152   122   121    1
   153   184   183   ar
   154   184   182   ar
   155   117   114    1
   156   123   124    2
   157   183   181   ar
   158   108   109    2
   159   182   180   ar
   160   114   115    1
   161   114   113    1
   162   170   168    1
   163   181   178   ar
   164   115   116    2
   165   180   178   ar
   166   180   179   ar
   167   169   168    1
   168   178   176   ar
   169   168   165    1
   170   179   177   ar
   171   165   164    1
   172   165   166    1
   173   176   177   ar
   174   176   175    1
   175   172   175    1
   176   172   173    1
   177   172   171    1
   178   166   167    2
   179   173   174    2
