@<TRIPOS>MOLECULE
tmp/4pz0A00.pdb
 147 144 0 0 0
SMALL
GASTEIGER

@<TRIPOS>ATOM
      1  N         31.6570   10.7070   15.8450 N.3    15  LYS15      -0.1245
      2  CA        31.2450   12.0170   16.3500 C.3    15  LYS15       0.1561
      3  C         32.4420   12.7370   16.9650 C.2    15  LYS15       0.2260
      4  O         32.5860   13.9500   16.8320 O.2    15  LYS15      -0.2867
      5  CB        30.1640   11.8690   17.4140 C.3    15  LYS15       0.0271
      6  CG        28.8330   11.3670   16.9090 C.3    15  LYS15       0.0035
      7  CD        27.8530   11.2380   18.0650 C.3    15  LYS15       0.0206
      8  CE        26.5280   10.6550   17.6340 C.3    15  LYS15       0.1093
      9  NZ        25.6500   10.3770   18.7970 N.3    15  LYS15      -0.1314
     10  N         36.5440    8.2710   22.8690 N.3    19  VAL19      -0.1245
     11  CA        35.4230    7.6860   23.5810 C.3    19  VAL19       0.1561
     12  C         35.3780    6.2200   23.1560 C.2    19  VAL19       0.2260
     13  O         35.4600    5.9150   21.9650 O.2    19  VAL19      -0.2867
     14  CB        34.1060    8.3940   23.2140 C.3    19  VAL19       0.0252
     15  CG1       32.9100    7.6630   23.8080 C.3    19  VAL19       0.0019
     16  CG2       34.1400    9.8450   23.6800 C.3    19  VAL19       0.0019
     17  N         33.2420    3.8340   22.7140 N.3    21  PHE21      -0.1227
     18  CA        32.3290    3.4710   21.6380 C.3    21  PHE21       0.1736
     19  C         32.9380    3.7160   20.2610 C.2    21  PHE21       0.2595
     20  O         32.8710    2.8600   19.3660 O.2    21  PHE21      -0.2718
     21  CB        31.0360    4.2730   21.7780 C.3    21  PHE21       0.0547
     22  CG        30.0120    3.9590   20.7320 C.ar   21  PHE21      -0.0202
     23  CD1       29.1170    2.9190   20.9250 C.ar   21  PHE21      -0.0042
     24  CD2       29.9380    4.6940   19.5580 C.ar   21  PHE21      -0.0042
     25  CE1       28.1560    2.6180   19.9700 C.ar   21  PHE21      -0.0003
     26  CE2       28.9960    4.4010   18.5840 C.ar   21  PHE21      -0.0003
     27  CZ        28.0950    3.3620   18.7930 C.ar   21  PHE21      -0.0000
     28  N         33.5050    4.9030   20.0780 N.am   22  PHE22      -0.1976
     29  CA        34.0650    5.2770   18.7840 C.3    22  PHE22       0.1639
     30  C         35.3820    4.5850   18.4710 C.2    22  PHE22       0.2290
     31  O         35.6000    4.1410   17.3450 O.2    22  PHE22      -0.2864
     32  CB        34.1000    6.8050   18.6330 C.3    22  PHE22       0.0560
     33  CG        32.7230    7.3820   18.5400 C.ar   22  PHE22      -0.0200
     34  CD1       31.9370    7.0820   17.4400 C.ar   22  PHE22      -0.0042
     35  CD2       32.1770    8.1400   19.5700 C.ar   22  PHE22      -0.0042
     36  CE1       30.6500    7.5520   17.3350 C.ar   22  PHE22      -0.0003
     37  CE2       30.8680    8.6090   19.4750 C.ar   22  PHE22      -0.0003
     38  CZ        30.1070    8.3060   18.3530 C.ar   22  PHE22      -0.0000
     39  N         25.6960    4.5650   13.1270 N.3    93  ASP93      -0.1239
     40  CA        25.4270    5.0430   14.4860 C.3    93  ASP93       0.1674
     41  C         24.4190    6.1970   14.5100 C.2    93  ASP93       0.2266
     42  O         23.2590    5.9920   14.8580 O.2    93  ASP93      -0.2867
     43  CB        26.7380    5.3770   15.2130 C.3    93  ASP93       0.1410
     44  CG        26.5240    5.9230   16.5970 C.2    93  ASP93       0.3668
     45  OD1       25.6660    5.3880   17.3280 O.co2  93  ASP93      -0.2456
     46  OD2       27.2400    6.8910   16.9590 O.co2  93  ASP93      -0.2456
     47  N         22.0640    0.5990   14.5130 N.3   107  GLN107     -0.1245
     48  CA        22.0110   -0.3420   15.6250 C.3   107  GLN107      0.1566
     49  C         20.5910   -0.7360   15.9900 C.2   107  GLN107      0.2260
     50  O         20.3970   -1.6720   16.7570 O.2   107  GLN107     -0.2867
     51  CB        22.6810    0.2590   16.8560 C.3   107  GLN107      0.0367
     52  CG        22.1750    1.6500   17.2490 C.3   107  GLN107      0.0905
     53  CD        23.0100    2.7780   16.6610 C.2   107  GLN107      0.2608
     54  OE1       23.3860    2.7490   15.4910 O.2   107  GLN107     -0.2717
     55  NE2       23.3290    3.7660   17.4850 N.am  107  GLN107     -0.0878
     56  N         20.8350   10.6970   16.3740 N.3   141  ASP141     -0.1225
     57  CA        20.4090    9.4110   16.9180 C.3   141  ASP141      0.1805
     58  C         19.6940    9.5060   18.2500 C.2   141  ASP141      0.2597
     59  O         18.5650    9.0230   18.4090 O.2   141  ASP141     -0.2718
     60  CB        21.5550    8.3740   16.9620 C.3   141  ASP141      0.1424
     61  CG        22.7510    8.7820   17.8420 C.2   141  ASP141      0.3668
     62  OD1       22.9190    9.9670   18.2380 O.co2 141  ASP141     -0.2456
     63  OD2       23.5780    7.8780   18.1040 O.co2 141  ASP141     -0.2456
     64  N         20.3420   10.1550   19.2090 N.am  142  GLN142     -0.1979
     65  CA        19.8240   10.1160   20.5640 C.3   142  GLN142      0.1601
     66  C         18.4770   10.8110   20.6610 C.2   142  GLN142      0.2287
     67  O         17.6060   10.3910   21.4200 O.2   142  GLN142     -0.2864
     68  CB        20.8440   10.6700   21.5520 C.3   142  GLN142      0.0394
     69  CG        22.0960    9.8060   21.5880 C.3   142  GLN142      0.0908
     70  CD        23.2280   10.4140   22.3900 C.2   142  GLN142      0.2608
     71  OE1       23.0460   11.4010   23.1170 O.2   142  GLN142     -0.2717
     72  NE2       24.4140    9.8330   22.2570 N.am  142  GLN142     -0.0878
     73  N         15.7090    8.4870   19.3880 N.3   145  TRP145     -0.1241
     74  CA        15.3380    7.4740   20.3730 C.3   145  TRP145      0.1605
     75  C         14.5790    8.0770   21.5460 C.2   145  TRP145      0.2264
     76  O         13.5950    7.5100   22.0250 O.2   145  TRP145     -0.2867
     77  CB        16.5630    6.7560   20.9250 C.3   145  TRP145      0.0550
     78  CG        17.5430    6.2900   19.9130 C.ar  145  TRP145      0.0003
     79  CD1       17.3070    5.9540   18.6050 C.ar  145  TRP145      0.0946
     80  CD2       18.9430    6.1440   20.1230 C.ar  145  TRP145      0.0152
     81  NE1       18.4940    5.6040   17.9920 N.ar  145  TRP145     -0.2442
     82  CE2       19.5080    5.7060   18.9080 C.ar  145  TRP145      0.0810
     83  CE3       19.7790    6.3470   21.2260 C.ar  145  TRP145      0.0012
     84  CZ2       20.8740    5.4630   18.7660 C.ar  145  TRP145      0.0191
     85  CZ3       21.1300    6.1080   21.0880 C.ar  145  TRP145      0.0001
     86  CH2       21.6660    5.6610   19.8680 C.ar  145  TRP145      0.0015
     87  N         29.0280   15.0480   25.2790 N.3   170  ASN170     -0.1240
     88  CA        30.0620   14.0730   24.9100 C.3   170  ASN170      0.1653
     89  C         31.3720   14.3260   25.6570 C.2   170  ASN170      0.2266
     90  O         32.4400   13.9370   25.1950 O.2   170  ASN170     -0.2867
     91  CB        30.3380   14.0610   23.3960 C.3   170  ASN170      0.1155
     92  CG        29.0800   13.8880   22.5700 C.2   170  ASN170      0.2627
     93  OD1       28.4840   14.8630   22.1050 O.2   170  ASN170     -0.2716
     94  ND2       28.6690   12.6490   22.3760 N.am  170  ASN170     -0.0877
     95  N         20.9930    7.4930   27.4270 N.3   195  PRO195     -0.2102
     96  CA        21.3080    6.9110   26.1140 C.3   195  PRO195      0.1504
     97  C         22.4790    7.6280   25.4280 C.2   195  PRO195      0.2576
     98  O         22.3510    8.1640   24.3270 O.2   195  PRO195     -0.2718
     99  CB        20.0090    7.0980   25.3280 C.3   195  PRO195      0.0282
    100  CG        19.4120    8.3280   25.9170 C.3   195  PRO195      0.0208
    101  CD        19.7660    8.3080   27.3860 C.3   195  PRO195      0.0893
    102  N         23.6240    7.6280   26.1000 N.am  196  ASP196     -0.1960
    103  CA        24.8420    8.2200   25.5590 C.3   196  ASP196      0.1840
    104  C         26.0340    7.6030   26.2470 C.2   196  ASP196      0.2621
    105  O         26.0510    7.4670   27.4760 O.2   196  ASP196     -0.2715
    106  CB        24.8740    9.7320   25.7750 C.3   196  ASP196      0.1450
    107  CG        26.2050   10.3220   25.3910 C.2   196  ASP196      0.3671
    108  OD1       26.4690   10.4220   24.1700 O.co2 196  ASP196     -0.2456
    109  OD2       27.0110   10.6490   26.2970 O.co2 196  ASP196     -0.2456
    110  N         27.0440    7.2640   25.4490 N.am  197  ALA197     -0.1977
    111  CA        28.1650    6.4710   25.9420 C.3   197  ALA197      0.1597
    112  C         29.0090    7.1740   27.0000 C.2   197  ALA197      0.2287
    113  O         29.7020    6.5070   27.7680 O.2   197  ALA197     -0.2864
    114  CB        29.0390    6.0360   24.7850 C.3   197  ALA197      0.0319
    115  N         22.9070    3.5350   27.5770 N.3   219  PHE219     -0.1241
    116  CA        23.7380    2.9160   26.5510 C.3   219  PHE219      0.1605
    117  C         25.1920    3.3520   26.7010 C.2   219  PHE219      0.2264
    118  O         25.4790    4.5520   26.7260 O.2   219  PHE219     -0.2867
    119  CB        23.2970    3.3340   25.1450 C.3   219  PHE219      0.0534
    120  CG        21.8930    2.9050   24.7510 C.ar  219  PHE219     -0.0203
    121  CD1       21.2890    1.7480   25.2570 C.ar  219  PHE219     -0.0042
    122  CD2       21.2020    3.6510   23.8070 C.ar  219  PHE219     -0.0042
    123  CE1       20.0100    1.3830   24.8450 C.ar  219  PHE219     -0.0003
    124  CE2       19.9320    3.3000   23.3910 C.ar  219  PHE219     -0.0003
    125  CZ        19.3360    2.1510   23.9070 C.ar  219  PHE219     -0.0000
    126  N         23.6120   -2.0050   24.7340 N.3   238  LEU238     -0.1231
    127  CA        24.3000   -1.5190   23.5460 C.3   238  LEU238      0.1693
    128  C         24.0470   -2.5440   22.4380 C.2   238  LEU238      0.2592
    129  O         22.9200   -3.0320   22.2800 O.2   238  LEU238     -0.2718
    130  CB        25.7980   -1.2380   23.7740 C.3   238  LEU238      0.0284
    131  CG        26.4380   -0.2280   22.8050 C.3   238  LEU238      0.0019
    132  CD1       26.0690    1.2160   23.1410 C.3   238  LEU238      0.0001
    133  CD2       27.9540   -0.4000   22.7550 C.3   238  LEU238      0.0001
    134  N         25.1020   -2.8470   21.6870 N.am  239  TRP239     -0.1976
    135  CA        25.0760   -3.6770   20.4970 C.3   239  TRP239      0.1640
    136  C         26.5540   -3.8440   20.1500 C.2   239  TRP239      0.2290
    137  O         27.4120   -3.1630   20.7200 O.2   239  TRP239     -0.2864
    138  CB        24.2980   -2.9830   19.3700 C.3   239  TRP239      0.0576
    139  CG        24.7440   -1.5570   19.1590 C.ar  239  TRP239      0.0006
    140  CD1       25.7920   -1.1250   18.3880 C.ar  239  TRP239      0.0946
    141  CD2       24.1830   -0.3780   19.7640 C.ar  239  TRP239      0.0152
    142  NE1       25.9080    0.2450   18.4710 N.ar  239  TRP239     -0.2442
    143  CE2       24.9330    0.7240   19.3060 C.ar  239  TRP239      0.0810
    144  CE3       23.1060   -0.1490   20.6250 C.ar  239  TRP239      0.0012
    145  CZ2       24.6500    2.0300   19.6990 C.ar  239  TRP239      0.0191
    146  CZ3       22.8280    1.1470   21.0120 C.ar  239  TRP239      0.0001
    147  CH2       23.5980    2.2220   20.5550 C.ar  239  TRP239      0.0015
@<TRIPOS>BOND
     1    39    40    1
     2    40    41    1
     3    40    43    1
     4    41    42    2
     5    47    48    1
     6    43    44    1
     7    54    53    2
     8    48    49    1
     9    48    51    1
    10     1     2    1
    11    49    50    2
    12     2     3    1
    13     2     5    1
    14    56    57    1
    15    44    46   ar
    16    44    45   ar
    17    53    52    1
    18    53    55   am
    19     4     3    2
    20    51    52    1
    21     6     5    1
    22     6     7    1
    23    57    60    1
    24    57    58    1
    25    60    61    1
    26    36    34   ar
    27    36    38   ar
    28    31    30    2
    29    34    33   ar
    30     8     7    1
    31     8     9    1
    32    61    63   ar
    33    61    62   ar
    34    81    79   ar
    35    81    82   ar
    36    58    59    2
    37    58    64   am
    38    38    37   ar
    39   140   142   ar
    40   140   139   ar
    41   142   143   ar
    42    30    29    1
    43    33    32    1
    44    33    35   ar
    45    26    27   ar
    46    26    24   ar
    47    79    78   ar
    48    32    29    1
    49    84    82   ar
    50    84    86   ar
    51    29    28    1
    52    27    25   ar
    53    82    80   ar
    54   139   138    1
    55   139   141   ar
    56    64    65    1
    57   143   145   ar
    58   143   141   ar
    59    20    19    2
    60   138   135    1
    61    73    74    1
    62    37    35   ar
    63    24    22   ar
    64   145   147   ar
    65   141   144   ar
    66    86    85   ar
    67    78    80   ar
    68    78    77    1
    69    25    23   ar
    70    28    19   am
    71    80    83   ar
    72   136   135    1
    73   136   137    2
    74    19    18    1
    75    74    77    1
    76    74    75    1
    77   135   134    1
    78   147   146   ar
    79    65    66    1
    80    65    68    1
    81   144   146   ar
    82    66    67    2
    83    22    23   ar
    84    22    21    1
    85    85    83   ar
    86    75    76    2
    87    68    69    1
    88    69    70    1
    89    18    21    1
    90    18    17    1
    91   134   128   am
    92    13    12    2
    93    93    92    2
    94    72    70   am
    95   129   128    2
    96    94    92   am
    97    70    71    2
    98   128   127    1
    99    92    91    1
   100   133   131    1
   101   131   132    1
   102   131   130    1
   103    10    11    1
   104    12    11    1
   105    14    11    1
   106    14    16    1
   107    14    15    1
   108   124   122   ar
   109   124   125   ar
   110    91    88    1
   111   127   130    1
   112   127   126    1
   113   122   120   ar
   114   125   123   ar
   115   108   107   ar
   116    98    97    2
   117   120   119    1
   118   120   121   ar
   119   114   111    1
   120   123   121   ar
   121    88    87    1
   122    88    89    1
   123   119   116    1
   124    90    89    2
   125    99   100    1
   126    99    96    1
   127   107   106    1
   128   107   109   ar
   129    97   102   am
   130    97    96    1
   131   110   111    1
   132   110   104   am
   133   103   106    1
   134   103   102    1
   135   103   104    1
   136   100   101    1
   137   111   112    1
   138    96    95    1
   139   104   105    2
   140   116   117    1
   141   116   115    1
   142   117   118    2
   143   112   113    2
   144   101    95    1
