@<TRIPOS>MOLECULE
tmp/4pz4B03.pdb
 80 78 0 0 0
SMALL
GASTEIGER

@<TRIPOS>ATOM
      1  N         16.0380    2.4920   27.8660 N.3    27  ARG27      -0.1245
      2  CA        17.2330    3.2210   28.2750 C.3    27  ARG27       0.1563
      3  C         17.6620    2.8180   29.7040 C.2    27  ARG27       0.2260
      4  O         18.8440    2.6350   29.9640 O.2    27  ARG27      -0.2867
      5  CB        16.9880    4.7370   28.1710 C.3    27  ARG27       0.0307
      6  CG        18.1210    5.6180   28.6660 C.3    27  ARG27       0.0489
      7  CD        19.4880    5.2470   28.1960 C.3    27  ARG27       0.2205
      8  NE        20.4820    6.1020   28.8450 N.pl3  27  ARG27      -0.0865
      9  CZ        20.9230    5.9740   30.0960 C.cat  27  ARG27       0.5346
     10  NH1       20.4940    4.9840   30.9080 N.pl3  27  ARG27       0.1354
     11  NH2       21.8280    6.8480   30.5240 N.pl3  27  ARG27       0.1354
     12  N         21.5390    1.3690   22.6200 N.3    62  PHE62      -0.1227
     13  CA        21.9220    2.4880   23.4570 C.3    62  PHE62       0.1736
     14  C         23.4180    2.5690   23.6710 C.2    62  PHE62       0.2595
     15  O         24.0940    1.5450   23.8420 O.2    62  PHE62      -0.2718
     16  CB        21.2240    2.4040   24.8080 C.3    62  PHE62       0.0547
     17  CG        19.7620    2.7000   24.7370 C.ar   62  PHE62      -0.0202
     18  CD1       19.3180    4.0180   24.6320 C.ar   62  PHE62      -0.0042
     19  CD2       18.8160    1.6600   24.7890 C.ar   62  PHE62      -0.0042
     20  CE1       17.9430    4.3110   24.5590 C.ar   62  PHE62      -0.0003
     21  CE2       17.4440    1.9420   24.7110 C.ar   62  PHE62      -0.0003
     22  CZ        17.0020    3.2740   24.5920 C.ar   62  PHE62      -0.0000
     23  N         23.9230    3.7980   23.6240 N.am   63  ILE63      -0.1980
     24  CA        25.2150    4.1250   24.2510 C.3    63  ILE63       0.1595
     25  C         24.9170    5.3250   25.1550 C.2    63  ILE63       0.2287
     26  O         23.7700    5.7080   25.3100 O.2    63  ILE63      -0.2864
     27  CB        26.3270    4.4350   23.2280 C.3    63  ILE63       0.0276
     28  CG1       25.9630    5.6840   22.3890 C.3    63  ILE63       0.0022
     29  CG2       26.5560    3.2300   22.3410 C.3    63  ILE63       0.0022
     30  CD1       27.1210    6.2140   21.5860 C.3    63  ILE63       0.0001
     31  N         24.1530    8.7370   25.8380 N.3    65  GLY65      -0.1210
     32  CA        23.6080    9.8900   25.1070 C.3    65  GLY65       0.1956
     33  C         23.0270    9.6730   23.7180 C.2    65  GLY65       0.2612
     34  O         22.5730   10.6250   23.0840 O.2    65  GLY65      -0.2717
     35  N         23.0610    8.4360   23.2230 N.am   66  HIS66      -0.1961
     36  CA        22.6530    8.1800   21.8360 C.3    66  HIS66       0.1787
     37  C         22.1350    6.7660   21.6430 C.2    66  HIS66       0.2620
     38  O         22.3080    5.9120   22.5190 O.2    66  HIS66      -0.2715
     39  CB        23.8160    8.3920   20.8410 C.3    66  HIS66       0.0785
     40  CG        24.5640    9.6770   21.0350 C.ar   66  HIS66       0.0821
     41  ND1       24.1300   10.8760   20.5100 N.ar   66  HIS66      -0.2267
     42  CD2       25.7120    9.9500   21.7020 C.ar   66  HIS66       0.1154
     43  CE1       24.9820   11.8340   20.8380 C.ar   66  HIS66       0.1986
     44  NE2       25.9460   11.3000   21.5660 N.ar   66  HIS66      -0.2212
     45  N         21.5060    6.5430   20.4910 N.am   67  VAL67      -0.1977
     46  CA        21.1820    5.2140   19.9960 C.3    67  VAL67       0.1596
     47  C         21.8960    5.0980   18.6710 C.2    67  VAL67       0.2287
     48  O         21.7610    6.0000   17.8170 O.2    67  VAL67      -0.2864
     49  CB        19.6440    5.0040   19.8360 C.3    67  VAL67       0.0276
     50  CG1       19.3340    3.6510   19.1790 C.3    67  VAL67       0.0022
     51  CG2       18.9520    5.0840   21.2000 C.3    67  VAL67       0.0022
     52  N         24.1320    7.5610   13.9530 N.3    87  ILE87      -0.1231
     53  CA        23.3470    8.0180   15.0930 C.3    87  ILE87       0.1692
     54  C         21.8680    8.1160   14.6860 C.2    87  ILE87       0.2592
     55  O         21.5010    8.9080   13.7870 O.2    87  ILE87      -0.2718
     56  CB        23.8860    9.3790   15.6230 C.3    87  ILE87       0.0266
     57  CG1       25.3880    9.2920   15.9640 C.3    87  ILE87       0.0019
     58  CG2       23.0490    9.8530   16.8220 C.3    87  ILE87       0.0020
     59  CD1       25.9990   10.6310   16.4420 C.3    87  ILE87       0.0001
     60  N         21.0140    7.3400   15.3630 N.am   88  LEU88      -0.1966
     61  CA        19.5850    7.3380   15.0790 C.3    88  LEU88       0.1728
     62  C         18.9140    8.5190   15.7490 C.2    88  LEU88       0.2617
     63  O         19.2210    8.8370   16.9020 O.2    88  LEU88      -0.2715
     64  CB        18.9660    6.0310   15.6150 C.3    88  LEU88       0.0311
     65  CG        17.4590    5.8780   15.4230 C.3    88  LEU88       0.0022
     66  CD1       17.1700    5.6610   13.9440 C.3    88  LEU88       0.0001
     67  CD2       16.8920    4.7150   16.2480 C.3    88  LEU88       0.0001
     68  N         18.0120    9.2010   15.0280 N.am   89  THR89      -0.1937
     69  CA        17.1330   10.1700   15.6930 C.3    89  THR89       0.2028
     70  C         16.0640    9.3250   16.3480 C.2    89  THR89       0.2642
     71  O         15.0590    8.9910   15.7270 O.2    89  THR89      -0.2714
     72  CB        16.5140   11.1550   14.7150 C.3    89  THR89       0.1808
     73  OG1       17.5740   11.8640   14.0620 O.3    89  THR89      -0.2208
     74  CG2       15.6420   12.1550   15.4530 C.3    89  THR89       0.0379
     75  N         16.3460    8.8860   17.5810 N.am   90  SER90      -0.1949
     76  CA        15.5720    7.7900   18.1740 C.3    90  SER90       0.1924
     77  C         14.1990    8.2950   18.5970 C.2    90  SER90       0.2314
     78  O         14.0840    9.3390   19.2210 O.2    90  SER90      -0.2863
     79  CB        16.3510    7.1360   19.3380 C.3    90  SER90       0.2116
     80  OG        16.5340    8.0480   20.4030 O.3    90  SER90      -0.2180
@<TRIPOS>BOND
     1    55    54    2
     2    66    65    1
     3    52    53    1
     4    73    72    1
     5    54    53    1
     6    54    60   am
     7    72    74    1
     8    72    69    1
     9    68    69    1
    10    68    62   am
    11    61    60    1
    12    61    64    1
    13    61    62    1
    14    53    56    1
    15    65    64    1
    16    65    67    1
    17    56    57    1
    18    56    58    1
    19    69    70    1
    20    71    70    2
    21    62    63    2
    22    57    59    1
    23    70    75   am
    24    75    76    1
    25    48    47    2
    26    76    77    1
    27    76    79    1
    28    77    78    2
    29    47    46    1
    30    50    49    1
    31    79    80    1
    32    49    46    1
    33    49    51    1
    34    46    45    1
    35    45    37   am
    36    41    43   ar
    37    41    40   ar
    38    43    44   ar
    39    39    40    1
    40    39    36    1
    41    40    42   ar
    42    44    42   ar
    43    30    28    1
    44    37    36    1
    45    37    38    2
    46    36    35    1
    47    29    27    1
    48    28    27    1
    49    12    13    1
    50    34    33    2
    51    35    33   am
    52    27    24    1
    53    13    14    1
    54    13    16    1
    55    23    14   am
    56    23    24    1
    57    14    15    2
    58    33    32    1
    59    24    25    1
    60    20    22   ar
    61    20    18   ar
    62    22    21   ar
    63    18    17   ar
    64    21    19   ar
    65    17    19   ar
    66    17    16    1
    67    32    31    1
    68    25    26    2
    69     1     2    1
    70     5     2    1
    71     5     6    1
    72     7     6    1
    73     7     8    1
    74     2     3    1
    75     8     9    2
    76     3     4    2
    77     9    11    1
    78     9    10    1
