@<TRIPOS>MOLECULE
tmp/4pz5A00.pdb
 99 95 0 0 0
SMALL
GASTEIGER

@<TRIPOS>ATOM
      1  N        -30.7220   11.7120   59.3480 N.3    21  ARG21      -0.1245
      2  CA       -31.1640   12.8860   58.6100 C.3    21  ARG21       0.1563
      3  C        -31.8580   13.8830   59.5210 C.2    21  ARG21       0.2260
      4  O        -32.8030   13.5310   60.2090 O.2    21  ARG21      -0.2867
      5  CB       -32.1190   12.4810   57.4900 C.3    21  ARG21       0.0307
      6  CG       -33.0240   13.6090   57.0270 C.3    21  ARG21       0.0489
      7  CD       -34.2210   13.0480   56.2890 C.3    21  ARG21       0.2205
      8  NE       -33.8630   12.6670   54.9260 N.pl3  21  ARG21      -0.0865
      9  CZ       -34.7600   12.4530   53.9730 C.cat  21  ARG21       0.5346
     10  NH1      -34.3740   12.1270   52.7440 N.pl3  21  ARG21       0.1354
     11  NH2      -36.0550   12.5780   54.2620 N.pl3  21  ARG21       0.1354
     12  N        -34.4980   16.5780   59.9570 N.3    23  LYS23      -0.1245
     13  CA       -35.6560   17.0870   59.2400 C.3    23  LYS23       0.1561
     14  C        -36.8320   17.3260   60.1730 C.2    23  LYS23       0.2260
     15  O        -37.1100   16.5030   61.0330 O.2    23  LYS23      -0.2867
     16  CB       -36.0480   16.1220   58.1240 C.3    23  LYS23       0.0271
     17  CG       -37.3570   16.4540   57.4230 C.3    23  LYS23       0.0035
     18  CD       -37.6070   15.4140   56.3300 C.3    23  LYS23       0.0206
     19  CE       -38.7330   15.8040   55.3900 C.3    23  LYS23       0.1093
     20  NZ       -40.0600   15.4620   55.9410 N.3    23  LYS23      -0.1314
     21  N        -36.4350   16.9830   63.9730 N.3    26  MET26      -0.1245
     22  CA       -36.2100   15.6390   64.4760 C.3    26  MET26       0.1570
     23  C        -34.9930   15.0480   63.7990 C.2    26  MET26       0.2261
     24  O        -34.4960   15.5960   62.8240 O.2    26  MET26      -0.2867
     25  CB       -37.4430   14.7560   64.2320 C.3    26  MET26       0.0387
     26  CG       -38.6540   15.2130   65.0250 C.3    26  MET26       0.0595
     27  SD       -40.0980   14.1790   64.7990 S.3    26  MET26      -0.1393
     28  CE       -40.4930   14.5610   63.1070 C.3    26  MET26       0.0692
     29  N        -34.0030   11.6010   61.8890 N.3    28  TRP28      -0.1241
     30  CA       -34.5530   10.4000   61.2880 C.3    28  TRP28       0.1605
     31  C        -33.4440    9.3800   61.0730 C.2    28  TRP28       0.2264
     32  O        -32.3260    9.7510   60.7250 O.2    28  TRP28      -0.2867
     33  CB       -35.2190   10.7280   59.9430 C.3    28  TRP28       0.0550
     34  CG       -36.3080   11.7450   60.0490 C.ar   28  TRP28       0.0003
     35  CD1      -36.1790   13.0710   60.3900 C.ar   28  TRP28       0.0946
     36  CD2      -37.6950   11.5240   59.8020 C.ar   28  TRP28       0.0152
     37  NE1      -37.4110   13.6820   60.3680 N.ar   28  TRP28      -0.2442
     38  CE2      -38.3580   12.7530   60.0100 C.ar   28  TRP28       0.0810
     39  CE3      -38.4460   10.4010   59.4260 C.ar   28  TRP28       0.0012
     40  CZ2      -39.7370   12.8890   59.8590 C.ar   28  TRP28       0.0191
     41  CZ3      -39.8130   10.5350   59.2870 C.ar   28  TRP28       0.0001
     42  CH2      -40.4450   11.7760   59.4930 C.ar   28  TRP28       0.0015
     43  N        -35.0340    6.1400   49.2790 N.3    40  ILE40      -0.1231
     44  CA       -34.5640    6.2420   50.6540 C.3    40  ILE40       0.1692
     45  C        -35.7460    5.9880   51.5780 C.2    40  ILE40       0.2593
     46  O        -36.8580    6.4670   51.3120 O.2    40  ILE40      -0.2718
     47  CB       -33.9670    7.6340   50.9340 C.3    40  ILE40       0.0266
     48  CG1      -32.7410    7.8790   50.0620 C.3    40  ILE40       0.0019
     49  CG2      -33.6370    7.8020   52.4210 C.3    40  ILE40       0.0020
     50  CD1      -32.3300    9.3490   49.9970 C.3    40  ILE40       0.0001
     51  N        -35.5150    5.2310   52.6450 N.am   41  SER41      -0.1938
     52  CA       -36.5160    5.0260   53.6850 C.3    41  SER41       0.2055
     53  C        -36.0450    5.6390   55.0020 C.2    41  SER41       0.2643
     54  O        -34.9230    5.3860   55.4500 O.2    41  SER41      -0.2714
     55  CB       -36.8060    3.5390   53.8730 C.3    41  SER41       0.2130
     56  OG       -37.6320    3.3540   55.0110 O.3    41  SER41      -0.2179
     57  N        -36.9000    6.4540   55.6140 N.am   42  CYS42      -0.1953
     58  CA       -36.5390    7.1760   56.8350 C.3    42  CYS42       0.1843
     59  C        -37.5600    6.9400   57.9240 C.2    42  CYS42       0.2626
     60  O        -38.7540    6.9460   57.6490 O.2    42  CYS42      -0.2714
     61  CB       -36.4270    8.6770   56.5540 C.3    42  CYS42       0.0997
     62  SG       -35.0100    9.1520   55.5100 S.3    42  CYS42      -0.0797
     63  N        -37.1110    6.7510   59.1640 N.am   43  THR43      -0.1936
     64  CA       -38.0690    6.5190   60.2400 C.3    43  THR43       0.2028
     65  C        -37.7120    7.2210   61.5510 C.2    43  THR43       0.2642
     66  O        -36.5340    7.4010   61.8840 O.2    43  THR43      -0.2714
     67  CB       -38.2450    5.0120   60.5120 C.3    43  THR43       0.1808
     68  OG1      -39.1970    4.8320   61.5670 O.3    43  THR43      -0.2208
     69  CG2      -36.9200    4.3500   60.8960 C.3    43  THR43       0.0379
     70  N        -38.7440    7.6510   62.2720 N.am   44  ILE44      -0.1963
     71  CA       -38.5740    8.1320   63.6400 C.3    44  ILE44       0.1727
     72  C        -39.2120    7.1650   64.6440 C.2    44  ILE44       0.2616
     73  O        -39.3890    7.5110   65.8140 O.2    44  ILE44      -0.2715
     74  CB       -39.1920    9.5300   63.8540 C.3    44  ILE44       0.0290
     75  CG1      -40.6710    9.5370   63.4420 C.3    44  ILE44       0.0022
     76  CG2      -38.3980   10.6060   63.1030 C.3    44  ILE44       0.0023
     77  CD1      -41.3970   10.8640   63.7480 C.3    44  ILE44       0.0001
     78  N        -39.5560    5.9570   64.1990 N.am   45  ALA45      -0.1977
     79  CA       -40.2350    5.0030   65.0830 C.3    45  ALA45       0.1597
     80  C        -39.3420    4.5240   66.2260 C.2    45  ALA45       0.2287
     81  O        -39.8310    4.1070   67.2870 O.2    45  ALA45      -0.2864
     82  CB       -40.7320    3.8060   64.2850 C.3    45  ALA45       0.0319
     83  N        -41.4950    0.7040   68.2810 N.3    80  GLY80      -0.1210
     84  CA       -42.0560    1.0360   66.9820 C.3    80  GLY80       0.1956
     85  C        -42.9650    2.2520   66.9630 C.2    80  GLY80       0.2612
     86  O        -43.6400    2.4980   65.9680 O.2    80  GLY80      -0.2717
     87  N        -42.9650    3.0360   68.0400 N.am   81  LYS81      -0.1965
     88  CA       -43.9270    4.1320   68.1850 C.3    81  LYS81       0.1728
     89  C        -43.2950    5.4330   68.6670 C.2    81  LYS81       0.2616
     90  O        -44.0110    6.3830   68.9670 O.2    81  LYS81      -0.2715
     91  CB       -45.0420    3.7720   69.1790 C.3    81  LYS81       0.0311
     92  CG       -45.7960    2.4800   68.9360 C.3    81  LYS81       0.0038
     93  CD       -46.5170    2.0770   70.2270 C.3    81  LYS81       0.0206
     94  CE       -47.2110    0.7270   70.1050 C.3    81  LYS81       0.1093
     95  NZ       -47.8670    0.3450   71.3960 N.3    81  LYS81      -0.1314
     96  N        -41.9690    5.4770   68.7720 N.am   82  GLY82      -0.1955
     97  CA       -41.3050    6.6810   69.2410 C.3    82  GLY82       0.1869
     98  C        -41.5790    6.9240   70.7180 C.2    82  GLY82       0.2309
     99  O        -41.5860    8.0620   71.1780 O.2    82  GLY82      -0.2863
@<TRIPOS>BOND
     1    43    44    1
     2    50    48    1
     3    48    47    1
     4    44    47    1
     5    44    45    1
     6    47    49    1
     7    46    45    2
     8    45    51   am
     9    51    52    1
    10    10     9    1
    11    52    55    1
    12    52    53    1
    13    55    56    1
    14     9    11    1
    15     9     8    2
    16     8     7    1
    17    53    54    2
    18    53    57   am
    19    19    20    1
    20    19    18    1
    21    62    61    1
    22    57    58    1
    23     7     6    1
    24    18    17    1
    25    61    58    1
    26    58    59    1
    27     6     5    1
    28    17    16    1
    29     5     2    1
    30    60    59    2
    31    59    63   am
    32    16    13    1
    33     2     1    1
    34     2     3    1
    35    63    64    1
    36    13    12    1
    37    13    14    1
    38    41    39   ar
    39    41    42   ar
    40    39    36   ar
    41    42    40   ar
    42     3     4    2
    43    36    38   ar
    44    36    34   ar
    45    40    38   ar
    46    33    34    1
    47    33    30    1
    48    38    37   ar
    49    34    35   ar
    50    14    15    2
    51    64    67    1
    52    64    65    1
    53    37    35   ar
    54    67    69    1
    55    67    68    1
    56    32    31    2
    57    31    30    1
    58    30    29    1
    59    65    66    2
    60    65    70   am
    61    70    71    1
    62    24    23    2
    63    76    74    1
    64    28    27    1
    65    75    77    1
    66    75    74    1
    67    71    74    1
    68    71    72    1
    69    23    22    1
    70    21    22    1
    71    78    72   am
    72    78    79    1
    73    25    22    1
    74    25    26    1
    75    82    79    1
    76    72    73    2
    77    27    26    1
    78    79    80    1
    79    86    85    2
    80    80    81    2
    81    85    84    1
    82    85    87   am
    83    84    83    1
    84    87    88    1
    85    88    89    1
    86    88    91    1
    87    89    96   am
    88    89    90    2
    89    96    97    1
    90    92    91    1
    91    92    93    1
    92    97    98    1
    93    94    93    1
    94    94    95    1
    95    98    99    2
