@<TRIPOS>MOLECULE
tmp/4pz6A00.pdb
 203 196 0 0 0
SMALL
GASTEIGER

@<TRIPOS>ATOM
      1  N          9.2310  -11.3920  -62.5270 N.3    64  PHE64      -0.1241
      2  CA        10.5930  -11.6830  -62.9330 C.3    64  PHE64       0.1605
      3  C         11.4310  -11.6950  -61.6720 C.2    64  PHE64       0.2264
      4  O         11.0330  -11.1370  -60.6480 O.2    64  PHE64      -0.2867
      5  CB        11.1260  -10.6200  -63.8960 C.3    64  PHE64       0.0534
      6  CG        10.6190  -10.7640  -65.2980 C.ar   64  PHE64      -0.0203
      7  CD1        9.9670  -11.9200  -65.6980 C.ar   64  PHE64      -0.0042
      8  CD2       10.7980   -9.7470  -66.2210 C.ar   64  PHE64      -0.0042
      9  CE1        9.5000  -12.0550  -66.9920 C.ar   64  PHE64      -0.0003
     10  CE2       10.3320   -9.8770  -67.5170 C.ar   64  PHE64      -0.0003
     11  CZ         9.6820  -11.0330  -67.9020 C.ar   64  PHE64      -0.0000
     12  N          7.8160    5.7550  -70.4720 N.3   155  TYR155     -0.1241
     13  CA         7.3760    4.3630  -70.4800 C.3   155  TYR155      0.1605
     14  C          6.9520    3.8600  -69.1040 C.2   155  TYR155      0.2264
     15  O          6.6340    2.6830  -68.9390 O.2   155  TYR155     -0.2867
     16  CB         8.4660    3.4610  -71.0650 C.3   155  TYR155      0.0534
     17  CG         8.4120    3.3460  -72.5670 C.ar  155  TYR155     -0.0201
     18  CD1        8.8700    4.3720  -73.3760 C.ar  155  TYR155     -0.0009
     19  CD2        7.8970    2.2120  -73.1750 C.ar  155  TYR155     -0.0009
     20  CE1        8.8190    4.2720  -74.7520 C.ar  155  TYR155      0.0417
     21  CE2        7.8410    2.1010  -74.5490 C.ar  155  TYR155      0.0417
     22  CZ         8.3030    3.1340  -75.3320 C.ar  155  TYR155      0.1957
     23  OH         8.2510    3.0300  -76.7010 O.3   155  TYR155     -0.2866
     24  N          3.7380    1.9120  -68.8540 N.3   158  ARG158     -0.1245
     25  CA         3.7040    0.6330  -69.5560 C.3   158  ARG158      0.1563
     26  C          4.1650   -0.4930  -68.6380 C.2   158  ARG158      0.2260
     27  O          4.6810   -0.2380  -67.5510 O.2   158  ARG158     -0.2867
     28  CB         4.5950    0.6870  -70.7980 C.3   158  ARG158      0.0307
     29  CG         4.3060    1.8620  -71.7140 C.3   158  ARG158      0.0489
     30  CD         2.9290    1.7510  -72.3490 C.3   158  ARG158      0.2205
     31  NE         2.7900    0.5350  -73.1490 N.pl3 158  ARG158     -0.0865
     32  CZ         3.2630    0.3940  -74.3830 C.cat 158  ARG158      0.5346
     33  NH1        3.9140    1.3920  -74.9620 N.pl3 158  ARG158      0.1354
     34  NH2        3.0880   -0.7460  -75.0380 N.pl3 158  ARG158      0.1354
     35  N          7.7640   -5.6240  -69.6220 N.3   161  ASP161     -0.1225
     36  CA         8.2620   -6.1780  -70.8770 C.3   161  ASP161      0.1805
     37  C          8.4280   -5.0950  -71.9400 C.2   161  ASP161      0.2597
     38  O          9.3600   -5.1440  -72.7430 O.2   161  ASP161     -0.2718
     39  CB         7.3460   -7.2960  -71.3830 C.3   161  ASP161      0.1424
     40  CG         6.0070   -6.7800  -71.8830 C.2   161  ASP161      0.3668
     41  OD1        5.4460   -5.8560  -71.2570 O.co2 161  ASP161     -0.2456
     42  OD2        5.5150   -7.3000  -72.9070 O.co2 161  ASP161     -0.2456
     43  N          7.5340   -4.1090  -71.9280 N.am  162  LYS162     -0.1979
     44  CA         7.5900   -3.0040  -72.8830 C.3   162  LYS162      0.1596
     45  C          8.6800   -2.0020  -72.5150 C.2   162  LYS162      0.2287
     46  O          9.3560   -1.4570  -73.3880 O.2   162  LYS162     -0.2864
     47  CB         6.2350   -2.2950  -72.9670 C.3   162  LYS162      0.0298
     48  CG         5.1080   -3.1560  -73.5110 C.3   162  LYS162      0.0038
     49  CD         5.4600   -3.7210  -74.8770 C.3   162  LYS162      0.0206
     50  CE         4.4050   -4.7040  -75.3610 C.3   162  LYS162      0.1093
     51  NZ         4.1860   -5.8150  -74.3940 N.3   162  LYS162     -0.1314
     52  N         11.4910   -2.6720  -70.7760 N.3   164  LEU164     -0.1231
     53  CA        12.7690   -3.2970  -71.0810 C.3   164  LEU164      0.1693
     54  C         12.9000   -3.5580  -72.5800 C.2   164  LEU164      0.2593
     55  O         14.0090   -3.6280  -73.1090 O.2   164  LEU164     -0.2718
     56  CB        12.9360   -4.5930  -70.2850 C.3   164  LEU164      0.0284
     57  CG        13.1550   -4.4040  -68.7820 C.3   164  LEU164      0.0019
     58  CD1       13.2150   -5.7390  -68.0600 C.3   164  LEU164      0.0001
     59  CD2       14.4280   -3.6200  -68.5350 C.3   164  LEU164      0.0001
     60  N         11.7660   -3.6870  -73.2640 N.am  165  GLY165     -0.1942
     61  CA        11.7620   -3.9140  -74.6980 C.3   165  GLY165      0.2014
     62  C         12.3140   -2.7370  -75.4800 C.2   165  GLY165      0.2638
     63  O         13.1530   -2.9090  -76.3670 O.2   165  GLY165     -0.2714
     64  N         11.8480   -1.5370  -75.1460 N.am  166  ILE166     -0.1977
     65  CA        12.2890   -0.3280  -75.8330 C.3   166  ILE166      0.1596
     66  C         13.7730   -0.0290  -75.5800 C.2   166  ILE166      0.2287
     67  O         14.4610    0.4830  -76.4590 O.2   166  ILE166     -0.2864
     68  CB        11.3910    0.8920  -75.4820 C.3   166  ILE166      0.0276
     69  CG1       11.5930    2.0290  -76.4840 C.3   166  ILE166      0.0022
     70  CG2       11.6480    1.3780  -74.0650 C.3   166  ILE166      0.0022
     71  CD1       11.0690    1.7230  -77.8630 C.3   166  ILE166      0.0001
     72  N         16.1480   -2.3370  -75.0170 N.3   168  ALA168     -0.1231
     73  CA        16.9140   -3.3500  -75.7270 C.3   168  ALA168      0.1694
     74  C         17.0800   -3.0150  -77.2080 C.2   168  ALA168      0.2591
     75  O         18.1640   -3.1760  -77.7680 O.2   168  ALA168     -0.2718
     76  CB        16.2670   -4.7140  -75.5550 C.3   168  ALA168      0.0304
     77  N         16.0060   -2.5450  -77.8350 N.am  169  LYS169     -0.1980
     78  CA        16.0260   -2.2230  -79.2600 C.3   169  LYS169      0.1596
     79  C         16.6760   -0.8710  -79.5510 C.2   169  LYS169      0.2287
     80  O         17.5150   -0.7560  -80.4430 O.2   169  LYS169     -0.2864
     81  CB        14.6070   -2.2480  -79.8380 C.3   169  LYS169      0.0298
     82  CG        14.5600   -2.1410  -81.3580 C.3   169  LYS169      0.0038
     83  CD        13.1540   -1.8500  -81.8710 C.3   169  LYS169      0.0206
     84  CE        12.7520   -0.4090  -81.6000 C.3   169  LYS169      0.1093
     85  NZ        11.4180   -0.0850  -82.1800 N.3   169  LYS169     -0.1314
     86  N         21.9540   -5.1890  -70.3740 N.3   195  LEU195     -0.1231
     87  CA        20.6890   -5.5650  -69.7580 C.3   195  LEU195      0.1693
     88  C         20.9540   -6.6360  -68.7090 C.2   195  LEU195      0.2592
     89  O         21.7520   -7.5470  -68.9320 O.2   195  LEU195     -0.2718
     90  CB        19.7270   -6.1000  -70.8160 C.3   195  LEU195      0.0284
     91  CG        18.2910   -6.3570  -70.3640 C.3   195  LEU195      0.0019
     92  CD1       17.6310   -5.0600  -69.9470 C.3   195  LEU195      0.0001
     93  CD2       17.4940   -7.0190  -71.4700 C.3   195  LEU195      0.0001
     94  N         20.2920   -6.5330  -67.5630 N.am  196  LYS196     -0.1966
     95  CA        20.5450   -7.4690  -66.4740 C.3   196  LYS196      0.1728
     96  C         19.9910   -8.8590  -66.7780 C.2   196  LYS196      0.2616
     97  O         18.9450   -8.9990  -67.4130 O.2   196  LYS196     -0.2715
     98  CB        19.9690   -6.9440  -65.1570 C.3   196  LYS196      0.0311
     99  CG        20.5590   -7.6140  -63.9260 C.3   196  LYS196      0.0038
    100  CD        20.5690   -6.6700  -62.7330 C.3   196  LYS196      0.0206
    101  CE        21.5520   -7.1430  -61.6730 C.3   196  LYS196      0.1093
    102  NZ        21.6890   -6.1720  -60.5500 N.3   196  LYS196     -0.1314
    103  N         20.7120   -9.8830  -66.3320 N.am  197  LYS197     -0.1963
    104  CA        20.2730  -11.2640  -66.4880 C.3   197  LYS197      0.1728
    105  C         19.0170  -11.5060  -65.6530 C.2   197  LYS197      0.2616
    106  O         19.0610  -11.4480  -64.4220 O.2   197  LYS197     -0.2715
    107  CB        21.3870  -12.2220  -66.0540 C.3   197  LYS197      0.0311
    108  CG        21.0820  -13.6960  -66.2830 C.3   197  LYS197      0.0038
    109  CD        20.9560  -14.0110  -67.7670 C.3   197  LYS197      0.0206
    110  CE        20.7660  -15.5020  -68.0100 C.3   197  LYS197      0.1093
    111  NZ        20.6910  -15.8210  -69.4650 N.3   197  LYS197     -0.1314
    112  N         17.8970  -11.7670  -66.3210 N.am  198  MET198     -0.1963
    113  CA        16.6390  -12.0170  -65.6210 C.3   198  MET198      0.1736
    114  C         16.0700  -13.4130  -65.8540 C.2   198  MET198      0.2616
    115  O         16.3750  -14.0680  -66.8540 O.2   198  MET198     -0.2715
    116  CB        15.5980  -10.9530  -65.9760 C.3   198  MET198      0.0427
    117  CG        15.4880   -9.8580  -64.9340 C.3   198  MET198      0.0599
    118  SD        14.6620   -8.3860  -65.5460 S.3   198  MET198     -0.1393
    119  CE        15.9150   -7.7880  -66.6800 C.3   198  MET198      0.0692
    120  N         15.2480  -13.8600  -64.9100 N.am  199  GLU199     -0.1963
    121  CA        14.5920  -15.1580  -64.9960 C.3   199  GLU199      0.1733
    122  C         13.1190  -15.0210  -64.6460 C.2   199  GLU199      0.2616
    123  O         12.7000  -14.0120  -64.0780 O.2   199  GLU199     -0.2715
    124  CB        15.2550  -16.1610  -64.0440 C.3   199  GLU199      0.0429
    125  CG        16.7150  -16.4630  -64.3490 C.3   199  GLU199      0.1163
    126  CD        16.8940  -17.3190  -65.5890 C.2   199  GLU199      0.3649
    127  OE1       18.0410  -17.4390  -66.0710 O.co2 199  GLU199     -0.2457
    128  OE2       15.8900  -17.8790  -66.0800 O.co2 199  GLU199     -0.2457
    129  N         12.3330  -16.0370  -64.9900 N.am  200  LEU200     -0.1977
    130  CA        10.9390  -16.0840  -64.5770 C.3   200  LEU200      0.1596
    131  C         10.8990  -16.2680  -63.0640 C.2   200  LEU200      0.2287
    132  O         11.8230  -16.8430  -62.4860 O.2   200  LEU200     -0.2864
    133  CB        10.2100  -17.2290  -65.2810 C.3   200  LEU200      0.0297
    134  CG        10.0770  -17.0720  -66.7980 C.3   200  LEU200      0.0022
    135  CD1        9.6120  -18.3630  -67.4570 C.3   200  LEU200      0.0001
    136  CD2        9.1190  -15.9390  -67.1260 C.3   200  LEU200      0.0001
    137  N          9.8120  -18.1980  -61.0010 N.3   202  HIS202     -0.1226
    138  CA        10.0140  -19.5290  -60.4380 C.3   202  HIS202      0.1752
    139  C         11.3710  -20.1290  -60.8050 C.2   202  HIS202      0.2596
    140  O         11.6260  -21.3020  -60.5390 O.2   202  HIS202     -0.2718
    141  CB         8.8820  -20.4690  -60.8620 C.3   202  HIS202      0.0759
    142  CG         8.5270  -20.3720  -62.3140 C.ar  202  HIS202      0.0818
    143  ND1        9.1680  -21.1050  -63.2890 N.ar  202  HIS202     -0.2268
    144  CD2        7.6000  -19.6230  -62.9550 C.ar  202  HIS202      0.1154
    145  CE1        8.6500  -20.8140  -64.4690 C.ar  202  HIS202      0.1986
    146  NE2        7.6960  -19.9170  -64.2940 N.ar  202  HIS202     -0.2212
    147  N         12.2390  -19.3240  -61.4100 N.am  203  GLY203     -0.1957
    148  CA        13.5630  -19.7880  -61.7880 C.3   203  GLY203      0.1869
    149  C         14.6290  -19.4620  -60.7570 C.2   203  GLY203      0.2309
    150  O         15.8080  -19.3410  -61.0900 O.2   203  GLY203     -0.2863
    151  N         17.8060  -21.6880  -60.4110 N.3   206  LYS206     -0.1245
    152  CA        18.7910  -21.4610  -61.4620 C.3   206  LYS206      0.1561
    153  C         19.7220  -20.3070  -61.1040 C.2   206  LYS206      0.2260
    154  O         20.9180  -20.3520  -61.3900 O.2   206  LYS206     -0.2867
    155  CB        18.0850  -21.1900  -62.7950 C.3   206  LYS206      0.0271
    156  CG        19.0160  -21.0000  -63.9840 C.3   206  LYS206      0.0035
    157  CD        18.2330  -20.9650  -65.2920 C.3   206  LYS206      0.0206
    158  CE        19.1280  -20.6350  -66.4770 C.3   206  LYS206      0.1093
    159  NZ        19.5660  -19.2130  -66.4750 N.3   206  LYS206     -0.1314
    160  N          5.0860  -21.9200  -59.8920 N.3   365  ARG365     -0.1245
    161  CA         5.2340  -22.2870  -61.2950 C.3   365  ARG365      0.1563
    162  C          3.9100  -22.7260  -61.9230 C.2   365  ARG365      0.2260
    163  O          3.5560  -22.2740  -63.0130 O.2   365  ARG365     -0.2867
    164  CB         6.2830  -23.3930  -61.4470 C.3   365  ARG365      0.0307
    165  CG         6.4510  -23.8910  -62.8690 C.3   365  ARG365      0.0489
    166  CD         7.6590  -24.8040  -63.0170 C.3   365  ARG365      0.2205
    167  NE         7.9170  -25.1190  -64.4200 N.pl3 365  ARG365     -0.0865
    168  CZ         7.3000  -26.0840  -65.0930 C.cat 365  ARG365      0.5346
    169  NH1        7.5940  -26.2970  -66.3680 N.pl3 365  ARG365      0.1354
    170  NH2        6.3910  -26.8380  -64.4900 N.pl3 365  ARG365      0.1354
    171  N          1.4680  -19.9160  -62.4890 N.3   368  TYR368     -0.1227
    172  CA         1.9040  -19.1010  -63.6190 C.3   368  TYR368      0.1736
    173  C          1.3570  -19.6530  -64.9280 C.2   368  TYR368      0.2595
    174  O          0.9930  -18.8950  -65.8270 O.2   368  TYR368     -0.2718
    175  CB         3.4350  -19.0290  -63.6740 C.3   368  TYR368      0.0548
    176  CG         3.9880  -18.4490  -64.9600 C.ar  368  TYR368     -0.0200
    177  CD1        3.8100  -17.1090  -65.2740 C.ar  368  TYR368     -0.0009
    178  CD2        4.7030  -19.2390  -65.8500 C.ar  368  TYR368     -0.0009
    179  CE1        4.3180  -16.5730  -66.4450 C.ar  368  TYR368      0.0417
    180  CE2        5.2150  -18.7110  -67.0240 C.ar  368  TYR368      0.0417
    181  CZ         5.0190  -17.3780  -67.3140 C.ar  368  TYR368      0.1957
    182  OH         5.5240  -16.8460  -68.4770 O.3   368  TYR368     -0.2866
    183  N          1.2970  -20.9760  -65.0280 N.am  369  TYR369     -0.1976
    184  CA         0.8080  -21.6220  -66.2400 C.3   369  TYR369      0.1639
    185  C         -0.7160  -21.7250  -66.2770 C.2   369  TYR369      0.2290
    186  O         -1.3190  -21.7230  -67.3500 O.2   369  TYR369     -0.2864
    187  CB         1.4820  -22.9830  -66.4320 C.3   369  TYR369      0.0560
    188  CG         2.9200  -22.8480  -66.8690 C.ar  369  TYR369     -0.0198
    189  CD1        3.2320  -22.3780  -68.1350 C.ar  369  TYR369     -0.0009
    190  CD2        3.9640  -23.1680  -66.0150 C.ar  369  TYR369     -0.0009
    191  CE1        4.5410  -22.2390  -68.5450 C.ar  369  TYR369      0.0417
    192  CE2        5.2820  -23.0330  -66.4170 C.ar  369  TYR369      0.0417
    193  CZ         5.5620  -22.5670  -67.6840 C.ar  369  TYR369      0.1957
    194  OH         6.8670  -22.4270  -68.0960 O.3   369  TYR369     -0.2866
    195  N         -1.6290  -18.7230  -67.8250 N.3   372  LYS372     -0.1245
    196  CA        -1.3990  -18.8040  -69.2640 C.3   372  LYS372      0.1561
    197  C         -2.2860  -19.8900  -69.8600 C.2   372  LYS372      0.2260
    198  O         -1.8010  -20.9430  -70.2780 O.2   372  LYS372     -0.2867
    199  CB         0.0750  -19.0900  -69.5700 C.3   372  LYS372      0.0271
    200  CG         1.0260  -17.9740  -69.1620 C.3   372  LYS372      0.0035
    201  CD         2.4540  -18.2500  -69.6170 C.3   372  LYS372      0.0206
    202  CE         2.5440  -18.3830  -71.1300 C.3   372  LYS372      0.1093
    203  NZ         3.9540  -18.5110  -71.6010 N.3   372  LYS372     -0.1314
@<TRIPOS>BOND
     1    85    84    1
     2    83    84    1
     3    83    82    1
     4    82    81    1
     5    80    79    2
     6    81    78    1
     7    79    78    1
     8    78    77    1
     9    71    69    1
    10    77    74   am
    11    75    74    2
    12    74    73    1
    13    23    22    1
    14    69    68    1
    15    67    66    2
    16    63    62    2
    17    65    66    1
    18    65    68    1
    19    65    64    1
    20    73    76    1
    21    73    72    1
    22    68    70    1
    23    62    64   am
    24    62    61    1
    25    50    49    1
    26    50    51    1
    27    22    20   ar
    28    22    21   ar
    29    34    32    1
    30    33    32    1
    31    49    48    1
    32    20    18   ar
    33    61    60    1
    34    21    19   ar
    35    32    31    2
    36    48    47    1
    37    46    45    2
    38    18    17   ar
    39    60    54   am
    40    19    17   ar
    41    31    30    1
    42    55    54    2
    43    47    44    1
    44    42    40   ar
    45    44    45    1
    46    44    43    1
    47    38    37    2
    48    54    53    1
    49    17    16    1
    50    30    29    1
    51    37    43   am
    52    37    36    1
    53    40    39    1
    54    40    41   ar
    55    29    28    1
    56   203   202    1
    57    93    91    1
    58    39    36    1
    59   202   201    1
    60    53    52    1
    61    53    56    1
    62    16    13    1
    63    36    35    1
    64    90    91    1
    65    90    87    1
    66    28    25    1
    67    13    12    1
    68    13    14    1
    69    86    87    1
    70    91    92    1
    71    56    57    1
    72   198   197    2
    73   197   196    1
    74    87    88    1
    75   201   200    1
    76   199   196    1
    77   199   200    1
    78    25    24    1
    79    25    26    1
    80   111   110    1
    81   196   195    1
    82    14    15    2
    83    89    88    2
    84    57    59    1
    85    57    58    1
    86    88    94   am
    87    26    27    2
    88   191   189   ar
    89   191   193   ar
    90   182   181    1
    91   189   188   ar
    92   194   193    1
    93   110   109    1
    94    11    10   ar
    95    11     9   ar
    96   109   108    1
    97   193   192   ar
    98    94    95    1
    99    10     8   ar
   100   135   134    1
   101    97    96    2
   102   186   185    2
   103   181   180   ar
   104   181   179   ar
   105   136   134    1
   106   180   178   ar
   107     9     7   ar
   108   188   187    1
   109   188   190   ar
   110   115   114    2
   111   134   133    1
   112    96    95    1
   113    96   103   am
   114   119   118    1
   115   104   103    1
   116   104   107    1
   117   104   105    1
   118   158   159    1
   119   158   157    1
   120    95    98    1
   121   179   177   ar
   122   187   184    1
   123   192   190   ar
   124   169   168    1
   125   112   105   am
   126   112   113    1
   127   108   107    1
   128   185   184    1
   129   184   183    1
   130     8     6   ar
   131   128   126   ar
   132   127   126   ar
   133   116   113    1
   134   116   117    1
   135   114   113    1
   136   114   120   am
   137   178   176   ar
   138   174   173    2
   139     7     6   ar
   140   105   106    2
   141   126   125    1
   142   118   117    1
   143     6     5    1
   144   157   156    1
   145   133   130    1
   146   177   176   ar
   147    98    99    1
   148   168   170    1
   149   168   167    2
   150   183   173   am
   151   121   120    1
   152   121   122    1
   153   121   124    1
   154   129   122   am
   155   129   130    1
   156   176   175    1
   157   173   172    1
   158   122   123    2
   159   130   131    1
   160   145   146   ar
   161   145   143   ar
   162   167   166    1
   163   125   124    1
   164   146   144   ar
   165   156   155    1
   166    99   100    1
   167     5     2    1
   168   175   172    1
   169   172   171    1
   170   143   142   ar
   171   131   132    2
   172   166   165    1
   173   163   162    2
   174   144   142   ar
   175     2     1    1
   176     2     3    1
   177   165   164    1
   178   155   152    1
   179   100   101    1
   180   142   141    1
   181   162   161    1
   182   148   147    1
   183   148   149    1
   184   101   102    1
   185     3     4    2
   186   152   153    1
   187   152   151    1
   188   164   161    1
   189   147   139   am
   190   154   153    2
   191   161   160    1
   192   150   149    2
   193   137   138    1
   194   141   138    1
   195   139   140    2
   196   139   138    1
