@<TRIPOS>MOLECULE
tmp/4pz6B01.pdb
 106 98 0 0 0
SMALL
GASTEIGER

@<TRIPOS>ATOM
      1  N         24.6760  -18.7600    3.8130 N.3    45  SER45      -0.1202
      2  CA        25.5060  -18.7690    2.6180 C.3    45  SER45       0.2020
      3  C         24.7030  -18.3060    1.4060 C.2    45  SER45       0.2619
      4  O         23.5290  -18.6480    1.2590 O.2    45  SER45      -0.2717
      5  CB        26.0650  -20.1710    2.3650 C.3    45  SER45       0.2103
      6  OG        25.0330  -21.0950    2.0730 O.3    45  SER45      -0.2182
      7  N         25.3350  -17.5200    0.5430 N.am   46  GLN46      -0.1965
      8  CA        24.7090  -17.1200   -0.7100 C.3    46  GLN46       0.1718
      9  C         25.5000  -17.6780   -1.8860 C.2    46  GLN46       0.2458
     10  O         26.7180  -17.5220   -1.9490 O.2    46  GLN46      -0.2730
     11  CB        24.5840  -15.5940   -0.8030 C.3    46  GLN46       0.0407
     12  CG        23.7000  -14.9630    0.2710 C.3    46  GLN46       0.0908
     13  CD        22.2280  -15.3320    0.1330 C.2    46  GLN46       0.2608
     14  OE1       21.8090  -15.9310   -0.8600 O.2    46  GLN46      -0.2717
     15  NE2       21.4340  -14.9670    1.1350 N.am   46  GLN46      -0.0878
     16  N         24.8050  -18.3430   -2.8190 N.am   47  PRO47      -0.2727
     17  CA        25.4620  -19.0060   -3.9510 C.3    47  PRO47       0.1402
     18  C         25.8940  -18.0330   -5.0450 C.2    47  PRO47       0.2269
     19  O         25.4990  -16.8660   -5.0240 O.2    47  PRO47      -0.2865
     20  CB        24.3670  -19.9330   -4.4890 C.3    47  PRO47       0.0296
     21  CG        23.0980  -19.2500   -4.1290 C.3    47  PRO47       0.0237
     22  CD        23.3490  -18.5730   -2.8090 C.3    47  PRO47       0.0939
     23  N         20.9590  -30.5740   -6.0440 N.3    66  CYS66      -0.1235
     24  CA        19.5410  -30.6670   -5.7320 C.3    66  CYS66       0.1677
     25  C         18.7470  -29.6780   -6.5700 C.2    66  CYS66       0.2270
     26  O         19.3020  -28.7300   -7.1220 O.2    66  CYS66      -0.2867
     27  CB        19.2950  -30.4240   -4.2380 C.3    66  CYS66       0.0956
     28  SG        19.8830  -28.8330   -3.6090 S.3    66  CYS66      -0.0801
     29  N         16.5730  -26.5510   -7.3210 N.3    68  LYS68      -0.1231
     30  CA        16.4570  -25.2240   -6.7300 C.3    68  LYS68       0.1693
     31  C         14.9800  -24.8500   -6.6640 C.2    68  LYS68       0.2592
     32  O         14.3600  -24.5500   -7.6860 O.2    68  LYS68      -0.2718
     33  CB        17.2300  -24.2020   -7.5700 C.3    68  LYS68       0.0285
     34  CG        17.2910  -22.7990   -6.9790 C.3    68  LYS68       0.0035
     35  CD        18.0900  -21.8630   -7.8820 C.3    68  LYS68       0.0206
     36  CE        18.2290  -20.4750   -7.2730 C.3    68  LYS68       0.1093
     37  NZ        16.9180  -19.8010   -7.0730 N.3    68  LYS68      -0.1314
     38  N         14.4170  -24.8710   -5.4600 N.am   69  SER69      -0.1952
     39  CA        12.9790  -24.6850   -5.2830 C.3    69  SER69       0.1924
     40  C         12.5550  -23.2190   -5.2890 C.2    69  SER69       0.2314
     41  O         13.2970  -22.3430   -4.8390 O.2    69  SER69      -0.2863
     42  CB        12.5160  -25.3290   -3.9740 C.3    69  SER69       0.2116
     43  OG        13.0480  -26.6320   -3.8240 O.3    69  SER69      -0.2180
     44  N         13.9820  -18.6660    1.2280 N.3    73  ARG73      -0.1245
     45  CA        15.1270  -19.1580    1.9810 C.3    73  ARG73       0.1563
     46  C         15.0780  -18.5370    3.3690 C.2    73  ARG73       0.2260
     47  O         14.9780  -17.3180    3.5110 O.2    73  ARG73      -0.2867
     48  CB        16.4370  -18.7810    1.2810 C.3    73  ARG73       0.0307
     49  CG        17.6660  -19.5590    1.7530 C.3    73  ARG73       0.0489
     50  CD        18.2910  -18.9380    2.9910 C.3    73  ARG73       0.2205
     51  NE        19.5160  -19.6190    3.3960 N.pl3  73  ARG73      -0.0865
     52  CZ        20.7240  -19.3210    2.9300 C.cat  73  ARG73       0.5346
     53  NH1       20.8680  -18.3510    2.0400 N.pl3  73  ARG73       0.1354
     54  NH2       21.7840  -19.9930    3.3560 N.pl3  73  ARG73       0.1354
     55  N         14.6810  -24.1320    2.8700 N.3   127  GLU127     -0.1245
     56  CA        13.7420  -23.2780    2.1600 C.3   127  GLU127      0.1567
     57  C         12.2910  -23.6320    2.4520 C.2   127  GLU127      0.2260
     58  O         11.9190  -24.8060    2.5510 O.2   127  GLU127     -0.2867
     59  CB        14.0000  -23.2900    0.6500 C.3   127  GLU127      0.0388
     60  CG        13.5030  -22.0270   -0.0410 C.3   127  GLU127      0.1160
     61  CD        13.7810  -22.0120   -1.5280 C.2   127  GLU127      0.3649
     62  OE1       13.8040  -23.1000   -2.1380 O.co2 127  GLU127     -0.2457
     63  OE2       13.9740  -20.9100   -2.0880 O.co2 127  GLU127     -0.2457
     64  N         18.3440  -28.0900    3.9270 N.3   145  PHE145     -0.1241
     65  CA        19.5140  -28.4640    3.1300 C.3   145  PHE145      0.1605
     66  C         20.8700  -28.2550    3.8170 C.2   145  PHE145      0.2264
     67  O         21.9060  -28.6220    3.2650 O.2   145  PHE145     -0.2867
     68  CB        19.4890  -27.8190    1.7320 C.3   145  PHE145      0.0534
     69  CG        19.2040  -26.3430    1.7340 C.ar  145  PHE145     -0.0203
     70  CD1       20.1340  -25.4390    2.2220 C.ar  145  PHE145     -0.0042
     71  CD2       18.0160  -25.8580    1.2120 C.ar  145  PHE145     -0.0042
     72  CE1       19.8730  -24.0800    2.2110 C.ar  145  PHE145     -0.0003
     73  CE2       17.7510  -24.5010    1.1950 C.ar  145  PHE145     -0.0003
     74  CZ        18.6820  -23.6110    1.6970 C.ar  145  PHE145     -0.0000
     75  N         15.9630  -32.1430    2.3370 N.3   196  LYS196     -0.1245
     76  CA        15.9890  -31.8800    0.9040 C.3   196  LYS196      0.1561
     77  C         16.6140  -33.0730    0.1830 C.2   196  LYS196      0.2260
     78  O         17.6380  -33.6030    0.6210 O.2   196  LYS196     -0.2867
     79  CB        16.8070  -30.6170    0.6240 C.3   196  LYS196      0.0271
     80  CG        16.7910  -30.1400   -0.8190 C.3   196  LYS196      0.0035
     81  CD        15.5500  -29.3170   -1.1120 C.3   196  LYS196      0.0206
     82  CE        15.7250  -28.4870   -2.3710 C.3   196  LYS196      0.1093
     83  NZ        16.9090  -27.5860   -2.2900 N.3   196  LYS196     -0.1314
     84  N         20.9830  -26.4630   -7.5880 N.3   223  ILE223     -0.1245
     85  CA        21.9930  -25.9410   -6.6780 C.3   223  ILE223      0.1561
     86  C         23.0730  -26.9960   -6.4670 C.2   223  ILE223      0.2260
     87  O         22.7740  -28.1380   -6.1190 O.2   223  ILE223     -0.2867
     88  CB        21.3880  -25.5220   -5.3220 C.3   223  ILE223      0.0252
     89  CG1       20.5350  -24.2590   -5.4840 C.3   223  ILE223      0.0019
     90  CG2       22.4850  -25.2800   -4.2950 C.3   223  ILE223      0.0019
     91  CD1       21.3370  -22.9970   -5.7460 C.3   223  ILE223      0.0001
     92  N         26.1580  -28.0350   -4.1850 N.3   225  THR225     -0.1218
     93  CA        26.7840  -27.7860   -2.8920 C.3   225  THR225      0.1862
     94  C         28.0470  -28.6300   -2.7660 C.2   225  THR225      0.2287
     95  O         28.0000  -29.8580   -2.8860 O.2   225  THR225     -0.2866
     96  CB        25.8290  -28.1060   -1.7260 C.3   225  THR225      0.1770
     97  OG1       24.5180  -27.6140   -2.0270 O.3   225  THR225     -0.2211
     98  CG2       26.3210  -27.4560   -0.4430 C.3   225  THR225      0.0375
     99  N         29.3850  -22.6980   -3.6150 N.3   239  LEU239     -0.1245
    100  CA        27.9450  -22.9140   -3.7500 C.3   239  LEU239      0.1561
    101  C         27.4540  -22.4160   -5.1100 C.2   239  LEU239      0.2260
    102  O         27.3540  -21.2100   -5.3430 O.2   239  LEU239     -0.2867
    103  CB        27.1860  -22.2060   -2.6250 C.3   239  LEU239      0.0270
    104  CG        25.7240  -22.6120   -2.4180 C.3   239  LEU239      0.0019
    105  CD1       25.6240  -24.0900   -2.0910 C.3   239  LEU239      0.0001
    106  CD2       25.0840  -21.7790   -1.3170 C.3   239  LEU239      0.0001
@<TRIPOS>BOND
     1    35    36    1
     2    35    34    1
     3    32    31    2
     4    84    85    1
     5    33    34    1
     6    33    30    1
     7    29    30    1
     8    36    37    1
     9    26    25    2
    10    30    31    1
    11    85    86    1
    12    85    88    1
    13    31    38   am
    14    25    24    1
    15    86    87    2
    16    23    24    1
    17    91    89    1
    18    24    27    1
    19    89    88    1
    20    38    39    1
    21   102   101    2
    22    88    90    1
    23    40    39    1
    24    40    41    2
    25    39    42    1
    26   101   100    1
    27    18    19    2
    28    18    17    1
    29    20    21    1
    30    20    17    1
    31    27    28    1
    32    92    93    1
    33    21    22    1
    34    42    43    1
    35    17    16    1
    36   100    99    1
    37   100   103    1
    38    93    94    1
    39    93    96    1
    40    95    94    2
    41    16    22    1
    42    16     9   am
    43   103   104    1
    44   104   105    1
    45   104   106    1
    46    82    83    1
    47    82    81    1
    48    62    61   ar
    49    63    61   ar
    50    97    96    1
    51    10     9    2
    52     9     8    1
    53    96    98    1
    54    61    60    1
    55    81    80    1
    56    14    13    2
    57    80    79    1
    58    11     8    1
    59    11    12    1
    60     8     7    1
    61    60    59    1
    62    13    12    1
    63    13    15   am
    64    77    78    2
    65    77    76    1
    66     7     3   am
    67    79    76    1
    68    59    56    1
    69    76    75    1
    70    73    71   ar
    71    73    74   ar
    72    71    69   ar
    73    44    45    1
    74     4     3    2
    75    48    49    1
    76    48    45    1
    77     3     2    1
    78    74    72   ar
    79    68    69    1
    80    68    65    1
    81    69    70   ar
    82    49    50    1
    83    45    46    1
    84    53    52    1
    85     6     5    1
    86    56    57    1
    87    56    55    1
    88    72    70   ar
    89     5     2    1
    90    57    58    2
    91     2     1    1
    92    52    54    1
    93    52    51    2
    94    50    51    1
    95    65    66    1
    96    65    64    1
    97    67    66    2
    98    46    47    2
