@<TRIPOS>MOLECULE
tmp/4pz8A00.pdb
 93 89 0 0 0
SMALL
GASTEIGER

@<TRIPOS>ATOM
      1  N         55.2980   12.0000   26.1810 N.3   246  MET246     -0.1245
      2  CA        56.3380   11.0020   25.9690 C.3   246  MET246      0.1570
      3  C         56.6750   10.3880   27.3220 C.2   246  MET246      0.2261
      4  O         57.0770   11.0950   28.2450 O.2   246  MET246     -0.2867
      5  CB        57.5840   11.6470   25.3570 C.3   246  MET246      0.0387
      6  CG        58.7540   10.6960   25.1710 C.3   246  MET246      0.0595
      7  SD        58.4810    9.4890   23.8600 S.3   246  MET246     -0.1393
      8  CE        58.5480   10.5440   22.4130 C.3   246  MET246      0.0692
      9  N         58.7840    8.1620   29.9990 N.3   248  LYS248     -0.1245
     10  CA        60.1180    7.6540   30.3000 C.3   248  LYS248      0.1561
     11  C         60.1650    7.0580   31.7020 C.2   248  LYS248      0.2260
     12  O         59.8100    7.7180   32.6810 O.2   248  LYS248     -0.2867
     13  CB        61.1730    8.7540   30.1560 C.3   248  LYS248      0.0271
     14  CG        61.4700    9.1480   28.7170 C.3   248  LYS248      0.0035
     15  CD        62.6690   10.0840   28.6330 C.3   248  LYS248      0.0206
     16  CE        63.0300   10.3990   27.1860 C.3   248  LYS248      0.1093
     17  NZ        64.2180   11.2940   27.0800 N.3   248  LYS248     -0.1314
     18  N         62.1790    6.1050   34.7370 N.3   250  GLU250     -0.1245
     19  CA        63.4450    6.4070   35.3930 C.3   250  GLU250      0.1567
     20  C         63.6600    5.5210   36.6160 C.2   250  GLU250      0.2260
     21  O         63.0530    5.7370   37.6660 O.2   250  GLU250     -0.2867
     22  CB        63.4900    7.8820   35.8050 C.3   250  GLU250      0.0388
     23  CG        64.8430    8.3560   36.3210 C.3   250  GLU250      0.1160
     24  CD        65.8380    8.6170   35.2060 C.2   250  GLU250      0.3649
     25  OE1       67.0460    8.7360   35.5010 O.co2 250  GLU250     -0.2457
     26  OE2       65.4120    8.7100   34.0360 O.co2 250  GLU250     -0.2457
     27  N         58.1060    9.5900   34.1220 N.3   268  GLN268     -0.1231
     28  CA        58.2700   10.9680   33.6670 C.3   268  GLN268      0.1698
     29  C         57.5470   11.2330   32.3510 C.2   268  GLN268      0.2592
     30  O         57.7020   10.4870   31.3820 O.2   268  GLN268     -0.2718
     31  CB        59.7560   11.3190   33.5360 C.3   268  GLN268      0.0381
     32  CG        60.5050   11.3400   34.8600 C.3   268  GLN268      0.0905
     33  CD        61.9550   11.7540   34.7080 C.2   268  GLN268      0.2608
     34  OE1       62.4700   11.8580   33.5950 O.2   268  GLN268     -0.2717
     35  NE2       62.6220   11.9930   35.8300 N.am  268  GLN268     -0.0878
     36  N         56.7570   12.3020   32.3280 N.am  269  LEU269     -0.1966
     37  CA        56.0270   12.6940   31.1300 C.3   269  LEU269      0.1728
     38  C         56.6790   13.9150   30.4870 C.2   269  LEU269      0.2616
     39  O         56.9590   14.9130   31.1590 O.2   269  LEU269     -0.2715
     40  CB        54.5600   12.9800   31.4610 C.3   269  LEU269      0.0311
     41  CG        53.7720   11.8190   32.0740 C.3   269  LEU269      0.0022
     42  CD1       52.3290   12.2180   32.3510 C.3   269  LEU269      0.0001
     43  CD2       53.8270   10.5970   31.1730 C.3   269  LEU269      0.0001
     44  N         56.9260   13.8280   29.1840 N.am  270  GLY270     -0.1955
     45  CA        57.5600   14.9100   28.4570 C.3   270  GLY270      0.1869
     46  C         56.6780   15.4930   27.3710 C.2   270  GLY270      0.2309
     47  O         55.8410   14.7970   26.7920 O.2   270  GLY270     -0.2863
     48  N         58.3480   19.9880   22.2610 N.3   273  GLU273     -0.1245
     49  CA        58.4940   21.4280   22.0610 C.3   273  GLU273      0.1567
     50  C         58.9970   21.7530   20.6600 C.2   273  GLU273      0.2260
     51  O         58.2410   22.2270   19.8120 O.2   273  GLU273     -0.2867
     52  CB        59.4430   22.0250   23.1030 C.3   273  GLU273      0.0388
     53  CG        58.8660   22.1090   24.5050 C.3   273  GLU273      0.1160
     54  CD        59.8100   22.7870   25.4770 C.2   273  GLU273      0.3649
     55  OE1       61.0390   22.6940   25.2760 O.co2 273  GLU273     -0.2457
     56  OE2       59.3230   23.4160   26.4410 O.co2 273  GLU273     -0.2457
     57  N         63.3240   18.1000   20.0640 N.3   277  MET277     -0.1230
     58  CA        63.4960   18.4170   21.4760 C.3   277  MET277      0.1702
     59  C         62.2130   18.2930   22.2940 C.2   277  MET277      0.2592
     60  O         61.1920   18.9050   21.9760 O.2   277  MET277     -0.2718
     61  CB        64.0810   19.8230   21.6360 C.3   277  MET277      0.0401
     62  CG        65.2590   20.1050   20.7190 C.3   277  MET277      0.0596
     63  SD        66.1700   21.5940   21.1690 S.3   277  MET277     -0.1393
     64  CE        67.0420   21.0270   22.6270 C.3   277  MET277      0.0692
     65  N         62.2820   17.4910   23.3500 N.am  278  TYR278     -0.1962
     66  CA        61.1910   17.3660   24.3040 C.3   278  TYR278      0.1771
     67  C         61.6000   18.0640   25.5940 C.2   278  TYR278      0.2620
     68  O         62.7630   18.4320   25.7590 O.2   278  TYR278     -0.2715
     69  CB        60.8840   15.8940   24.5810 C.3   278  TYR278      0.0574
     70  CG        60.0190   15.2340   23.5320 C.ar  278  TYR278     -0.0198
     71  CD1       60.5290   14.9190   22.2800 C.ar  278  TYR278     -0.0009
     72  CD2       58.6940   14.9180   23.7980 C.ar  278  TYR278     -0.0009
     73  CE1       59.7400   14.3130   21.3200 C.ar  278  TYR278      0.0417
     74  CE2       57.8980   14.3120   22.8450 C.ar  278  TYR278      0.0417
     75  CZ        58.4260   14.0130   21.6080 C.ar  278  TYR278      0.1957
     76  OH        57.6370   13.4090   20.6580 O.3   278  TYR278     -0.2866
     77  N         60.6500   18.2520   26.5040 N.am  279  SER279     -0.1936
     78  CA        60.9610   18.8600   27.7950 C.3   279  SER279      0.2055
     79  C         60.1750   18.1900   28.9150 C.2   279  SER279      0.2643
     80  O         59.0120   17.8360   28.7330 O.2   279  SER279     -0.2714
     81  CB        60.6670   20.3610   27.7720 C.3   279  SER279      0.2130
     82  OG        59.2810   20.6090   27.6150 O.3   279  SER279     -0.2179
     83  N         60.8130   18.0130   30.0680 N.am  280  PHE280     -0.1973
     84  CA        60.1500   17.4070   31.2180 C.3   280  PHE280      0.1639
     85  C         58.9590   18.2540   31.6500 C.2   280  PHE280      0.2290
     86  O         59.0670   19.4760   31.7600 O.2   280  PHE280     -0.2864
     87  CB        61.1270   17.2400   32.3820 C.3   280  PHE280      0.0560
     88  CG        60.4880   16.7090   33.6330 C.ar  280  PHE280     -0.0200
     89  CD1       60.1860   15.3630   33.7530 C.ar  280  PHE280     -0.0042
     90  CD2       60.1910   17.5560   34.6880 C.ar  280  PHE280     -0.0042
     91  CE1       59.5970   14.8710   34.9010 C.ar  280  PHE280     -0.0003
     92  CE2       59.6020   17.0710   35.8390 C.ar  280  PHE280     -0.0003
     93  CZ        59.3050   15.7270   35.9450 C.ar  280  PHE280     -0.0000
@<TRIPOS>BOND
     1    51    50    2
     2    57    58    1
     3    76    75    1
     4    50    49    1
     5    62    63    1
     6    62    61    1
     7    63    64    1
     8    73    75   ar
     9    73    71   ar
    10    58    61    1
    11    58    59    1
    12    75    74   ar
    13    60    59    2
    14    49    48    1
    15    49    52    1
    16    71    70   ar
    17    59    65   am
    18     8     7    1
    19    74    72   ar
    20    52    53    1
    21    65    66    1
    22    70    72   ar
    23    70    69    1
    24     7     6    1
    25    66    69    1
    26    66    67    1
    27    53    54    1
    28     6     5    1
    29    55    54   ar
    30     5     2    1
    31    54    56   ar
    32    67    68    2
    33    67    77   am
    34     2     1    1
    35     2     3    1
    36    77    78    1
    37    47    46    2
    38    17    16    1
    39    16    15    1
    40     3     4    2
    41    46    45    1
    42    82    81    1
    43    81    78    1
    44    78    79    1
    45    45    44    1
    46    15    14    1
    47    14    13    1
    48    80    79    2
    49    79    83   am
    50    44    38   am
    51     9    10    1
    52    83    84    1
    53    13    10    1
    54    10    11    1
    55    38    37    1
    56    38    39    2
    57    37    40    1
    58    37    36    1
    59    43    41    1
    60    84    85    1
    61    84    87    1
    62    30    29    2
    63    40    41    1
    64    85    86    2
    65    11    12    2
    66    41    42    1
    67    36    29   am
    68    29    28    1
    69    87    88    1
    70    31    28    1
    71    31    32    1
    72    34    33    2
    73    88    89   ar
    74    88    90   ar
    75    28    27    1
    76    89    91   ar
    77    26    24   ar
    78    90    92   ar
    79    33    32    1
    80    33    35   am
    81    18    19    1
    82    91    93   ar
    83    24    25   ar
    84    24    23    1
    85    19    22    1
    86    19    20    1
    87    22    23    1
    88    92    93   ar
    89    20    21    2
