@<TRIPOS>MOLECULE
tmp/4pzdC00.pdb
 215 206 0 0 0
SMALL
GASTEIGER

@<TRIPOS>ATOM
      1  N        -39.7220    2.0680  -17.4930 N.3     8  VAL8       -0.1231
      2  CA       -39.5160    1.7000  -16.0940 C.3     8  VAL8        0.1692
      3  C        -38.9800    0.2620  -16.0030 C.2     8  VAL8        0.2593
      4  O        -39.6670   -0.6870  -16.3510 O.2     8  VAL8       -0.2718
      5  CB       -40.8170    1.8810  -15.2960 C.3     8  VAL8        0.0266
      6  CG1      -40.6850    1.2850  -13.8940 C.3     8  VAL8        0.0020
      7  CG2      -41.2190    3.3650  -15.2380 C.3     8  VAL8        0.0020
      8  N        -37.7320    0.1170  -15.5570 N.am    9  GLY9       -0.1942
      9  CA       -37.0230   -1.1790  -15.6260 C.3     9  GLY9        0.2014
     10  C        -35.8400   -1.1800  -16.5860 C.2     9  GLY9        0.2639
     11  O        -35.9940   -0.8540  -17.7230 O.2     9  GLY9       -0.2714
     12  N        -34.6620   -1.5660  -16.1240 N.am   10  ALA10      -0.1963
     13  CA       -33.4810   -1.5780  -16.9670 C.3    10  ALA10       0.1728
     14  C        -32.7980   -2.9250  -17.0170 C.2    10  ALA10       0.2617
     15  O        -31.5570   -2.9980  -17.1960 O.2    10  ALA10      -0.2715
     16  CB       -32.4870   -0.5370  -16.5050 C.3    10  ALA10       0.0334
     17  N        -33.6000   -3.9830  -16.8730 N.am   11  GLY11      -0.1940
     18  CA       -33.1560   -5.3360  -17.1600 C.3    11  GLY11       0.2014
     19  C        -33.4750   -5.8370  -18.5770 C.2    11  GLY11       0.2640
     20  O        -33.7750   -5.0680  -19.5320 O.2    11  GLY11      -0.2714
     21  N        -33.4230   -7.1530  -18.6910 N.am   12  THR12      -0.1936
     22  CA       -33.5550   -7.8410  -19.9520 C.3    12  THR12       0.2028
     23  C        -34.5780   -7.1540  -20.8300 C.2    12  THR12       0.2642
     24  O        -34.2380   -6.6480  -21.8860 O.2    12  THR12      -0.2714
     25  CB       -33.8660   -9.3290  -19.6810 C.3    12  THR12       0.1808
     26  OG1      -32.6730   -9.9620  -19.2000 O.3    12  THR12      -0.2208
     27  CG2      -34.3670  -10.0410  -20.9200 C.3    12  THR12       0.0379
     28  N        -35.8170   -7.0650  -20.3810 N.am   13  MET13      -0.1962
     29  CA       -36.8330   -6.4040  -21.1990 C.3    13  MET13       0.1736
     30  C        -36.6600   -4.8930  -21.3630 C.2    13  MET13       0.2617
     31  O        -36.6620   -4.3640  -22.4700 O.2    13  MET13      -0.2715
     32  CB       -38.2140   -6.7370  -20.6790 C.3    13  MET13       0.0427
     33  CG       -38.5000   -8.2150  -20.8550 C.3    13  MET13       0.0599
     34  SD       -38.6320   -8.7890  -22.5720 S.3    13  MET13      -0.1393
     35  CE       -37.6310  -10.2660  -22.4330 C.3    13  MET13       0.0692
     36  N        -36.5250   -4.1910  -20.2660 N.am   14  GLY14      -0.1955
     37  CA       -36.4940   -2.7450  -20.3220 C.3    14  GLY14       0.1869
     38  C        -35.3110   -2.2050  -21.1040 C.2    14  GLY14       0.2309
     39  O        -35.5060   -1.2160  -21.8560 O.2    14  GLY14      -0.2863
     40  N        -35.5820    4.3210  -16.4060 N.3    31  VAL31      -0.1231
     41  CA       -35.5700    4.4780  -14.9650 C.3    31  VAL31       0.1692
     42  C        -35.5040    3.0960  -14.3100 C.2    31  VAL31       0.2592
     43  O        -36.2370    2.1840  -14.7150 O.2    31  VAL31      -0.2718
     44  CB       -36.8330    5.2230  -14.4860 C.3    31  VAL31       0.0266
     45  CG1      -36.8170    5.3730  -12.9880 C.3    31  VAL31       0.0020
     46  CG2      -36.9450    6.6000  -15.1290 C.3    31  VAL31       0.0020
     47  N        -34.6090    2.9410  -13.3290 N.am   32  ASP32      -0.1960
     48  CA       -34.5830    1.7740  -12.4510 C.3    32  ASP32       0.1840
     49  C        -34.4430    2.2560  -11.0160 C.2    32  ASP32       0.2621
     50  O        -34.4480    3.4520  -10.7690 O.2    32  ASP32      -0.2715
     51  CB       -33.4410    0.8120  -12.8270 C.3    32  ASP32       0.1450
     52  CG       -33.7700   -0.6520  -12.4970 C.2    32  ASP32       0.3671
     53  OD1      -33.9610   -0.9730  -11.3050 O.co2  32  ASP32      -0.2456
     54  OD2      -33.8650   -1.4840  -13.4230 O.co2  32  ASP32      -0.2456
     55  N        -34.3060    1.3320  -10.0690 N.am   33  ILE33      -0.1977
     56  CA       -34.2850    1.6730   -8.6240 C.3    33  ILE33       0.1596
     57  C        -32.9160    2.0730   -8.0730 C.2    33  ILE33       0.2287
     58  O        -32.8130    2.4990   -6.9220 O.2    33  ILE33      -0.2864
     59  CB       -34.8470    0.5320   -7.7350 C.3    33  ILE33       0.0276
     60  CG1      -33.8430   -0.6250   -7.6190 C.3    33  ILE33       0.0022
     61  CG2      -36.1970    0.0480   -8.2520 C.3    33  ILE33       0.0022
     62  CD1      -34.4360   -1.8840   -6.9970 C.3    33  ILE33       0.0001
     63  N        -28.1270   -0.5010  -11.1120 N.3    37  ALA37      -0.1245
     64  CA       -29.0940   -1.2540  -11.9300 C.3    37  ALA37       0.1562
     65  C        -29.3470   -0.6050  -13.2980 C.2    37  ALA37       0.2260
     66  O        -29.6710   -1.2820  -14.2840 O.2    37  ALA37      -0.2867
     67  CB       -30.3960   -1.4310  -11.1620 C.3    37  ALA37       0.0290
     68  N        -38.5250    8.9060  -11.0640 N.3    76  TYR76      -0.1241
     69  CA       -39.7480    8.9290  -11.8390 C.3    76  TYR76       0.1605
     70  C        -40.1030   10.2910  -12.4010 C.2    76  TYR76       0.2264
     71  O        -40.8570   10.3500  -13.3590 O.2    76  TYR76      -0.2867
     72  CB       -40.9000    8.4310  -11.0060 C.3    76  TYR76       0.0534
     73  CG       -40.9750    6.9180  -10.8810 C.ar   76  TYR76      -0.0201
     74  CD1      -39.8550    6.1590  -10.5830 C.ar   76  TYR76      -0.0009
     75  CD2      -42.1950    6.2530  -11.0490 C.ar   76  TYR76      -0.0009
     76  CE1      -39.9350    4.7830  -10.4670 C.ar   76  TYR76       0.0417
     77  CE2      -42.2850    4.8740  -10.9200 C.ar   76  TYR76       0.0417
     78  CZ       -41.1490    4.1580  -10.6320 C.ar   76  TYR76       0.1957
     79  OH       -41.2330    2.8110  -10.4980 O.3    76  TYR76      -0.2866
     80  N        -41.8740   -1.9680  -17.4970 N.3    88  ALA88      -0.1231
     81  CA       -41.1960   -3.2490  -17.8250 C.3    88  ALA88       0.1694
     82  C        -40.2630   -3.7260  -16.7280 C.2    88  ALA88       0.2592
     83  O        -39.1240   -4.1190  -16.9750 O.2    88  ALA88      -0.2718
     84  CB       -40.4370   -3.1340  -19.1300 C.3    88  ALA88       0.0304
     85  N        -40.7940   -3.7280  -15.5150 N.am   89  ALA89      -0.1966
     86  CA       -40.0310   -3.9740  -14.3110 C.3    89  ALA89       0.1728
     87  C        -40.2980   -5.3620  -13.6970 C.2    89  ALA89       0.2617
     88  O        -39.3680   -5.9930  -13.1570 O.2    89  ALA89      -0.2715
     89  CB       -40.3980   -2.9010  -13.2990 C.3    89  ALA89       0.0334
     90  N        -41.5600   -5.8180  -13.7300 N.am   90  THR90      -0.1937
     91  CA       -41.9600   -6.9440  -12.8700 C.3    90  THR90       0.2028
     92  C        -43.3030   -7.5560  -13.2280 C.2    90  THR90       0.2642
     93  O        -44.2160   -6.8430  -13.6330 O.2    90  THR90      -0.2714
     94  CB       -42.0200   -6.5120  -11.3810 C.3    90  THR90       0.1808
     95  OG1      -42.0980   -7.6700  -10.5400 O.3    90  THR90      -0.2208
     96  CG2      -43.2240   -5.6290  -11.1230 C.3    90  THR90       0.0379
     97  N        -43.3810   -8.8880  -13.0800 N.am   91  GLU91      -0.1976
     98  CA       -44.6160   -9.6710  -13.2410 C.3    91  GLU91       0.1602
     99  C        -45.2230   -9.9770  -11.8890 C.2    91  GLU91       0.2287
    100  O        -46.2760  -10.5690  -11.8050 O.2    91  GLU91      -0.2864
    101  CB       -44.4170  -10.9600  -14.0370 C.3    91  GLU91       0.0415
    102  CG       -44.5330  -10.8010  -15.5610 C.3    91  GLU91       0.1163
    103  CD       -45.9410  -10.5280  -16.1250 C.2    91  GLU91       0.3649
    104  OE1      -46.3270   -9.3460  -16.2520 O.co2  91  GLU91      -0.2457
    105  OE2      -46.6580  -11.4860  -16.5060 O.co2  91  GLU91      -0.2457
    106  N        -46.4910   -5.5800   -6.9600 N.3    95  LEU95      -0.1245
    107  CA       -45.4770   -4.5650   -7.1350 C.3    95  LEU95       0.1561
    108  C        -45.7610   -3.7610   -8.3870 C.2    95  LEU95       0.2260
    109  O        -45.5640   -2.5690   -8.3910 O.2    95  LEU95      -0.2867
    110  CB       -44.0670   -5.1550   -7.1710 C.3    95  LEU95       0.0270
    111  CG       -43.5480   -5.7170   -5.8320 C.3    95  LEU95       0.0019
    112  CD1      -42.0860   -6.0990   -5.9990 C.3    95  LEU95       0.0001
    113  CD2      -43.6970   -4.7950   -4.6080 C.3    95  LEU95       0.0001
    114  N        -46.2440    0.3410   -9.0630 N.3    99  ILE99      -0.1245
    115  CA       -45.5110    1.1100  -10.0440 C.3    99  ILE99       0.1561
    116  C        -46.3790    1.8850  -11.0040 C.2    99  ILE99       0.2260
    117  O        -46.1280    3.0470  -11.2410 O.2    99  ILE99      -0.2867
    118  CB       -44.5710    0.2090  -10.8210 C.3    99  ILE99       0.0252
    119  CG1      -43.4500   -0.1810   -9.8960 C.3    99  ILE99       0.0019
    120  CG2      -44.0310    0.9420  -12.0300 C.3    99  ILE99       0.0019
    121  CD1      -42.7480   -1.4380  -10.3090 C.3    99  ILE99       0.0001
    122  N        -47.9300    4.7920   -9.2530 N.3   102  GLN102     -0.1245
    123  CA       -46.9220    5.8080   -9.0760 C.3   102  GLN102      0.1566
    124  C        -46.7400    6.6290  -10.3660 C.2   102  GLN102      0.2260
    125  O        -46.8630    7.8600  -10.3450 O.2   102  GLN102     -0.2867
    126  CB       -45.6220    5.1960   -8.6290 C.3   102  GLN102      0.0367
    127  CG       -44.5080    6.2210   -8.4930 C.3   102  GLN102      0.0905
    128  CD       -43.3820    5.7590   -7.5900 C.2   102  GLN102      0.2608
    129  OE1      -42.2360    6.1980   -7.7190 O.2   102  GLN102     -0.2717
    130  NE2      -43.7010    4.8910   -6.6660 N.am  102  GLN102     -0.0878
    131  N        -45.4680   -3.9190  -20.3020 N.3   116  ASN116     -0.1225
    132  CA       -45.0690   -5.1420  -20.9200 C.3   116  ASN116      0.1785
    133  C        -45.3200   -6.2570  -19.8860 C.2   116  ASN116      0.2598
    134  O        -44.9530   -6.1300  -18.7140 O.2   116  ASN116     -0.2718
    135  CB       -43.6260   -5.0710  -21.3980 C.3   116  ASN116      0.1169
    136  CG       -43.0980   -6.4210  -21.7780 C.2   116  ASN116      0.2627
    137  OD1      -43.0950   -6.8190  -22.9390 O.2   116  ASN116     -0.2716
    138  ND2      -42.6900   -7.1490  -20.7910 N.am  116  ASN116     -0.0877
    139  N        -45.9840   -7.3120  -20.3300 N.am  117  THR117     -0.1939
    140  CA       -46.4420   -8.3640  -19.4510 C.3   117  THR117      0.2028
    141  C        -46.6770   -9.5990  -20.2620 C.2   117  THR117      0.2642
    142  O        -47.2440   -9.5470  -21.3280 O.2   117  THR117     -0.2714
    143  CB       -47.7700   -8.0570  -18.7140 C.3   117  THR117      0.1808
    144  OG1      -48.1220   -9.2100  -17.9460 O.3   117  THR117     -0.2208
    145  CG2      -48.9180   -7.7490  -19.6750 C.3   117  THR117      0.0379
    146  N        -46.2340  -10.7240  -19.7670 N.am  118  SER118     -0.1949
    147  CA       -46.3630  -11.8800  -20.5590 C.3   118  SER118      0.1924
    148  C        -47.7750  -12.5490  -20.3680 C.2   118  SER118      0.2314
    149  O        -48.0560  -13.5400  -21.0370 O.2   118  SER118     -0.2863
    150  CB       -45.1470  -12.7940  -20.3270 C.3   118  SER118      0.2116
    151  OG       -45.4170  -13.6810  -19.2790 O.3   118  SER118     -0.2180
    152  N        -46.5370   -5.7500  -25.3580 N.3   139  HIS139     -0.1226
    153  CA       -45.7740   -6.9340  -25.0690 C.3   139  HIS139      0.1752
    154  C        -44.7810   -7.1880  -26.1940 C.2   139  HIS139      0.2596
    155  O        -45.1640   -7.4170  -27.3500 O.2   139  HIS139     -0.2718
    156  CB       -46.7470   -8.0810  -24.9610 C.3   139  HIS139      0.0759
    157  CG       -46.1280   -9.4090  -24.6890 C.ar  139  HIS139      0.0818
    158  ND1      -44.8650   -9.5680  -24.1670 N.ar  139  HIS139     -0.2268
    159  CD2      -46.6390  -10.6510  -24.8200 C.ar  139  HIS139      0.1154
    160  CE1      -44.6200  -10.8540  -24.0000 C.ar  139  HIS139      0.1986
    161  NE2      -45.6810  -11.5320  -24.3900 N.ar  139  HIS139     -0.2212
    162  N        -43.5130   -7.1260  -25.8150 N.am  140  PHE140     -0.1962
    163  CA       -42.3580   -7.3310  -26.6710 C.3   140  PHE140      0.1771
    164  C        -41.7660   -8.6700  -26.3200 C.2   140  PHE140      0.2620
    165  O        -42.0840   -9.2120  -25.2790 O.2   140  PHE140     -0.2715
    166  CB       -41.2540   -6.3100  -26.3580 C.3   140  PHE140      0.0574
    167  CG       -41.6490   -4.8720  -26.5830 C.ar  140  PHE140     -0.0200
    168  CD1      -42.3860   -4.1620  -25.6280 C.ar  140  PHE140     -0.0042
    169  CD2      -41.2300   -4.2050  -27.7110 C.ar  140  PHE140     -0.0042
    170  CE1      -42.7160   -2.8330  -25.8440 C.ar  140  PHE140     -0.0003
    171  CE2      -41.5660   -2.8730  -27.9180 C.ar  140  PHE140     -0.0003
    172  CZ       -42.3200   -2.1950  -26.9950 C.ar  140  PHE140     -0.0000
    173  N        -40.8230   -9.1390  -27.1380 N.am  141  PHE141     -0.1960
    174  CA       -40.2500  -10.4790  -26.9740 C.3   141  PHE141      0.1771
    175  C        -38.7530  -10.5430  -26.9150 C.2   141  PHE141      0.2619
    176  O        -38.0710  -10.0970  -27.8110 O.2   141  PHE141     -0.2715
    177  CB       -40.7130  -11.3760  -28.1100 C.3   141  PHE141      0.0574
    178  CG       -42.1740  -11.5290  -28.1430 C.ar  141  PHE141     -0.0200
    179  CD1      -42.9780  -10.4740  -28.6220 C.ar  141  PHE141     -0.0042
    180  CD2      -42.7670  -12.6570  -27.6080 C.ar  141  PHE141     -0.0042
    181  CE1      -44.3430  -10.5700  -28.5940 C.ar  141  PHE141     -0.0003
    182  CE2      -44.1410  -12.7690  -27.6010 C.ar  141  PHE141     -0.0003
    183  CZ       -44.9340  -11.7250  -28.0820 C.ar  141  PHE141     -0.0000
    184  N        -38.2780  -11.0810  -25.8060 N.am  142  ASN142     -0.1972
    185  CA       -37.0020  -11.7530  -25.6750 C.3   142  ASN142      0.1688
    186  C        -36.3860  -12.3790  -26.9400 C.2   142  ASN142      0.2292
    187  O        -36.9070  -13.3660  -27.4360 O.2   142  ASN142     -0.2864
    188  CB       -37.2030  -12.9010  -24.6380 C.3   142  ASN142      0.1181
    189  CG       -38.4430  -13.8310  -24.9290 C.2   142  ASN142      0.2629
    190  OD1      -39.1730  -13.7050  -25.9370 O.2   142  ASN142     -0.2716
    191  ND2      -38.6520  -14.7970  -24.0240 N.am  142  ASN142     -0.0877
    192  N        -36.7040  -19.5920  -21.6000 N.3   234  ILE234     -0.1245
    193  CA       -37.6700  -18.5960  -21.1610 C.3   234  ILE234      0.1561
    194  C        -37.6610  -18.5160  -19.6460 C.2   234  ILE234      0.2260
    195  O        -37.9530  -17.4350  -19.0870 O.2   234  ILE234     -0.2867
    196  CB       -39.1070  -18.9270  -21.5870 C.3   234  ILE234      0.0252
    197  CG1      -39.2490  -18.8810  -23.0870 C.3   234  ILE234      0.0019
    198  CG2      -40.0920  -17.9070  -21.0360 C.3   234  ILE234      0.0019
    199  CD1      -40.5440  -19.5330  -23.5360 C.3   234  ILE234      0.0001
    200  N        -41.0820  -18.9030  -15.0430 N.3   238  THR238     -0.1218
    201  CA       -41.9440  -18.0520  -15.8520 C.3   238  THR238      0.1862
    202  C        -43.0220  -18.8180  -16.6140 C.2   238  THR238      0.2287
    203  O        -44.1010  -18.2790  -16.8910 O.2   238  THR238     -0.2866
    204  CB       -41.0910  -17.2420  -16.8270 C.3   238  THR238      0.1770
    205  OG1      -40.0190  -16.6500  -16.0920 O.3   238  THR238     -0.2211
    206  CG2      -41.8850  -16.1620  -17.4950 C.3   238  THR238      0.0375
    207  N        -30.8080  -19.4460  -16.6180 N.3   273  LYS273     -0.1245
    208  CA       -30.6360  -18.5270  -15.4820 C.3   273  LYS273      0.1561
    209  C        -30.2380  -19.1350  -14.1150 C.2   273  LYS273      0.2260
    210  O        -29.9690  -18.3640  -13.2020 O.2   273  LYS273     -0.2867
    211  CB       -31.9240  -17.7260  -15.2760 C.3   273  LYS273      0.0271
    212  CG       -32.9340  -18.4630  -14.4100 C.3   273  LYS273      0.0035
    213  CD       -34.3520  -18.0070  -14.6790 C.3   273  LYS273      0.0206
    214  CE       -34.7280  -16.7610  -13.9030 C.3   273  LYS273      0.1093
    215  NZ       -36.0440  -16.2710  -14.3890 N.3   273  LYS273     -0.1314
@<TRIPOS>BOND
     1   179   181   ar
     2   179   178   ar
     3   181   183   ar
     4   178   177    1
     5   178   180   ar
     6   177   174    1
     7   183   182   ar
     8   171   169   ar
     9   171   172   ar
    10   176   175    2
    11   169   167   ar
    12   180   182   ar
    13   187   186    2
    14   155   154    2
    15   173   174    1
    16   173   164   am
    17   172   170   ar
    18   174   175    1
    19   186   185    1
    20   175   184   am
    21   163   166    1
    22   163   164    1
    23   163   162    1
    24   167   166    1
    25   167   168   ar
    26   164   165    2
    27   154   162   am
    28   154   153    1
    29   190   189    2
    30   170   168   ar
    31   184   185    1
    32   185   188    1
    33   152   153    1
    34   153   156    1
    35   156   157    1
    36   189   188    1
    37   189   191   am
    38   159   157   ar
    39   159   161   ar
    40   157   158   ar
    41   161   160   ar
    42   158   160   ar
    43   199   197    1
    44   197   196    1
    45   137   136    2
    46    34    35    1
    47    34    33    1
    48    31    30    2
    49    24    23    2
    50    39    38    2
    51   136   135    1
    52   136   138   am
    53   192   193    1
    54   196   193    1
    55   196   198    1
    56   135   132    1
    57    30    29    1
    58    30    36   am
    59   142   141    2
    60    29    32    1
    61    29    28    1
    62   193   194    1
    63    38    37    1
    64   149   148    2
    65    27    25    1
    66   132   131    1
    67   132   133    1
    68    33    32    1
    69    23    28   am
    70    23    22    1
    71   147   148    1
    72   147   150    1
    73   147   146    1
    74   139   133   am
    75   139   140    1
    76   150   151    1
    77    37    36    1
    78   141   146   am
    79   141   140    1
    80    22    25    1
    81    22    21    1
    82   133   134    2
    83    25    26    1
    84   145   143    1
    85   194   195    2
    86    20    19    2
    87   140   143    1
    88    84    81    1
    89   143   144    1
    90    21    19   am
    91    19    18    1
    92    81    80    1
    93    81    82    1
    94    11    10    2
    95   206   204    1
    96     1     2    1
    97    15    14    2
    98    18    17    1
    99    14    13    1
   100    14    17   am
   101    83    82    2
   102    13    16    1
   103    13    12    1
   104   203   202    2
   105   204   205    1
   106   204   201    1
   107    82    85   am
   108   207   208    1
   109   202   201    1
   110    10    12   am
   111    10     9    1
   112   105   103   ar
   113    40    41    1
   114     4     3    2
   115   104   103   ar
   116   103   102    1
   117     2     3    1
   118     2     5    1
   119     3     8   am
   120   201   200    1
   121     9     8    1
   122   102   101    1
   123    85    86    1
   124   208   211    1
   125   208   209    1
   126     5     7    1
   127     5     6    1
   128   211   212    1
   129    46    44    1
   130    41    44    1
   131    41    42    1
   132    43    42    2
   133   213   212    1
   134   213   214    1
   135    44    45    1
   136   215   214    1
   137    86    87    1
   138    86    89    1
   139    42    47   am
   140    66    65    2
   141   209   210    2
   142   101    98    1
   143    90    87   am
   144    90    91    1
   145    87    88    2
   146    93    92    2
   147    54    52   ar
   148    71    70    2
   149    47    48    1
   150    65    64    1
   151    98    97    1
   152    98    99    1
   153    92    97   am
   154    92    91    1
   155    91    94    1
   156    51    52    1
   157    51    48    1
   158    52    53   ar
   159    48    49    1
   160    70    69    1
   161   120   118    1
   162    64    67    1
   163    64    63    1
   164    99   100    2
   165    69    68    1
   166    69    72    1
   167    94    96    1
   168    94    95    1
   169   117   116    2
   170    75    77   ar
   171    75    73   ar
   172    49    50    2
   173    49    55   am
   174    72    73    1
   175   116   115    1
   176    77    78   ar
   177    73    74   ar
   178   118   115    1
   179   118   119    1
   180    78    79    1
   181    78    76   ar
   182    74    76   ar
   183   124   125    2
   184   124   123    1
   185   121   119    1
   186    55    56    1
   187   115   114    1
   188   122   123    1
   189   123   126    1
   190   126   127    1
   191    56    57    1
   192    56    59    1
   193   127   128    1
   194   109   108    2
   195   108   107    1
   196    61    59    1
   197    57    58    2
   198    59    60    1
   199   129   128    2
   200    60    62    1
   201   128   130   am
   202   110   107    1
   203   110   111    1
   204   107   106    1
   205   112   111    1
   206   111   113    1
