@<TRIPOS>MOLECULE
tmp/4pzeE00.pdb
 192 184 0 0 0
SMALL
GASTEIGER

@<TRIPOS>ATOM
      1  N        -45.2990  -48.2350   25.7120 N.3    48  SER48      -0.1217
      2  CA       -45.3280  -49.1840   24.6030 C.3    48  SER48       0.1889
      3  C        -44.5180  -50.4320   24.9370 C.2    48  SER48       0.2288
      4  O        -45.0650  -51.5410   25.0100 O.2    48  SER48      -0.2866
      5  CB       -44.8130  -48.5620   23.3050 C.3    48  SER48       0.2089
      6  OG       -45.8670  -47.9290   22.6160 O.3    48  SER48      -0.2183
      7  N        -46.0340  -52.6830   27.2260 N.3    51  ARG51      -0.1231
      8  CA       -47.1140  -53.4360   26.5820 C.3    51  ARG51       0.1694
      9  C        -46.5880  -54.6220   25.7440 C.2    51  ARG51       0.2591
     10  O        -47.3310  -55.5930   25.4940 O.2    51  ARG51      -0.2718
     11  CB       -47.9840  -52.5050   25.7280 C.3    51  ARG51       0.0321
     12  CG       -49.4600  -52.8830   25.7240 C.3    51  ARG51       0.0489
     13  CD       -50.3500  -51.7590   25.2010 C.3    51  ARG51       0.2205
     14  NE       -50.2340  -50.5150   25.9740 N.pl3  51  ARG51      -0.0865
     15  CZ       -49.4780  -49.4600   25.6460 C.cat  51  ARG51       0.5346
     16  NH1      -48.7320  -49.4550   24.5400 N.pl3  51  ARG51       0.1354
     17  NH2      -49.4630  -48.3910   26.4380 N.pl3  51  ARG51       0.1354
     18  N        -45.3170  -54.5240   25.3290 N.am   52  LEU52      -0.1980
     19  CA       -44.5980  -55.5880   24.6060 C.3    52  LEU52       0.1596
     20  C        -43.9510  -56.6680   25.4980 C.2    52  LEU52       0.2287
     21  O        -43.6880  -57.7730   25.0190 O.2    52  LEU52      -0.2864
     22  CB       -43.5010  -54.9960   23.7020 C.3    52  LEU52       0.0297
     23  CG       -43.8170  -53.8600   22.7120 C.3    52  LEU52       0.0022
     24  CD1      -42.7530  -53.8040   21.6160 C.3    52  LEU52       0.0001
     25  CD2      -45.2110  -53.9970   22.1020 C.3    52  LEU52       0.0001
     26  N        -46.8140  -59.0300   26.2590 N.3    55  LYS55      -0.1245
     27  CA       -46.8890  -59.9570   25.1060 C.3    55  LYS55       0.1561
     28  C        -45.6020  -60.7490   24.8300 C.2    55  LYS55       0.2260
     29  O        -45.4830  -61.4010   23.7860 O.2    55  LYS55      -0.2867
     30  CB       -47.3280  -59.2080   23.8370 C.3    55  LYS55       0.0271
     31  CG       -48.6680  -59.6850   23.2920 C.3    55  LYS55       0.0035
     32  CD       -49.8180  -59.4520   24.2670 C.3    55  LYS55       0.0206
     33  CE       -50.9210  -60.4890   24.1140 C.3    55  LYS55       0.1093
     34  NZ       -51.9480  -60.2580   25.1610 N.3    55  LYS55      -0.1314
     35  N        -47.3400  -36.1090    5.8550 N.3   118  SER118     -0.1217
     36  CA       -48.5250  -36.7030    5.2340 C.3   118  SER118      0.1889
     37  C        -48.6400  -36.2660    3.7660 C.2   118  SER118      0.2288
     38  O        -48.8160  -37.0920    2.8480 O.2   118  SER118     -0.2866
     39  CB       -49.7650  -36.2480    6.0320 C.3   118  SER118      0.2089
     40  OG       -50.9970  -36.5740    5.4060 O.3   118  SER118     -0.2183
     41  N        -42.3040  -41.1540    5.6950 N.3   139  HIS139     -0.1226
     42  CA       -43.7460  -41.1240    5.9090 C.3   139  HIS139      0.1752
     43  C        -44.2240  -42.3820    6.6270 C.2   139  HIS139      0.2596
     44  O        -44.4740  -43.4090    5.9970 O.2   139  HIS139     -0.2718
     45  CB       -44.4830  -40.9660    4.5780 C.3   139  HIS139      0.0759
     46  CG       -45.9660  -40.8260    4.7210 C.ar  139  HIS139      0.0818
     47  ND1      -46.5500  -40.0530    5.7010 N.ar  139  HIS139     -0.2268
     48  CD2      -46.9850  -41.3610    4.0080 C.ar  139  HIS139      0.1154
     49  CE1      -47.8650  -40.1170    5.5860 C.ar  139  HIS139      0.1986
     50  NE2      -48.1550  -40.9050    4.5660 N.ar  139  HIS139     -0.2212
     51  N        -44.3470  -42.2940    7.9470 N.am  140  PHE140     -0.1962
     52  CA       -44.7950  -43.4240    8.7520 C.3   140  PHE140      0.1771
     53  C        -46.3150  -43.5430    8.7360 C.2   140  PHE140      0.2620
     54  O        -46.9850  -42.9630    7.8820 O.2   140  PHE140     -0.2715
     55  CB       -44.2930  -43.2900   10.1910 C.3   140  PHE140      0.0574
     56  CG       -42.8050  -43.4480   10.3300 C.ar  140  PHE140     -0.0200
     57  CD1      -41.9640  -42.3540   10.2090 C.ar  140  PHE140     -0.0042
     58  CD2      -42.2480  -44.6900   10.5840 C.ar  140  PHE140     -0.0042
     59  CE1      -40.5960  -42.4960   10.3370 C.ar  140  PHE140     -0.0003
     60  CE2      -40.8810  -44.8400   10.7130 C.ar  140  PHE140     -0.0003
     61  CZ       -40.0530  -43.7410   10.5890 C.ar  140  PHE140     -0.0000
     62  N        -46.8540  -44.2990    9.6880 N.am  141  PHE141     -0.1960
     63  CA       -48.2950  -44.4960    9.7860 C.3   141  PHE141      0.1771
     64  C        -48.7100  -44.8300   11.2150 C.2   141  PHE141      0.2620
     65  O        -48.3500  -45.8800   11.7460 O.2   141  PHE141     -0.2715
     66  CB       -48.7510  -45.6040    8.8340 C.3   141  PHE141      0.0574
     67  CG       -48.4400  -45.3290    7.3900 C.ar  141  PHE141     -0.0200
     68  CD1      -47.1670  -45.5470    6.8880 C.ar  141  PHE141     -0.0042
     69  CD2      -49.4190  -44.8520    6.5350 C.ar  141  PHE141     -0.0042
     70  CE1      -46.8780  -45.2950    5.5610 C.ar  141  PHE141     -0.0003
     71  CE2      -49.1370  -44.5980    5.2070 C.ar  141  PHE141     -0.0003
     72  CZ       -47.8640  -44.8200    4.7180 C.ar  141  PHE141     -0.0000
     73  N        -49.4680  -43.9290   11.8310 N.am  142  ASN142     -0.1959
     74  CA       -49.9320  -44.1250   13.1990 C.3   142  ASN142      0.1804
     75  C        -48.6370  -44.6350   13.8240 C.2   142  ASN142      0.2463
     76  O        -47.6430  -43.9020   13.8840 O.2   142  ASN142     -0.2730
     77  CB       -51.0790  -45.1380   13.2370 C.3   142  ASN142      0.1195
     78  CG       -52.4390  -44.4750   13.3320 C.2   142  ASN142      0.2630
     79  OD1      -53.4330  -45.1180   13.6690 O.2   142  ASN142     -0.2716
     80  ND2      -52.4890  -43.1820   13.0340 N.am  142  ASN142     -0.0877
     81  N        -48.6730  -45.9540   14.3040 N.am  143  PRO143     -0.2727
     82  CA       -47.5780  -46.3230   15.2090 C.3   143  PRO143      0.1402
     83  C        -46.3360  -46.7670   14.4450 C.2   143  PRO143      0.2269
     84  O        -46.3370  -47.8360   13.8340 O.2   143  PRO143     -0.2865
     85  CB       -48.1640  -47.5000   15.9890 C.3   143  PRO143      0.0296
     86  CG       -49.0210  -48.2210   14.9990 C.3   143  PRO143      0.0237
     87  CD       -49.3020  -47.2880   13.8500 C.3   143  PRO143      0.0939
     88  N        -45.1890  -50.1910   15.2570 N.3   146  VAL146     -0.1231
     89  CA       -46.1230  -51.2880   15.0350 C.3   146  VAL146      0.1692
     90  C        -46.2740  -51.5910   13.5480 C.2   146  VAL146      0.2591
     91  O        -46.3120  -52.7530   13.1430 O.2   146  VAL146     -0.2718
     92  CB       -47.5090  -50.9780   15.6300 C.3   146  VAL146      0.0266
     93  CG1      -48.4910  -52.0900   15.2930 C.3   146  VAL146      0.0020
     94  CG2      -47.4090  -50.7850   17.1360 C.3   146  VAL146      0.0020
     95  N        -46.3610  -50.5390   12.7410 N.am  147  MET147     -0.1979
     96  CA       -46.5080  -50.6910   11.2980 C.3   147  MET147      0.1605
     97  C        -45.2040  -51.1500   10.6560 C.2   147  MET147      0.2287
     98  O        -44.1230  -50.6890   11.0230 O.2   147  MET147     -0.2864
     99  CB       -46.9710  -49.3770   10.6660 C.3   147  MET147      0.0413
    100  CG       -48.3430  -48.9140   11.1310 C.3   147  MET147      0.0598
    101  SD       -49.6100  -50.1800   10.9260 S.3   147  MET147     -0.1393
    102  CE       -51.0090  -49.3890   11.7160 C.3   147  MET147      0.0692
    103  N        -49.7110  -44.0050   -0.8480 N.3   188  VAL188     -0.1231
    104  CA       -50.8010  -44.4710    0.0260 C.3   188  VAL188      0.1692
    105  C        -51.9920  -43.5260    0.1550 C.2   188  VAL188      0.2592
    106  O        -53.1400  -43.9560   -0.0720 O.2   188  VAL188     -0.2718
    107  CB       -50.3200  -44.8430    1.4410 C.3   188  VAL188      0.0266
    108  CG1      -51.4990  -45.1040    2.3680 C.3   188  VAL188      0.0020
    109  CG2      -49.4560  -46.0830    1.3830 C.3   188  VAL188      0.0020
    110  N        -51.7590  -42.2740    0.5650 N.am  189  ASN189     -0.1974
    111  CA       -52.8870  -41.3290    0.6690 C.3   189  ASN189      0.1688
    112  C        -53.5170  -41.0360   -0.6990 C.2   189  ASN189      0.2292
    113  O        -54.7450  -40.9710   -0.8070 O.2   189  ASN189     -0.2864
    114  CB       -52.5230  -40.0270    1.3880 C.3   189  ASN189      0.1181
    115  CG       -52.2250  -40.2330    2.8640 C.2   189  ASN189      0.2629
    116  OD1      -51.5910  -39.3820    3.5130 O.2   189  ASN189     -0.2716
    117  ND2      -52.6710  -41.3680    3.4070 N.am  189  ASN189     -0.0877
    118  N        -55.9760  -44.1650   -1.3770 N.3   192  LEU192     -0.1231
    119  CA       -56.9360  -44.3350   -0.2830 C.3   192  LEU192      0.1693
    120  C        -57.9410  -43.2030   -0.0310 C.2   192  LEU192      0.2592
    121  O        -59.1470  -43.4490    0.1080 O.2   192  LEU192     -0.2718
    122  CB       -56.1450  -44.4890    1.0060 C.3   192  LEU192      0.0284
    123  CG       -57.0460  -44.7540    2.2090 C.3   192  LEU192      0.0019
    124  CD1      -57.5650  -46.1950    2.1260 C.3   192  LEU192      0.0001
    125  CD2      -56.3310  -44.4520    3.5360 C.3   192  LEU192      0.0001
    126  N        -57.4140  -41.9910    0.0950 N.am  193  CYS193     -0.1970
    127  CA       -58.1660  -40.8330    0.5280 C.3   193  CYS193      0.1712
    128  C        -59.2670  -40.4450   -0.4750 C.2   193  CYS193      0.2296
    129  O        -60.4180  -40.1220   -0.0690 O.2   193  CYS193     -0.2864
    130  CB       -57.2000  -39.6440    0.8180 C.3   193  CYS193      0.0983
    131  SG       -56.1230  -39.7280    2.3050 S.3   193  CYS193     -0.0798
    132  N        -60.8990  -54.2720    6.3570 N.3   224  PRO224     -0.2102
    133  CA       -61.0330  -54.4720    7.8040 C.3   224  PRO224      0.1504
    134  C        -61.8830  -53.4460    8.5110 C.2   224  PRO224      0.2575
    135  O        -62.3150  -53.6960    9.6340 O.2   224  PRO224     -0.2718
    136  CB       -59.6120  -54.4110    8.3210 C.3   224  PRO224      0.0282
    137  CG       -58.8160  -53.7860    7.2350 C.3   224  PRO224      0.0208
    138  CD       -59.5180  -54.0140    5.9420 C.3   224  PRO224      0.0893
    139  N        -62.1210  -52.3010    7.8750 N.am  225  ILE225     -0.1980
    140  CA       -62.9170  -51.2480    8.4960 C.3   225  ILE225      0.1595
    141  C        -63.4820  -50.3030    7.4660 C.2   225  ILE225      0.2287
    142  O        -62.7720  -49.8710    6.5810 O.2   225  ILE225     -0.2864
    143  CB       -62.0680  -50.4780    9.5310 C.3   225  ILE225      0.0276
    144  CG1      -62.4760  -49.0250    9.6060 C.3   225  ILE225      0.0022
    145  CG2      -60.5740  -50.5940    9.2550 C.3   225  ILE225      0.0022
    146  CD1      -62.2730  -48.5140   11.0030 C.3   225  ILE225      0.0001
    147  N        -63.5310  -45.2720    9.1430 N.3   230  LEU230     -0.1245
    148  CA       -62.1220  -45.0220    9.0160 C.3   230  LEU230      0.1561
    149  C        -61.8430  -43.5510    9.0000 C.2   230  LEU230      0.2260
    150  O        -60.8540  -43.0950    9.5830 O.2   230  LEU230     -0.2867
    151  CB       -61.6170  -45.6190    7.7080 C.3   230  LEU230      0.0270
    152  CG       -60.1760  -45.3500    7.3580 C.3   230  LEU230      0.0019
    153  CD1      -59.2880  -45.8600    8.4730 C.3   230  LEU230      0.0001
    154  CD2      -59.8580  -46.0240    6.0430 C.3   230  LEU230      0.0001
    155  N        -62.0010  -41.9590   12.2560 N.3   233  MET233     -0.1230
    156  CA       -60.7560  -42.1900   12.9910 C.3   233  MET233      0.1702
    157  C        -59.6290  -41.2470   12.5880 C.2   233  MET233      0.2592
    158  O        -58.9070  -40.7220   13.4270 O.2   233  MET233     -0.2718
    159  CB       -60.2700  -43.5980   12.7730 C.3   233  MET233      0.0401
    160  CG       -61.1530  -44.6040   13.4780 C.3   233  MET233      0.0596
    161  SD       -60.8560  -46.3000   12.9490 S.3   233  MET233     -0.1393
    162  CE       -62.1560  -47.0660   13.9480 C.3   233  MET233      0.0692
    163  N        -59.4560  -41.0530   11.2910 N.am  234  ILE234     -0.1980
    164  CA       -58.4070  -40.1910   10.7780 C.3   234  ILE234      0.1595
    165  C        -58.6500  -38.7040   11.1290 C.2   234  ILE234      0.2287
    166  O        -57.7050  -37.9240   11.2320 O.2   234  ILE234     -0.2864
    167  CB       -58.3410  -40.3580    9.2590 C.3   234  ILE234      0.0276
    168  CG1      -57.7420  -41.7290    8.9120 C.3   234  ILE234      0.0022
    169  CG2      -57.5870  -39.2080    8.6080 C.3   234  ILE234      0.0022
    170  CD1      -58.2310  -42.2770    7.5690 C.3   234  ILE234      0.0001
    171  N        -58.8180  -33.5350    8.8150 N.3   238  THR238     -0.1203
    172  CA       -57.6480  -34.1570    8.2120 C.3   238  THR238      0.1994
    173  C        -57.8890  -34.7440    6.8330 C.2   238  THR238      0.2617
    174  O        -57.0320  -34.6300    5.9280 O.2   238  THR238     -0.2717
    175  CB       -57.2060  -35.3010    9.1030 C.3   238  THR238      0.1784
    176  OG1      -57.1840  -34.8310   10.4550 O.3   238  THR238     -0.2211
    177  CG2      -55.8410  -35.8200    8.6900 C.3   238  THR238      0.0376
    178  N        -59.0410  -35.4010    6.6860 N.am  239  MET239     -0.1979
    179  CA       -59.4240  -36.0050    5.4100 C.3   239  MET239      0.1605
    180  C        -59.6820  -34.9050    4.4130 C.2   239  MET239      0.2287
    181  O        -59.1500  -34.9440    3.3000 O.2   239  MET239     -0.2864
    182  CB       -60.6550  -36.9100    5.5400 C.3   239  MET239      0.0413
    183  CG       -60.3370  -38.3400    5.8960 C.3   239  MET239      0.0598
    184  SD       -59.2040  -39.0890    4.7180 S.3   239  MET239     -0.1393
    185  CE       -60.1460  -38.8690    3.2260 C.3   239  MET239      0.0692
    186  N        -56.5590  -33.2870    3.1580 N.3   242  VAL242     -0.1245
    187  CA       -55.8350  -34.0270    2.0870 C.3   242  VAL242      0.1561
    188  C        -56.4350  -33.7770    0.7030 C.2   242  VAL242      0.2260
    189  O        -55.7050  -33.4570   -0.2410 O.2   242  VAL242     -0.2867
    190  CB       -55.7600  -35.5560    2.3530 C.3   242  VAL242      0.0252
    191  CG1      -55.2060  -36.3150    1.1470 C.3   242  VAL242      0.0019
    192  CG2      -54.9130  -35.8680    3.5910 C.3   242  VAL242      0.0019
@<TRIPOS>BOND
     1   118   119    1
     2   103   104    1
     3   113   112    2
     4   112   111    1
     5   128   129    2
     6   128   127    1
     7   119   120    1
     8   119   122    1
     9   189   188    2
    10   106   105    2
    11   120   126   am
    12   120   121    2
    13   104   105    1
    14   104   107    1
    15   126   127    1
    16   105   110   am
    17   127   130    1
    18   110   111    1
    19   111   114    1
    20   188   187    1
    21   130   131    1
    22   122   123    1
    23   191   190    1
    24   109   107    1
    25   114   115    1
    26   107   108    1
    27   187   190    1
    28   187   186    1
    29   124   123    1
    30   123   125    1
    31   190   192    1
    32    38    37    2
    33   115   117   am
    34   115   116    2
    35   185   184    1
    36   181   180    2
    37    37    36    1
    38    48    50   ar
    39    48    46   ar
    40   180   179    1
    41    50    49   ar
    42    45    46    1
    43    45    42    1
    44   184   183    1
    45    72    71   ar
    46    72    70   ar
    47    46    47   ar
    48    71    69   ar
    49    36    35    1
    50    36    39    1
    51    40    39    1
    52   179   182    1
    53   179   178    1
    54   182   183    1
    55    70    68   ar
    56    49    47   ar
    57    41    42    1
    58    42    43    1
    59   174   173    2
    60   138   132    1
    61   138   137    1
    62    44    43    2
    63   154   152    1
    64   132   133    1
    65    69    67   ar
    66   142   141    2
    67    43    51   am
    68   178   173   am
    69   173   172    1
    70    68    67   ar
    71   137   136    1
    72   152   151    1
    73   152   153    1
    74    67    66    1
    75   141   140    1
    76   170   168    1
    77   151   148    1
    78   133   136    1
    79   133   134    1
    80   139   140    1
    81   139   134   am
    82    54    53    2
    83    51    52    1
    84   172   171    1
    85   172   175    1
    86   140   143    1
    87   134   135    2
    88   169   167    1
    89   177   175    1
    90    53    52    1
    91    53    62   am
    92    52    55    1
    93    66    63    1
    94   168   167    1
    95   149   148    1
    96   149   150    2
    97   148   147    1
    98   175   176    1
    99   145   143    1
   100   167   164    1
   101   143   144    1
   102   144   146    1
   103    62    63    1
   104    63    64    1
   105    55    56    1
   106    57    56   ar
   107    57    59   ar
   108    56    58   ar
   109    59    61   ar
   110    58    60   ar
   111    61    60   ar
   112    97    98    2
   113    97    96    1
   114    99   100    1
   115    99    96    1
   116   164   165    1
   117   164   163    1
   118   101   100    1
   119   101   102    1
   120   165   166    2
   121    64    65    2
   122    64    73   am
   123   163   157   am
   124    96    95    1
   125    73    74    1
   126   155   156    1
   127   157   156    1
   128   157   158    2
   129    95    90   am
   130   159   156    1
   131   159   160    1
   132   161   160    1
   133   161   162    1
   134    80    78   am
   135    91    90    2
   136    74    77    1
   137    74    75    1
   138    77    78    1
   139    78    79    2
   140    90    89    1
   141    75    76    2
   142    75    81   am
   143    84    83    2
   144    87    81    1
   145    87    86    1
   146    81    82    1
   147    83    82    1
   148    86    85    1
   149    89    88    1
   150    89    92    1
   151    82    85    1
   152    93    92    1
   153    92    94    1
   154    24    23    1
   155    25    23    1
   156     6     5    1
   157    23    22    1
   158    31    30    1
   159    31    32    1
   160     5     2    1
   161    22    19    1
   162    29    28    2
   163    30    27    1
   164    33    32    1
   165    33    34    1
   166    16    15    1
   167     2     3    1
   168     2     1    1
   169    19    18    1
   170    19    20    1
   171    28    27    1
   172     3     4    2
   173    21    20    2
   174    27    26    1
   175    13    12    1
   176    13    14    1
   177    18     9   am
   178    10     9    2
   179    15    14    2
   180    15    17    1
   181    12    11    1
   182    11     8    1
   183     9     8    1
   184     8     7    1
