@<TRIPOS>MOLECULE
tmp/4pzfA01.pdb
 94 91 0 0 0
SMALL
GASTEIGER

@<TRIPOS>ATOM
      1  N         -3.4810   34.1790  164.8850 N.3    12  ARG12      -0.1231
      2  CA        -3.8690   33.0600  164.0260 C.3    12  ARG12       0.1694
      3  C         -2.7970   31.9740  163.8630 C.2    12  ARG12       0.2592
      4  O         -3.1340   30.8130  163.6260 O.2    12  ARG12      -0.2718
      5  CB        -4.2780   33.5670  162.6390 C.3    12  ARG12       0.0321
      6  CG        -5.4650   34.5310  162.6240 C.3    12  ARG12       0.0489
      7  CD        -6.5700   34.1210  163.5990 C.3    12  ARG12       0.2205
      8  NE        -7.1560   32.8170  163.2950 N.pl3  12  ARG12      -0.0865
      9  CZ        -8.3450   32.6390  162.7280 C.cat  12  ARG12       0.5346
     10  NH1       -8.7950   31.4120  162.5010 N.pl3  12  ARG12       0.1354
     11  NH2       -9.0880   33.6840  162.3890 N.pl3  12  ARG12       0.1354
     12  N         -1.5180   32.3300  163.9730 N.am   13  ASN13      -0.1960
     13  CA        -0.4580   31.3430  163.7620 C.3    13  ASN13       0.1819
     14  C         -0.1610   30.5460  165.0310 C.2    13  ASN13       0.2621
     15  O          0.7040   30.9150  165.8290 O.2    13  ASN13      -0.2715
     16  CB         0.8230   32.0120  163.2450 C.3    13  ASN13       0.1195
     17  CG         1.7970   31.0120  162.6120 C.2    13  ASN13       0.2630
     18  OD1        1.9820   29.9030  163.1170 O.2    13  ASN13      -0.2716
     19  ND2        2.4120   31.4000  161.4950 N.am   13  ASN13      -0.0877
     20  N         -0.8810   29.4430  165.1970 N.am   14  HIS14      -0.1973
     21  CA        -0.7050   28.5590  166.3410 C.3    14  HIS14       0.1656
     22  C         -0.9590   27.1110  165.9320 C.2    14  HIS14       0.2291
     23  O         -1.7490   26.8470  165.0260 O.2    14  HIS14      -0.2864
     24  CB        -1.6430   28.9690  167.4760 C.3    14  HIS14       0.0771
     25  CG        -3.0720   29.1050  167.0510 C.ar   14  HIS14       0.0820
     26  ND1       -3.9590   28.0520  167.0720 N.ar   14  HIS14      -0.2267
     27  CD2       -3.7630   30.1690  166.5770 C.ar   14  HIS14       0.1154
     28  CE1       -5.1390   28.4620  166.6400 C.ar   14  HIS14       0.1986
     29  NE2       -5.0450   29.7430  166.3310 N.ar   14  HIS14      -0.2212
     30  N          7.5340   19.8840  163.6230 N.3    27  ARG27      -0.1231
     31  CA         8.5440   20.5770  162.8330 C.3    27  ARG27       0.1694
     32  C          8.9150   21.9150  163.4700 C.2    27  ARG27       0.2592
     33  O         10.0960   22.2290  163.6380 O.2    27  ARG27      -0.2718
     34  CB         8.0470   20.7900  161.4010 C.3    27  ARG27       0.0321
     35  CG         9.0790   21.3960  160.4650 C.3    27  ARG27       0.0489
     36  CD         8.6260   21.3140  159.0180 C.3    27  ARG27       0.2205
     37  NE         7.3000   21.8980  158.8350 N.pl3  27  ARG27      -0.0865
     38  CZ         7.0750   23.1810  158.5660 C.cat  27  ARG27       0.5346
     39  NH1        8.0890   24.0300  158.4420 N.pl3  27  ARG27       0.1354
     40  NH2        5.8310   23.6160  158.4220 N.pl3  27  ARG27       0.1354
     41  N          7.8970   22.6940  163.8270 N.am   28  PHE28      -0.1976
     42  CA         8.0990   23.9760  164.4950 C.3    28  PHE28       0.1639
     43  C          8.8140   23.7910  165.8250 C.2    28  PHE28       0.2290
     44  O          9.7090   24.5620  166.1730 O.2    28  PHE28      -0.2864
     45  CB         6.7610   24.6870  164.7170 C.3    28  PHE28       0.0560
     46  CG         6.1900   25.3050  163.4760 C.ar   28  PHE28      -0.0200
     47  CD1        7.0240   25.8150  162.4940 C.ar   28  PHE28      -0.0042
     48  CD2        4.8210   25.3820  163.2940 C.ar   28  PHE28      -0.0042
     49  CE1        6.5020   26.3900  161.3540 C.ar   28  PHE28      -0.0003
     50  CE2        4.2900   25.9550  162.1550 C.ar   28  PHE28      -0.0003
     51  CZ         5.1330   26.4580  161.1830 C.ar   28  PHE28      -0.0000
     52  N         12.4850   22.8700  165.0060 N.3    31  LEU31      -0.1245
     53  CA        13.1580   23.8100  164.1190 C.3    31  LEU31       0.1561
     54  C         14.2050   24.6540  164.8500 C.2    31  LEU31       0.2260
     55  O         15.2420   25.0030  164.2850 O.2    31  LEU31      -0.2867
     56  CB        12.1230   24.7150  163.4570 C.3    31  LEU31       0.0270
     57  CG        12.4140   25.2530  162.0570 C.3    31  LEU31       0.0019
     58  CD1       13.0320   24.1790  161.1840 C.3    31  LEU31       0.0001
     59  CD2       11.1210   25.7460  161.4520 C.3    31  LEU31       0.0001
     60  N          3.0080   31.4010  167.2820 N.3    51  LEU51      -0.1245
     61  CA         3.9280   32.3040  166.5990 C.3    51  LEU51       0.1561
     62  C          3.3070   33.6810  166.3850 C.2    51  LEU51       0.2260
     63  O          2.7800   33.9600  165.3070 O.2    51  LEU51      -0.2867
     64  CB         4.3560   31.7190  165.2480 C.3    51  LEU51       0.0270
     65  CG         5.4170   30.6120  165.1730 C.3    51  LEU51       0.0019
     66  CD1        4.9110   29.2830  165.7150 C.3    51  LEU51       0.0001
     67  CD2        5.9000   30.4560  163.7380 C.3    51  LEU51       0.0001
     68  N          9.9940   33.5360  166.1170 N.3    98  MET98      -0.1230
     69  CA        10.7260   33.5360  164.8470 C.3    98  MET98       0.1702
     70  C         10.1270   34.4780  163.8000 C.2    98  MET98       0.2592
     71  O         10.8340   34.9430  162.9050 O.2    98  MET98      -0.2718
     72  CB        10.8090   32.1170  164.2730 C.3    98  MET98       0.0401
     73  CG         9.4670   31.4420  164.0320 C.3    98  MET98       0.0596
     74  SD         9.6230   29.9380  163.0490 S.3    98  MET98      -0.1393
     75  CE        10.0800   30.6410  161.4700 C.3    98  MET98       0.0692
     76  N          8.8340   34.7640  163.9120 N.am   99  ASN99      -0.1974
     77  CA         8.1890   35.6810  162.9780 C.3    99  ASN99       0.1688
     78  C          8.3850   37.1340  163.3840 C.2    99  ASN99       0.2292
     79  O          7.9860   38.0470  162.6640 O.2    99  ASN99      -0.2864
     80  CB         6.6990   35.3680  162.8510 C.3    99  ASN99       0.1181
     81  CG         6.4440   34.1300  162.0200 C.2    99  ASN99       0.2629
     82  OD1        7.3430   33.6350  161.3420 O.2    99  ASN99      -0.2716
     83  ND2        5.2180   33.6230  162.0640 N.am   99  ASN99      -0.0877
     84  N         18.2330   29.0590  160.1890 N.3   323  PHE323     -0.1241
     85  CA        18.0570   27.6150  160.3300 C.3   323  PHE323      0.1605
     86  C         19.2660   26.8240  159.8450 C.2   323  PHE323      0.2264
     87  O         19.2070   25.6010  159.7270 O.2   323  PHE323     -0.2867
     88  CB        16.8050   27.1530  159.5820 C.3   323  PHE323      0.0534
     89  CG        15.5470   27.8270  160.0410 C.ar  323  PHE323     -0.0203
     90  CD1       15.1320   27.7230  161.3590 C.ar  323  PHE323     -0.0042
     91  CD2       14.7780   28.5620  159.1570 C.ar  323  PHE323     -0.0042
     92  CE1       13.9770   28.3470  161.7880 C.ar  323  PHE323     -0.0003
     93  CE2       13.6190   29.1860  159.5780 C.ar  323  PHE323     -0.0003
     94  CZ        13.2180   29.0770  160.8950 C.ar  323  PHE323     -0.0000
@<TRIPOS>BOND
     1    40    38    1
     2    39    38    1
     3    38    37    2
     4    37    36    1
     5    36    35    1
     6    91    93   ar
     7    91    89   ar
     8    93    94   ar
     9    88    89    1
    10    88    85    1
    11    87    86    2
    12    86    85    1
    13    89    90   ar
    14    84    85    1
    15    35    34    1
    16    94    92   ar
    17    51    49   ar
    18    51    50   ar
    19    58    57    1
    20    82    81    2
    21    49    47   ar
    22    90    92   ar
    23    34    31    1
    24    59    57    1
    25    75    74    1
    26    19    17   am
    27    81    83   am
    28    81    80    1
    29    57    56    1
    30    50    48   ar
    31    11     9    1
    32    47    46   ar
    33    10     9    1
    34    17    18    2
    35    17    16    1
    36     6     5    1
    37     6     7    1
    38     5     2    1
    39    79    78    2
    40     9     8    2
    41    31    32    1
    42    31    30    1
    43    80    77    1
    44    71    70    2
    45    77    78    1
    46    77    76    1
    47    74    73    1
    48    16    13    1
    49    48    46   ar
    50     8     7    1
    51    56    53    1
    52    32    33    2
    53    32    41   am
    54    46    45    1
    55     4     3    2
    56    67    65    1
    57    13    12    1
    58    13    14    1
    59    70    76   am
    60    70    69    1
    61    41    42    1
    62     3    12   am
    63     3     2    1
    64     2     1    1
    65    73    72    1
    66    53    54    1
    67    53    52    1
    68    72    69    1
    69    55    54    2
    70    42    45    1
    71    42    43    1
    72    69    68    1
    73    23    22    2
    74    14    20   am
    75    14    15    2
    76    65    64    1
    77    65    66    1
    78    20    21    1
    79    64    61    1
    80    63    62    2
    81    43    44    2
    82    22    21    1
    83    29    27   ar
    84    29    28   ar
    85    21    24    1
    86    62    61    1
    87    27    25   ar
    88    61    60    1
    89    28    26   ar
    90    25    26   ar
    91    25    24    1
