@<TRIPOS>MOLECULE
tmp/4pzfD03.pdb
 104 97 0 0 0
SMALL
GASTEIGER

@<TRIPOS>ATOM
      1  N          3.7140   44.2270  225.5490 N.3    55  LYS55      -0.1245
      2  CA         3.8170   44.1500  224.0960 C.3    55  LYS55       0.1561
      3  C          2.4310   44.2770  223.4610 C.2    55  LYS55       0.2260
      4  O          2.2930   44.7830  222.3480 O.2    55  LYS55      -0.2867
      5  CB         4.5010   42.8490  223.6570 C.3    55  LYS55       0.0271
      6  CG         3.7540   41.5680  224.0030 C.3    55  LYS55       0.0035
      7  CD         4.5310   40.3460  223.5210 C.3    55  LYS55       0.0206
      8  CE         3.7210   39.0640  223.6520 C.3    55  LYS55       0.1093
      9  NZ         3.4340   38.7270  225.0730 N.3    55  LYS55      -0.1314
     10  N         12.2690   45.2280  231.3040 N.3   102  ARG102     -0.1245
     11  CA        12.4830   43.9730  232.0090 C.3   102  ARG102      0.1563
     12  C         13.5160   43.0990  231.3130 C.2   102  ARG102      0.2260
     13  O         13.5000   42.9570  230.0900 O.2   102  ARG102     -0.2867
     14  CB        11.1730   43.2010  232.1380 C.3   102  ARG102      0.0307
     15  CG        10.1370   43.8840  233.0020 C.3   102  ARG102      0.0489
     16  CD         8.7910   43.2030  232.8530 C.3   102  ARG102      0.2205
     17  NE         7.6820   44.0770  233.2220 N.pl3 102  ARG102     -0.0865
     18  CZ         7.2090   45.0470  232.4460 C.cat 102  ARG102      0.5346
     19  NH1        7.7590   45.2770  231.2620 N.pl3 102  ARG102      0.1354
     20  NH2        6.1940   45.7950  232.8560 N.pl3 102  ARG102      0.1354
     21  N         15.0920   39.1780  231.3240 N.3   104  SER104     -0.1217
     22  CA        14.8990   37.8070  231.7780 C.3   104  SER104      0.1889
     23  C         16.0370   36.9180  231.2880 C.2   104  SER104      0.2288
     24  O         16.1300   36.6160  230.0990 O.2   104  SER104     -0.2866
     25  CB        13.5540   37.2710  231.2870 C.3   104  SER104      0.2089
     26  OG        12.5100   38.1840  231.5900 O.3   104  SER104     -0.2183
     27  N         16.2430   37.7050  227.4020 N.3   113  TRP113     -0.1241
     28  CA        15.2510   38.5460  226.7460 C.3   113  TRP113      0.1605
     29  C         15.2950   39.9420  227.3530 C.2   113  TRP113      0.2264
     30  O         15.2080   40.1020  228.5720 O.2   113  TRP113     -0.2867
     31  CB        13.8500   37.9500  226.8720 C.3   113  TRP113      0.0550
     32  CG        13.5480   36.9090  225.8400 C.ar  113  TRP113      0.0003
     33  CD1       13.5760   35.5560  226.0080 C.ar  113  TRP113      0.0946
     34  CD2       13.1740   37.1360  224.4760 C.ar  113  TRP113      0.0152
     35  NE1       13.2430   34.9250  224.8330 N.ar  113  TRP113     -0.2442
     36  CE2       12.9910   35.8740  223.8770 C.ar  113  TRP113      0.0810
     37  CE3       12.9760   38.2850  223.7030 C.ar  113  TRP113      0.0012
     38  CZ2       12.6170   35.7290  222.5410 C.ar  113  TRP113      0.0191
     39  CZ3       12.6080   38.1380  222.3780 C.ar  113  TRP113      0.0001
     40  CH2       12.4300   36.8710  221.8110 C.ar  113  TRP113      0.0015
     41  N         13.6050   43.7220  227.1290 N.3   115  GLU115     -0.1245
     42  CA        12.5960   44.6480  226.6290 C.3   115  GLU115      0.1567
     43  C         13.2830   45.9270  226.1650 C.2   115  GLU115      0.2260
     44  O         14.2640   46.3630  226.7600 O.2   115  GLU115     -0.2867
     45  CB        11.5410   44.9300  227.6980 C.3   115  GLU115      0.0388
     46  CG        10.6780   43.7210  228.0220 C.3   115  GLU115      0.1160
     47  CD         9.5480   44.0380  228.9770 C.2   115  GLU115      0.3649
     48  OE1        9.6350   45.0580  229.6880 O.co2 115  GLU115     -0.2457
     49  OE2        8.5680   43.2640  229.0170 O.co2 115  GLU115     -0.2457
     50  N         11.2480   40.3280  219.3030 N.3   173  ILE173     -0.1245
     51  CA         9.8310   40.5630  219.0850 C.3   173  ILE173      0.1561
     52  C          9.6650   41.9030  218.3860 C.2   173  ILE173      0.2260
     53  O          9.9980   42.9490  218.9400 O.2   173  ILE173     -0.2867
     54  CB         9.0320   40.5500  220.3930 C.3   173  ILE173      0.0252
     55  CG1        9.2500   39.2270  221.1290 C.3   173  ILE173      0.0019
     56  CG2        7.5530   40.7560  220.1050 C.3   173  ILE173      0.0019
     57  CD1        8.9430   38.0160  220.2850 C.3   173  ILE173      0.0001
     58  N          2.2550   41.0030  216.2660 N.3   181  ILE181     -0.1245
     59  CA         3.3780   40.7020  217.1410 C.3   181  ILE181      0.1561
     60  C          4.1910   39.5480  216.5630 C.2   181  ILE181      0.2260
     61  O          3.7430   38.4030  216.5680 O.2   181  ILE181     -0.2867
     62  CB         2.8920   40.3530  218.5590 C.3   181  ILE181      0.0252
     63  CG1        2.0590   41.5060  219.1200 C.3   181  ILE181      0.0019
     64  CG2        4.0670   40.0390  219.4680 C.3   181  ILE181      0.0019
     65  CD1        1.4100   41.2100  220.4540 C.3   181  ILE181      0.0001
     66  N          7.8610   37.2560  215.9600 N.3   183  ASP183     -0.1239
     67  CA         9.2100   36.8500  216.3440 C.3   183  ASP183      0.1674
     68  C         10.0390   36.6090  215.0870 C.2   183  ASP183      0.2266
     69  O          9.5820   36.8960  213.9830 O.2   183  ASP183     -0.2867
     70  CB         9.1950   35.6050  217.2410 C.3   183  ASP183      0.1410
     71  CG         8.5710   34.3890  216.5690 C.2   183  ASP183      0.3668
     72  OD1        8.1990   34.4550  215.3750 O.co2 183  ASP183     -0.2456
     73  OD2        8.4650   33.3510  217.2510 O.co2 183  ASP183     -0.2456
     74  N         10.8930   33.8530  213.5100 N.3   185  GLN185     -0.1231
     75  CA        10.2020   32.9350  212.6100 C.3   185  GLN185      0.1698
     76  C          9.1200   33.6500  211.8060 C.2   185  GLN185      0.2592
     77  O          9.0120   33.4770  210.5910 O.2   185  GLN185     -0.2718
     78  CB         9.5850   31.7750  213.3960 C.3   185  GLN185      0.0381
     79  CG         8.9050   30.7330  212.5200 C.3   185  GLN185      0.0905
     80  CD         8.4860   29.4930  213.2920 C.2   185  GLN185      0.2608
     81  OE1        8.2630   29.5440  214.5020 O.2   185  GLN185     -0.2717
     82  NE2        8.3840   28.3690  212.5920 N.am  185  GLN185     -0.0878
     83  N          8.3340   34.4670  212.4970 N.am  186  ALA186     -0.1980
     84  CA         7.1960   35.1430  211.8870 C.3   186  ALA186      0.1597
     85  C          7.5990   36.2620  210.9290 C.2   186  ALA186      0.2287
     86  O          6.9920   36.4250  209.8700 O.2   186  ALA186     -0.2864
     87  CB         6.2810   35.6920  212.9660 C.3   186  ALA186      0.0319
     88  N          9.8110   45.2130  220.5140 N.3   207  TYR207     -0.1227
     89  CA         9.3520   45.0620  221.8860 C.3   207  TYR207      0.1736
     90  C         10.4900   44.5430  222.7550 C.2   207  TYR207      0.2595
     91  O         10.7150   45.0430  223.8550 O.2   207  TYR207     -0.2718
     92  CB         8.1440   44.1210  221.9830 C.3   207  TYR207      0.0548
     93  CG         7.9900   43.5370  223.3710 C.ar  207  TYR207     -0.0200
     94  CD1        7.6570   44.3460  224.4530 C.ar  207  TYR207     -0.0009
     95  CD2        8.2080   42.1860  223.6060 C.ar  207  TYR207     -0.0009
     96  CE1        7.5360   43.8200  225.7290 C.ar  207  TYR207      0.0417
     97  CE2        8.0910   41.6530  224.8770 C.ar  207  TYR207      0.0417
     98  CZ         7.7550   42.4720  225.9330 C.ar  207  TYR207      0.1957
     99  OH         7.6380   41.9380  227.1970 O.3   207  TYR207     -0.2866
    100  N         11.2110   43.5450  222.2550 N.am  208  ALA208     -0.1980
    101  CA        12.2830   42.9290  223.0250 C.3   208  ALA208      0.1597
    102  C         13.3510   42.2900  222.1400 C.2   208  ALA208      0.2287
    103  O         13.0620   41.8050  221.0450 O.2   208  ALA208     -0.2864
    104  CB        11.7120   41.8900  223.9780 C.3   208  ALA208      0.0319
@<TRIPOS>BOND
     1    86    85    2
     2    77    76    2
     3    85    84    1
     4    76    83   am
     5    76    75    1
     6    84    83    1
     7    84    87    1
     8    79    80    1
     9    79    78    1
    10    82    80   am
    11    75    78    1
    12    75    74    1
    13    80    81    2
    14    69    68    2
    15    68    67    1
    16    72    71   ar
    17    66    67    1
    18    58    59    1
    19    67    70    1
    20    60    61    2
    21    60    59    1
    22    71    70    1
    23    71    73   ar
    24    59    62    1
    25    52    53    2
    26    52    51    1
    27    62    63    1
    28    62    64    1
    29    51    50    1
    30    51    54    1
    31    63    65    1
    32    56    54    1
    33    57    55    1
    34    54    55    1
    35    88    89    1
    36   103   102    2
    37    40    39   ar
    38    40    38   ar
    39    89    92    1
    40    89    90    1
    41    92    93    1
    42   102   101    1
    43   100    90   am
    44   100   101    1
    45     4     3    2
    46    39    37   ar
    47    38    36   ar
    48    90    91    2
    49   101   104    1
    50    93    95   ar
    51    93    94   ar
    52     3     2    1
    53     7     8    1
    54     7     6    1
    55    95    97   ar
    56     8     9    1
    57     5     6    1
    58     5     2    1
    59    37    34   ar
    60    36    34   ar
    61    36    35   ar
    62     2     1    1
    63    94    96   ar
    64    34    32   ar
    65    35    33   ar
    66    97    98   ar
    67    96    98   ar
    68    32    33   ar
    69    32    31    1
    70    98    99    1
    71    43    42    1
    72    43    44    2
    73    42    41    1
    74    42    45    1
    75    28    31    1
    76    28    29    1
    77    28    27    1
    78    29    30    2
    79    45    46    1
    80    46    47    1
    81    47    49   ar
    82    47    48   ar
    83    13    12    2
    84    24    23    2
    85    19    18    1
    86    25    26    1
    87    25    22    1
    88    23    22    1
    89    10    11    1
    90    12    11    1
    91    21    22    1
    92    11    14    1
    93    14    15    1
    94    18    20    1
    95    18    17    2
    96    16    15    1
    97    16    17    1
