@<TRIPOS>MOLECULE
tmp/4pzfA02.pdb
 112 106 0 0 0
SMALL
GASTEIGER

@<TRIPOS>ATOM
      1  N          3.7730   42.8250  168.1480 N.3    55  LYS55      -0.1245
      2  CA         3.9000   43.0250  169.5860 C.3    55  LYS55       0.1561
      3  C          2.5330   42.9530  170.2690 C.2    55  LYS55       0.2260
      4  O          2.4270   42.4990  171.4080 O.2    55  LYS55      -0.2867
      5  CB         4.5950   44.3550  169.8960 C.3    55  LYS55       0.0271
      6  CG         3.8270   45.6100  169.5100 C.3    55  LYS55       0.0035
      7  CD         4.6600   46.8530  169.8100 C.3    55  LYS55       0.0206
      8  CE         3.8620   48.1340  169.6260 C.3    55  LYS55       0.1093
      9  NZ         3.4460   48.3350  168.2130 N.3    55  LYS55      -0.1314
     10  N         12.2470   41.4440  162.4630 N.3   102  ARG102     -0.1245
     11  CA        12.4650   42.6390  161.6590 C.3   102  ARG102      0.1563
     12  C         13.5190   43.5340  162.2880 C.2   102  ARG102      0.2260
     13  O         13.5290   43.7320  163.5010 O.2   102  ARG102     -0.2867
     14  CB        11.1690   43.4270  161.4920 C.3   102  ARG102      0.0307
     15  CG        10.0810   42.6990  160.7340 C.3   102  ARG102      0.0489
     16  CD         8.7640   43.4450  160.8620 C.3   102  ARG102      0.2205
     17  NE         7.6320   42.6460  160.4030 N.pl3 102  ARG102     -0.0865
     18  CZ         7.1190   41.6210  161.0770 C.cat 102  ARG102      0.5346
     19  NH1        7.6450   41.2550  162.2390 N.pl3 102  ARG102      0.1354
     20  NH2        6.0850   40.9510  160.5830 N.pl3 102  ARG102      0.1354
     21  N         14.9970   47.4190  162.0670 N.3   104  SER104     -0.1217
     22  CA        14.8690   48.7710  161.5400 C.3   104  SER104      0.1889
     23  C         16.0980   49.5780  161.9250 C.2   104  SER104      0.2288
     24  O         16.3920   49.7310  163.1090 O.2   104  SER104     -0.2866
     25  CB        13.6030   49.4490  162.0660 C.3   104  SER104      0.2089
     26  OG        12.5010   48.5590  162.0540 O.3   104  SER104     -0.2183
     27  N         16.2570   49.3310  165.8600 N.3   113  TRP113     -0.1241
     28  CA        15.2510   48.5640  166.5770 C.3   113  TRP113      0.1605
     29  C         15.3000   47.1220  166.0980 C.2   113  TRP113      0.2264
     30  O         15.2420   46.8550  164.8980 O.2   113  TRP113     -0.2867
     31  CB        13.8560   49.1550  166.3850 C.3   113  TRP113      0.0550
     32  CG        13.5490   50.2570  167.3490 C.ar  113  TRP113      0.0003
     33  CD1       13.5670   51.5970  167.0950 C.ar  113  TRP113      0.0946
     34  CD2       13.1910   50.1150  168.7300 C.ar  113  TRP113      0.0152
     35  NE1       13.2390   52.2980  168.2300 N.ar  113  TRP113     -0.2442
     36  CE2       13.0040   51.4120  169.2480 C.ar  113  TRP113      0.0810
     37  CE3       13.0120   49.0170  169.5780 C.ar  113  TRP113      0.0012
     38  CZ2       12.6430   51.6410  170.5750 C.ar  113  TRP113      0.0191
     39  CZ3       12.6540   49.2470  170.8970 C.ar  113  TRP113      0.0001
     40  CH2       12.4700   50.5490  171.3810 C.ar  113  TRP113      0.0015
     41  N         13.6560   43.3570  166.6150 N.3   115  GLU115     -0.1245
     42  CA        12.6450   42.4570  167.1590 C.3   115  GLU115      0.1567
     43  C         13.3320   41.2310  167.7500 C.2   115  GLU115      0.2260
     44  O         14.3270   40.7500  167.2120 O.2   115  GLU115     -0.2867
     45  CB        11.6280   42.0640  166.0860 C.3   115  GLU115      0.0388
     46  CG        10.6990   43.2030  165.6920 C.3   115  GLU115      0.1160
     47  CD         9.6070   42.7840  164.7220 C.2   115  GLU115      0.3649
     48  OE1        9.7840   41.7640  164.0250 O.co2 115  GLU115     -0.2457
     49  OE2        8.5720   43.4810  164.6620 O.co2 115  GLU115     -0.2457
     50  N         11.3450   47.3360  174.2020 N.3   173  ILE173     -0.1245
     51  CA         9.9220   47.1300  174.4090 C.3   173  ILE173      0.1561
     52  C          9.7160   45.8580  175.2210 C.2   173  ILE173      0.2260
     53  O         10.0340   44.7580  174.7690 O.2   173  ILE173     -0.2867
     54  CB         9.1490   47.0430  173.0810 C.3   173  ILE173      0.0252
     55  CG1        9.3530   48.3230  172.2720 C.3   173  ILE173      0.0019
     56  CG2        7.6620   46.8020  173.3400 C.3   173  ILE173      0.0019
     57  CD1        9.0220   49.5850  173.0410 C.3   173  ILE173      0.0001
     58  N          2.2930   46.9490  177.2450 N.3   181  ILE181     -0.1231
     59  CA         3.4240   47.1750  176.3520 C.3   181  ILE181      0.1692
     60  C          4.2460   48.3650  176.8320 C.2   181  ILE181      0.2592
     61  O          3.7800   49.5030  176.8010 O.2   181  ILE181     -0.2718
     62  CB         2.9480   47.4100  174.9110 C.3   181  ILE181      0.0266
     63  CG1        2.1420   46.1980  174.4360 C.3   181  ILE181      0.0019
     64  CG2        4.1310   47.6690  173.9940 C.3   181  ILE181      0.0020
     65  CD1        1.5220   46.3560  173.0680 C.3   181  ILE181      0.0001
     66  N          5.4730   48.0960  177.2700 N.am  182  LEU182     -0.1966
     67  CA         6.2720   49.0950  177.9770 C.3   182  LEU182      0.1728
     68  C          7.5980   49.4010  177.2850 C.2   182  LEU182      0.2616
     69  O          8.2980   48.4890  176.8460 O.2   182  LEU182     -0.2715
     70  CB         6.5510   48.6210  179.4080 C.3   182  LEU182      0.0311
     71  CG         5.3510   48.1350  180.2310 C.3   182  LEU182      0.0022
     72  CD1        5.8080   47.2790  181.4000 C.3   182  LEU182      0.0001
     73  CD2        4.5170   49.3080  180.7320 C.3   182  LEU182      0.0001
     74  N          7.9460   50.6820  177.1910 N.am  183  ASP183     -0.1971
     75  CA         9.2980   51.0580  176.7890 C.3   183  ASP183      0.1709
     76  C         10.1110   51.4090  178.0300 C.2   183  ASP183      0.2293
     77  O          9.6370   51.2230  179.1510 O.2   183  ASP183     -0.2864
     78  CB         9.2930   52.2250  175.7910 C.3   183  ASP183      0.1436
     79  CG         8.6280   53.4810  176.3380 C.2   183  ASP183      0.3671
     80  OD1        8.2400   53.5110  177.5240 O.co2 183  ASP183     -0.2456
     81  OD2        8.5040   54.4500  175.5620 O.co2 183  ASP183     -0.2456
     82  N         10.9820   54.2690  179.3630 N.3   185  GLN185     -0.1231
     83  CA        10.3000   55.2750  180.1680 C.3   185  GLN185      0.1698
     84  C          9.2020   54.6540  181.0300 C.2   185  GLN185      0.2592
     85  O          9.0790   54.9590  182.2180 O.2   185  GLN185     -0.2718
     86  CB         9.7080   56.3600  179.2630 C.3   185  GLN185      0.0381
     87  CG         9.0990   57.5400  180.0020 C.3   185  GLN185      0.0905
     88  CD         8.5440   58.5930  179.0560 C.2   185  GLN185      0.2608
     89  OE1        8.0130   58.2720  177.9920 O.2   185  GLN185     -0.2717
     90  NE2        8.6750   59.8590  179.4370 N.am  185  GLN185     -0.0878
     91  N          8.4110   53.7760  180.4230 N.am  186  ALA186     -0.1980
     92  CA         7.2810   53.1570  181.1080 C.3   186  ALA186      0.1597
     93  C          7.6930   52.0990  182.1300 C.2   186  ALA186      0.2287
     94  O          7.0640   51.9720  183.1780 O.2   186  ALA186     -0.2864
     95  CB         6.3350   52.5480  180.0960 C.3   186  ALA186      0.0319
     96  N          9.8630   42.4040  173.3520 N.3   207  TYR207     -0.1227
     97  CA         9.4060   42.4400  171.9690 C.3   207  TYR207      0.1736
     98  C         10.5410   42.9000  171.0640 C.2   207  TYR207      0.2595
     99  O         10.7820   42.3060  170.0140 O.2   207  TYR207     -0.2718
    100  CB         8.1940   43.3580  171.7860 C.3   207  TYR207      0.0548
    101  CG         8.0470   43.8170  170.3500 C.ar  207  TYR207     -0.0200
    102  CD1        7.7230   42.9160  169.3420 C.ar  207  TYR207     -0.0009
    103  CD2        8.2630   45.1440  169.9990 C.ar  207  TYR207     -0.0009
    104  CE1        7.6070   43.3250  168.0280 C.ar  207  TYR207      0.0417
    105  CE2        8.1510   45.5620  168.6870 C.ar  207  TYR207      0.0417
    106  CZ         7.8220   44.6490  167.7070 C.ar  207  TYR207      0.1957
    107  OH         7.7110   45.0620  166.4000 O.3   207  TYR207     -0.2866
    108  N         11.2380   43.9560  171.4730 N.am  208  ALA208     -0.1980
    109  CA        12.3120   44.5090  170.6570 C.3   208  ALA208      0.1597
    110  C         13.4010   45.1910  171.4810 C.2   208  ALA208      0.2287
    111  O         13.1460   45.7060  172.5690 O.2   208  ALA208     -0.2864
    112  CB        11.7420   45.4890  169.6400 C.3   208  ALA208      0.0319
@<TRIPOS>BOND
     1    17    16    1
     2    17    18    2
     3    20    18    1
     4    15    16    1
     5    15    14    1
     6    18    19    1
     7    14    11    1
     8    22    23    1
     9    22    25    1
    10    22    21    1
    11    11    12    1
    12    11    10    1
    13    23    24    2
    14    26    25    1
    15    12    13    2
    16    48    47   ar
    17    49    47   ar
    18    47    46    1
    19    30    29    2
    20    46    45    1
    21    27    28    1
    22    45    42    1
    23    29    28    1
    24    31    28    1
    25    31    32    1
    26   107   106    1
    27    41    42    1
    28    33    32   ar
    29    33    35   ar
    30    42    43    1
    31    44    43    2
    32    32    34   ar
    33   106   104   ar
    34   106   105   ar
    35   104   102   ar
    36     1     2    1
    37     9     8    1
    38    35    36   ar
    39   105   103   ar
    40    34    36   ar
    41    34    37   ar
    42    36    38   ar
    43   102   101   ar
    44     6     7    1
    45     6     5    1
    46    37    39   ar
    47     2     5    1
    48     2     3    1
    49     8     7    1
    50   112   109    1
    51   103   101   ar
    52    99    98    2
    53     3     4    2
    54   101   100    1
    55    38    40   ar
    56   109   108    1
    57   109   110    1
    58    39    40   ar
    59    98   108   am
    60    98    97    1
    61   110   111    2
    62   100    97    1
    63    97    96    1
    64    55    57    1
    65    55    54    1
    66    65    63    1
    67    54    56    1
    68    54    51    1
    69    64    62    1
    70    50    51    1
    71    51    52    1
    72    63    62    1
    73    53    52    2
    74    62    59    1
    75    81    79   ar
    76    78    79    1
    77    78    75    1
    78    79    80   ar
    79    59    60    1
    80    59    58    1
    81    75    74    1
    82    75    76    1
    83    61    60    2
    84    60    66   am
    85    69    68    2
    86    74    68   am
    87    66    67    1
    88    68    67    1
    89    67    70    1
    90    89    88    2
    91    76    77    2
    92    88    90   am
    93    88    87    1
    94    86    87    1
    95    86    83    1
    96    82    83    1
    97    70    71    1
    98    95    92    1
    99    83    84    1
   100    71    73    1
   101    71    72    1
   102    91    84   am
   103    91    92    1
   104    84    85    2
   105    92    93    1
   106    93    94    2
