@<TRIPOS>MOLECULE
tmp/4pzhA01.pdb
 168 164 0 0 0
SMALL
GASTEIGER

@<TRIPOS>ATOM
      1  N         29.6680    1.3450   10.5540 N.3     3  TRP3       -0.1241
      2  CA        28.9320    0.3630   11.3270 C.3     3  TRP3        0.1605
      3  C         27.9050   -0.4080   10.5160 C.2     3  TRP3        0.2264
      4  O         27.4130    0.0460    9.4890 O.2     3  TRP3       -0.2867
      5  CB        28.2720    1.0690   12.5120 C.3     3  TRP3        0.0550
      6  CG        27.0670    1.9070   12.1090 C.ar    3  TRP3        0.0003
      7  CD1       27.0030    3.2540   11.7950 C.ar    3  TRP3        0.0946
      8  CD2       25.6930    1.4230   12.0090 C.ar    3  TRP3        0.0152
      9  NE1       25.7530    3.6500   11.5460 N.ar    3  TRP3       -0.2442
     10  CE2       24.8970    2.5650   11.6590 C.ar    3  TRP3        0.0810
     11  CE3       25.0730    0.2080   12.2560 C.ar    3  TRP3        0.0012
     12  CZ2       23.4960    2.4660   11.5280 C.ar    3  TRP3        0.0191
     13  CZ3       23.6710    0.1130   12.0670 C.ar    3  TRP3        0.0001
     14  CH2       22.9480    1.2370   11.7170 C.ar    3  TRP3        0.0015
     15  N         17.6380    2.2760    3.5970 N.3    60  ASN60      -0.1240
     16  CA        18.7070    3.1190    4.0480 C.3    60  ASN60       0.1653
     17  C         19.9700    2.3680    4.2570 C.2    60  ASN60       0.2266
     18  O         20.9820    2.8580    4.8330 O.2    60  ASN60      -0.2867
     19  CB        18.3460    3.9170    5.3380 C.3    60  ASN60       0.1155
     20  CG        18.2150    3.0150    6.5180 C.2    60  ASN60       0.2627
     21  OD1       18.5280    1.8190    6.5250 O.2    60  ASN60      -0.2716
     22  ND2       17.9020    3.6390    7.6230 N.am   60  ASN60      -0.0877
     23  N         20.3500   -0.2360    6.2310 N.3    62  HIS62      -0.1297
     24  CA        20.2780   -0.9550    7.5700 C.3    62  HIS62       0.1306
     25  C         18.8650   -1.5300    7.7370 C.3    62  HIS62       0.2013
     26  O         18.8380   -2.5780    8.4810 O.3    62  HIS62      -0.2188
     27  CB        20.5830    0.0090    8.7290 C.3    62  HIS62       0.0691
     28  CG        21.8910    0.7640    8.5610 C.ar   62  HIS62       0.0814
     29  ND1       23.1360    0.1210    8.5760 N.ar   62  HIS62      -0.2268
     30  CD2       22.1300    2.0760    8.3220 C.ar   62  HIS62       0.1154
     31  CE1       24.1400    1.0310    8.4390 C.ar   62  HIS62       0.1986
     32  NE2       23.5410    2.2430    8.2680 N.ar   62  HIS62      -0.2212
     33  N          8.4540    8.0110   11.1330 N.3    90  GLN90      -0.1245
     34  CA         8.7150    6.8610   10.2890 C.3    90  GLN90       0.1566
     35  C          8.4750    5.6240   11.0580 C.2    90  GLN90       0.2260
     36  O          8.4250    5.6430   12.2970 O.2    90  GLN90      -0.2867
     37  CB        10.1520    6.8680    9.7630 C.3    90  GLN90       0.0367
     38  CG        11.2430    6.9930   10.8590 C.3    90  GLN90       0.0905
     39  CD        12.0060    5.7320   11.1010 C.2    90  GLN90       0.2608
     40  OE1       11.4950    4.6200   11.1030 O.2    90  GLN90      -0.2717
     41  NE2       13.2570    5.9120   11.4100 N.am   90  GLN90      -0.0878
     42  N          9.9780    1.3760   10.8350 N.3    92  HIS92      -0.1241
     43  CA        10.8910    0.4010   10.2410 C.3    92  HIS92       0.1621
     44  C         10.8280   -0.8540   11.0710 C.2    92  HIS92       0.2264
     45  O         10.1950   -0.9000   12.1240 O.2    92  HIS92      -0.2867
     46  CB        12.3300    0.9290   10.1530 C.3    92  HIS92       0.0745
     47  CG        12.8790    1.2030   11.5220 C.ar   92  HIS92       0.0817
     48  ND1       12.6740    2.3930   12.1830 N.ar   92  HIS92      -0.2268
     49  CD2       13.5010    0.3840   12.4050 C.ar   92  HIS92       0.1154
     50  CE1       13.1620    2.2880   13.3940 C.ar   92  HIS92       0.1986
     51  NE2       13.7000    1.0780   13.5940 N.ar   92  HIS92      -0.2212
     52  N         13.1600   -4.5660   12.3630 N.3    94  HIS94      -0.1241
     53  CA        14.3620   -5.3810   12.5390 C.3    94  HIS94       0.1621
     54  C         13.9390   -6.8210   12.4180 C.2    94  HIS94       0.2264
     55  O         12.8610   -7.1780   12.9250 O.2    94  HIS94      -0.2867
     56  CB        15.0200   -5.1390   13.9110 C.3    94  HIS94       0.0745
     57  CG        15.3190   -3.7020   14.1580 C.ar   94  HIS94       0.0817
     58  ND1       16.5380   -3.1460   13.9980 N.ar   94  HIS94      -0.2268
     59  CD2       14.5110   -2.6480   14.5440 C.ar   94  HIS94       0.1154
     60  CE1       16.4670   -1.8380   14.2750 C.ar   94  HIS94       0.1986
     61  NE2       15.2280   -1.5020   14.6140 N.ar   94  HIS94      -0.2212
     62  N          9.1800   -0.8300   14.7570 N.3   117  HIS117     -0.1241
     63  CA         9.4210    0.3920   15.5190 C.3   117  HIS117      0.1621
     64  C          8.7110    1.5420   14.8380 C.2   117  HIS117      0.2264
     65  O          9.0880    1.9330   13.7250 O.2   117  HIS117     -0.2867
     66  CB        10.9010    0.7000   15.6060 C.3   117  HIS117      0.0745
     67  CG        11.6300   -0.2550   16.4750 C.ar  117  HIS117      0.0817
     68  ND1       13.0050   -0.4480   16.4390 N.ar  117  HIS117     -0.2268
     69  CD2       11.1260   -1.0850   17.4250 C.ar  117  HIS117      0.1154
     70  CE1       13.2590   -1.3920   17.3490 C.ar  117  HIS117      0.1986
     71  NE2       12.1560   -1.7760   17.9660 N.ar  117  HIS117     -0.2212
     72  N          8.3040    5.3480   15.1260 N.3   119  VAL119     -0.1245
     73  CA         9.1770    6.3550   15.7420 C.3   119  VAL119      0.1561
     74  C          8.4970    7.7070   15.7800 C.2   119  VAL119      0.2260
     75  O          8.0290    8.1960   14.7360 O.2   119  VAL119     -0.2867
     76  CB        10.4690    6.4570   14.9140 C.3   119  VAL119      0.0252
     77  CG1       11.4250    7.4740   15.5230 C.3   119  VAL119      0.0019
     78  CG2       11.1210    5.0610   14.7290 C.3   119  VAL119      0.0019
     79  N         12.8020   16.5150   14.6560 N.3   128  PHE128     -0.1241
     80  CA        13.3990   15.2290   15.0730 C.3   128  PHE128      0.1605
     81  C         14.8700   15.4330   15.4740 C.2   128  PHE128      0.2264
     82  O         15.3290   14.8410   16.4460 O.2   128  PHE128     -0.2867
     83  CB        13.3020   14.2700   13.9000 C.3   128  PHE128      0.0534
     84  CG        13.8640   12.9460   14.1730 C.ar  128  PHE128     -0.0203
     85  CD1       13.1810   11.9460   14.8260 C.ar  128  PHE128     -0.0042
     86  CD2       15.1610   12.6600   13.8150 C.ar  128  PHE128     -0.0042
     87  CE1       13.7670   10.7520   15.0970 C.ar  128  PHE128     -0.0003
     88  CE2       15.7310   11.4290   14.0490 C.ar  128  PHE128     -0.0003
     89  CZ        14.9830   10.4670   14.7100 C.ar  128  PHE128     -0.0000
     90  N         16.3020   14.2560   19.2570 N.3   132  VAL132     -0.1245
     91  CA        17.2260   13.1700   19.6080 C.3   132  VAL132      0.1561
     92  C         18.3120   13.5890   20.5690 C.2   132  VAL132      0.2260
     93  O         18.9850   12.7530   21.1470 O.2   132  VAL132     -0.2867
     94  CB        17.8480   12.4470   18.4300 C.3   132  VAL132      0.0252
     95  CG1       16.7990   11.7940   17.5670 C.3   132  VAL132      0.0019
     96  CG2       18.7090   13.3710   17.5820 C.3   132  VAL132      0.0019
     97  N          9.2820    5.5500   21.0150 N.3   140  VAL140     -0.1245
     98  CA         9.2500    4.4880   20.0030 C.3   140  VAL140      0.1561
     99  C          8.2960    3.4120   20.4860 C.2   140  VAL140      0.2260
    100  O          8.4350    2.9150   21.5990 O.2   140  VAL140     -0.2867
    101  CB        10.6390    3.9370   19.6280 C.3   140  VAL140      0.0252
    102  CG1       10.4750    2.9230   18.5290 C.3   140  VAL140      0.0019
    103  CG2       11.5680    5.0660   19.1770 C.3   140  VAL140      0.0019
    104  N         18.2050    4.9060   21.1590 N.3   195  LEU195     -0.1231
    105  CA        18.2440    4.3500   19.8200 C.3   195  LEU195      0.1693
    106  C         18.9490    3.0460   19.8230 C.2   195  LEU195      0.2593
    107  O         19.9780    2.8760   20.5410 O.2   195  LEU195     -0.2718
    108  CB        18.9690    5.3390   18.9020 C.3   195  LEU195      0.0284
    109  CG        18.4410    6.7570   18.8330 C.3   195  LEU195      0.0019
    110  CD1       19.2710    7.6390   17.8900 C.3   195  LEU195      0.0001
    111  CD2       17.0200    6.8340   18.4360 C.3   195  LEU195      0.0001
    112  N         18.5050    2.0730   19.0230 N.am  196  THR196     -0.1939
    113  CA        19.1590    0.7610   18.9810 C.3   196  THR196      0.2028
    114  C         20.1830    0.6270   17.8700 C.2   196  THR196      0.2643
    115  O         20.7410   -0.4640   17.7160 O.2   196  THR196     -0.2714
    116  CB        18.1020   -0.3690   18.8610 C.3   196  THR196      0.1808
    117  OG1       17.5350   -0.2390   17.5480 O.3   196  THR196     -0.2208
    118  CG2       17.0700   -0.3500   19.9580 C.3   196  THR196      0.0379
    119  N         20.3930    1.6720   17.0890 N.am  197  THR197     -0.1937
    120  CA        21.4950    1.7080   16.1450 C.3   197  THR197      0.2013
    121  C         22.2560    2.9530   16.4330 C.2   197  THR197      0.2484
    122  O         21.7740    3.9100   17.0370 O.2   197  THR197     -0.2729
    123  CB        21.0470    1.7630   14.6500 C.3   197  THR197      0.1807
    124  OG1       20.6330    3.0240   14.2800 O.3   197  THR197     -0.2208
    125  CG2       19.9810    0.8040   14.3290 C.3   197  THR197      0.0379
    126  N         23.5260    3.0230   15.9590 N.am  198  PRO198     -0.2715
    127  CA        24.2430    4.2930   15.9980 C.3   198  PRO198      0.1521
    128  C         23.3430    5.4000   15.4500 C.2   198  PRO198      0.2440
    129  O         22.6470    5.1900   14.4340 O.2   198  PRO198     -0.2731
    130  CB        25.4910    3.9900   15.1290 C.3   198  PRO198      0.0310
    131  CG        25.7240    2.5650   15.3610 C.3   198  PRO198      0.0237
    132  CD        24.3770    1.9560   15.3410 C.3   198  PRO198      0.0939
    133  N         23.3390    6.5680   16.0610 N.am  199  PRO199     -0.2727
    134  CA        24.2570    7.0210   17.1170 C.3   199  PRO199      0.1402
    135  C         23.9400    6.5940   18.5730 C.2   199  PRO199      0.2269
    136  O         24.6220    7.0590   19.4740 O.2   199  PRO199     -0.2865
    137  CB        24.2500    8.5070   16.9250 C.3   199  PRO199      0.0296
    138  CG        22.8120    8.8170   16.4930 C.3   199  PRO199      0.0237
    139  CD        22.5170    7.7010   15.5220 C.3   199  PRO199      0.0939
    140  N         21.7690    7.2410   20.7510 N.3   201  LEU201     -0.1245
    141  CA        21.4780    8.3400   21.6720 C.3   201  LEU201      0.1561
    142  C         20.4160    7.9240   22.6790 C.2   201  LEU201      0.2260
    143  O         19.4580    7.2060   22.3860 O.2   201  LEU201     -0.2867
    144  CB        21.0160    9.5540   20.8980 C.3   201  LEU201      0.0270
    145  CG        22.0690   10.1560   19.9380 C.3   201  LEU201      0.0019
    146  CD1       21.4500   11.2030   19.0540 C.3   201  LEU201      0.0001
    147  CD2       23.2480   10.7660   20.7830 C.3   201  LEU201      0.0001
    148  N         15.1340    7.9880   24.1490 N.3   204  VAL204     -0.1245
    149  CA        13.8880    7.2680   23.8110 C.3   204  VAL204      0.1561
    150  C         13.1260    6.8330   25.0510 C.2   204  VAL204      0.2260
    151  O         13.6650    6.1510   25.9240 O.2   204  VAL204     -0.2867
    152  CB        14.1820    6.0020   22.9660 C.3   204  VAL204      0.0252
    153  CG1       12.8490    5.3040   22.6210 C.3   204  VAL204      0.0019
    154  CG2       14.9100    6.3390   21.7010 C.3   204  VAL204      0.0019
    155  N         10.7320    4.0450   25.5370 N.3   206  TRP206     -0.1241
    156  CA        10.2950    2.8680   24.8270 C.3   206  TRP206      0.1605
    157  C          8.9200    2.4390   25.3510 C.2   206  TRP206      0.2264
    158  O          8.6890    2.4000   26.5760 O.2   206  TRP206     -0.2867
    159  CB        11.2870    1.6980   25.0410 C.3   206  TRP206      0.0550
    160  CG        12.4150    1.8060   24.0790 C.ar  206  TRP206      0.0003
    161  CD1       13.6590    2.3850   24.2480 C.ar  206  TRP206      0.0946
    162  CD2       12.3310    1.4180   22.7290 C.ar  206  TRP206      0.0152
    163  NE1       14.3400    2.3690   23.0880 N.ar  206  TRP206     -0.2442
    164  CE2       13.5900    1.7720   22.1060 C.ar  206  TRP206      0.0810
    165  CE3       11.3640    0.7920   21.9390 C.ar  206  TRP206      0.0012
    166  CZ2       13.8470    1.5760   20.7520 C.ar  206  TRP206      0.0191
    167  CZ3       11.6250    0.5220   20.6210 C.ar  206  TRP206      0.0001
    168  CH2       12.8430    0.9200   20.0330 C.ar  206  TRP206      0.0015
@<TRIPOS>BOND
     1    15    16    1
     2    16    17    1
     3    16    19    1
     4    17    18    2
     5    19    20    1
     6    23    24    1
     7    20    21    2
     8    20    22   am
     9    24    25    1
    10    24    27    1
    11    25    26    1
    12    32    30   ar
    13    32    31   ar
    14    30    28   ar
    15    31    29   ar
    16    28    29   ar
    17    28    27    1
    18     4     3    2
    19    37    34    1
    20    37    38    1
    21    46    43    1
    22    46    47    1
    23    43    42    1
    24    43    44    1
    25    34    35    1
    26    34    33    1
    27     3     2    1
    28     1     2    1
    29    38    39    1
    30    35    36    2
    31    44    45    2
    32    39    40    2
    33    39    41   am
    34     2     5    1
    35    47    48   ar
    36    47    49   ar
    37    12    10   ar
    38    12    14   ar
    39     9    10   ar
    40     9     7   ar
    41    10     8   ar
    42    14    13   ar
    43     7     6   ar
    44     8     6   ar
    45     8    11   ar
    46    13    11   ar
    47     6     5    1
    48    48    50   ar
    49    52    53    1
    50    49    51   ar
    51    54    53    1
    52    54    55    2
    53    53    56    1
    54    50    51   ar
    55    65    64    2
    56    86    88   ar
    57    86    84   ar
    58    83    84    1
    59    83    80    1
    60    56    57    1
    61    58    57   ar
    62    58    60   ar
    63    88    89   ar
    64    57    59   ar
    65    84    85   ar
    66    60    61   ar
    67   124   123    1
    68   125   123    1
    69   129   128    2
    70    59    61   ar
    71   123   120    1
    72    79    80    1
    73    89    87   ar
    74    78    76    1
    75    75    74    2
    76    62    63    1
    77    85    87   ar
    78    64    63    1
    79    76    77    1
    80    76    73    1
    81    80    81    1
    82    72    73    1
    83   130   131    1
    84   130   127    1
    85   132   131    1
    86   132   126    1
    87   128   127    1
    88   128   133   am
    89    81    82    2
    90    63    66    1
    91   139   133    1
    92   139   138    1
    93    66    67    1
    94    73    74    1
    95   126   127    1
    96   126   121   am
    97   133   134    1
    98   120   121    1
    99   120   119    1
   100   121   122    2
   101    68    67   ar
   102    68    70   ar
   103    67    69   ar
   104   138   137    1
   105   137   134    1
   106   119   114   am
   107   134   135    1
   108    70    71   ar
   109    69    71   ar
   110   117   116    1
   111    95    94    1
   112    96    94    1
   113   115   114    2
   114   114   113    1
   115   110   109    1
   116    94    91    1
   117   111   109    1
   118   102   101    1
   119   135   136    2
   120   109   108    1
   121   116   113    1
   122   116   118    1
   123   108   105    1
   124   113   112    1
   125   112   106   am
   126   146   145    1
   127   103   101    1
   128    90    91    1
   129    91    92    1
   130   101    98    1
   131   105   106    1
   132   105   104    1
   133   106   107    2
   134   145   147    1
   135   145   144    1
   136    98    99    1
   137    98    97    1
   138   168   167   ar
   139   168   166   ar
   140    99   100    2
   141    92    93    2
   142   167   165   ar
   143   140   141    1
   144   166   164   ar
   145   144   141    1
   146   141   142    1
   147   154   152    1
   148   165   162   ar
   149   164   162   ar
   150   164   163   ar
   151   143   142    2
   152   153   152    1
   153   162   160   ar
   154   152   149    1
   155   163   161   ar
   156   149   148    1
   157   149   150    1
   158   160   161   ar
   159   160   159    1
   160   156   159    1
   161   156   157    1
   162   156   155    1
   163   150   151    2
   164   157   158    2
