@<TRIPOS>MOLECULE
tmp/4pzkB00.pdb
 161 155 0 0 0
SMALL
GASTEIGER

@<TRIPOS>ATOM
      1  N         -5.3720   12.3350  -12.4550 N.3    78  LEU78      -0.1231
      2  CA        -3.9460   12.0420  -12.5770 C.3    78  LEU78       0.1693
      3  C         -3.3430   12.9900  -13.5920 C.2    78  LEU78       0.2593
      4  O         -3.7710   13.0290  -14.7540 O.2    78  LEU78      -0.2718
      5  CB        -3.7110   10.5850  -12.9760 C.3    78  LEU78       0.0284
      6  CG        -3.7120    9.5880  -11.8000 C.3    78  LEU78       0.0019
      7  CD1       -2.4690    9.7650  -10.9400 C.3    78  LEU78       0.0001
      8  CD2       -4.9980    9.6770  -10.9380 C.3    78  LEU78       0.0001
      9  N         -2.3810   13.7900  -13.1470 N.am   79  THR79      -0.1939
     10  CA        -1.7280   14.7310  -14.0340 C.3    79  THR79       0.2028
     11  C         -0.3580   15.0940  -13.5030 C.2    79  THR79       0.2642
     12  O         -0.1770   15.2760  -12.3010 O.2    79  THR79      -0.2714
     13  CB        -2.5670   16.0320  -14.2340 C.3    79  THR79       0.1808
     14  OG1       -1.7730   17.0020  -14.9220 O.3    79  THR79      -0.2208
     15  CG2       -3.0480   16.5980  -12.9030 C.3    79  THR79       0.0379
     16  N          0.6030   15.2190  -14.4090 N.am   80  LYS80      -0.1977
     17  CA         1.9360   15.6950  -14.0500 C.3    80  LYS80       0.1596
     18  C          1.9190   17.0720  -13.3930 C.2    80  LYS80       0.2287
     19  O          2.9090   17.4630  -12.7760 O.2    80  LYS80      -0.2864
     20  CB         2.8340   15.7370  -15.2890 C.3    80  LYS80       0.0298
     21  CG         2.4430   16.8150  -16.2870 C.3    80  LYS80       0.0038
     22  CD         3.2990   16.7530  -17.5520 C.3    80  LYS80       0.0206
     23  CE         3.0170   17.9400  -18.4560 C.3    80  LYS80       0.1093
     24  NZ         3.8340   17.8900  -19.7030 N.3    80  LYS80      -0.1314
     25  N         -7.9170    9.7840  -15.9520 N.3   102  PHE102     -0.1227
     26  CA        -6.6880    9.9030  -16.7160 C.3   102  PHE102      0.1736
     27  C         -6.9050   10.6760  -18.0070 C.2   102  PHE102      0.2596
     28  O         -7.9580   10.5650  -18.6500 O.2   102  PHE102     -0.2718
     29  CB        -6.1020    8.5170  -17.0350 C.3   102  PHE102      0.0547
     30  CG        -5.7760    7.7110  -15.8130 C.ar  102  PHE102     -0.0202
     31  CD1       -4.4710    7.6610  -15.3230 C.ar  102  PHE102     -0.0042
     32  CD2       -6.7800    7.0260  -15.1350 C.ar  102  PHE102     -0.0042
     33  CE1       -4.1580    6.9280  -14.1880 C.ar  102  PHE102     -0.0003
     34  CE2       -6.4830    6.2910  -13.9840 C.ar  102  PHE102     -0.0003
     35  CZ        -5.1570    6.2400  -13.5070 C.ar  102  PHE102     -0.0000
     36  N         -5.8970   11.4540  -18.3880 N.am  103  GLY103     -0.1942
     37  CA        -5.9440   12.1870  -19.6410 C.3   103  GLY103      0.2014
     38  C         -5.4690   11.4600  -20.8820 C.2   103  GLY103      0.2639
     39  O         -5.1030   10.2760  -20.8480 O.2   103  GLY103     -0.2714
     40  N         -5.4640   12.2060  -21.9870 N.am  104  ARG104     -0.1963
     41  CA        -5.1080   11.6860  -23.3030 C.3   104  ARG104      0.1729
     42  C         -3.6060   11.5590  -23.4460 C.2   104  ARG104      0.2616
     43  O         -2.8640   12.3820  -22.9120 O.2   104  ARG104     -0.2715
     44  CB        -5.6470   12.6130  -24.3900 C.3   104  ARG104      0.0348
     45  CG        -7.1120   13.0010  -24.1640 C.3   104  ARG104      0.0492
     46  CD        -7.6740   13.6950  -25.3870 C.3   104  ARG104      0.2205
     47  NE        -7.8590   12.7470  -26.4760 N.pl3 104  ARG104     -0.0865
     48  CZ        -8.1040   13.1060  -27.7290 C.cat 104  ARG104      0.5346
     49  NH1       -8.1360   14.3970  -28.0360 N.pl3 104  ARG104      0.1354
     50  NH2       -8.2760   12.1840  -28.6720 N.pl3 104  ARG104      0.1354
     51  N         -3.1570   10.5630  -24.1950 N.am  105  GLU105     -0.1963
     52  CA        -1.7250   10.3780  -24.4380 C.3   105  GLU105      0.1733
     53  C         -1.0360   11.6380  -24.9680 C.2   105  GLU105      0.2617
     54  O          0.1070   11.9150  -24.6050 O.2   105  GLU105     -0.2715
     55  CB        -1.4910    9.2290  -25.4230 C.3   105  GLU105      0.0429
     56  CG        -1.7850    7.8420  -24.8750 C.3   105  GLU105      0.1163
     57  CD        -3.1900    7.3500  -25.1520 C.2   105  GLU105      0.3649
     58  OE1       -4.1270    8.1780  -25.2270 O.co2 105  GLU105     -0.2457
     59  OE2       -3.3540    6.1200  -25.2930 O.co2 105  GLU105     -0.2457
     60  N         -1.7260   12.4080  -25.8160 N.am  106  THR106     -0.1937
     61  CA        -1.1220   13.6060  -26.3830 C.3   106  THR106      0.2028
     62  C         -1.4450   14.8410  -25.5380 C.2   106  THR106      0.2642
     63  O         -0.5250   15.4570  -24.9890 O.2   106  THR106     -0.2714
     64  CB        -1.5620   13.8220  -27.8410 C.3   106  THR106      0.1808
     65  OG1       -1.2240   12.6600  -28.6100 O.3   106  THR106     -0.2208
     66  CG2       -0.8300   15.0280  -28.4410 C.3   106  THR106      0.0379
     67  N         -2.7280   15.1830  -25.3990 N.am  107  ASN107     -0.1957
     68  CA        -3.1130   16.4470  -24.7550 C.3   107  ASN107      0.1819
     69  C         -3.2400   16.3960  -23.2320 C.2   107  ASN107      0.2622
     70  O         -3.4590   17.4310  -22.5920 O.2   107  ASN107     -0.2715
     71  CB        -4.4510   16.9490  -25.3070 C.3   107  ASN107      0.1195
     72  CG        -4.3700   17.3910  -26.7610 C.2   107  ASN107      0.2630
     73  OD1       -3.2820   17.5950  -27.3070 O.2   107  ASN107     -0.2716
     74  ND2       -5.5350   17.5870  -27.3830 N.am  107  ASN107     -0.0877
     75  N         -3.1560   15.2060  -22.6460 N.am  108  GLY108     -0.1940
     76  CA        -3.4410   15.0650  -21.2250 C.3   108  GLY108      0.2014
     77  C         -4.8950   15.3650  -20.8840 C.2   108  GLY108      0.2638
     78  O         -5.7980   15.1460  -21.6980 O.2   108  GLY108     -0.2714
     79  N         -5.1250   15.8690  -19.6730 N.am  109  LEU109     -0.1977
     80  CA        -6.4580   16.2980  -19.2430 C.3   109  LEU109      0.1596
     81  C         -6.7210   17.7190  -19.6950 C.2   109  LEU109      0.2287
     82  O         -5.7840   18.5230  -19.7920 O.2   109  LEU109     -0.2864
     83  CB        -6.6010   16.2110  -17.7180 C.3   109  LEU109      0.0297
     84  CG        -6.7440   14.8170  -17.1160 C.3   109  LEU109      0.0022
     85  CD1       -6.6200   14.9110  -15.6010 C.3   109  LEU109      0.0001
     86  CD2       -8.0620   14.1750  -17.5090 C.3   109  LEU109      0.0001
     87  N         -3.4150   14.5060   -8.7600 N.3   122  LEU122     -0.1231
     88  CA        -2.3470   13.6490   -8.2710 C.3   122  LEU122      0.1693
     89  C         -1.2250   13.5260   -9.2900 C.2   122  LEU122      0.2592
     90  O         -1.4620   13.1730  -10.4490 O.2   122  LEU122     -0.2718
     91  CB        -2.8890   12.2540   -7.9550 C.3   122  LEU122      0.0284
     92  CG        -4.0930   12.1330   -7.0220 C.3   122  LEU122      0.0019
     93  CD1       -4.4580   10.6650   -6.8620 C.3   122  LEU122      0.0001
     94  CD2       -3.8000   12.7770   -5.6760 C.3   122  LEU122      0.0001
     95  N         -0.0070   13.8020   -8.8400 N.am  123  ARG123     -0.1966
     96  CA         1.1860   13.6380   -9.6630 C.3   123  ARG123      0.1729
     97  C          2.0020   12.4530   -9.1510 C.2   123  ARG123      0.2616
     98  O          2.4110   12.4280   -7.9900 O.2   123  ARG123     -0.2715
     99  CB         2.0410   14.9180   -9.6410 C.3   123  ARG123      0.0348
    100  CG         3.4410   14.7400  -10.2310 C.3   123  ARG123      0.0492
    101  CD         4.2610   16.0410  -10.1460 C.3   123  ARG123      0.2205
    102  NE         5.6840   15.8100  -10.3990 N.pl3 123  ARG123     -0.0865
    103  CZ         6.2600   15.9100  -11.5930 C.cat 123  ARG123      0.5346
    104  NH1        7.5630   15.6610  -11.7220 N.pl3 123  ARG123      0.1354
    105  NH2        5.5340   16.2380  -12.6620 N.pl3 123  ARG123      0.1354
    106  N          2.2270   11.4640  -10.0070 N.am  124  ILE124     -0.1977
    107  CA         3.1970   10.4230   -9.6850 C.3   124  ILE124      0.1596
    108  C          4.5730   11.0590   -9.8120 C.2   124  ILE124      0.2287
    109  O          4.9050   11.5680  -10.8740 O.2   124  ILE124     -0.2864
    110  CB         3.0710    9.1920  -10.6330 C.3   124  ILE124      0.0276
    111  CG1        1.6650    8.5910  -10.5460 C.3   124  ILE124      0.0022
    112  CG2        4.1130    8.1380  -10.2900 C.3   124  ILE124      0.0022
    113  CD1        1.3430    7.6480  -11.7010 C.3   124  ILE124      0.0001
    114  N          8.3140   12.1440  -10.5300 N.3   126  MET126     -0.1245
    115  CA         9.2530   11.8120  -11.5950 C.3   126  MET126      0.1570
    116  C         10.4660   12.7300  -11.5380 C.2   126  MET126      0.2261
    117  O         10.4090   13.8310  -10.9840 O.2   126  MET126     -0.2867
    118  CB         8.6210   11.9600  -12.9910 C.3   126  MET126      0.0387
    119  CG         7.3470   11.1640  -13.2560 C.3   126  MET126      0.0595
    120  SD         6.7050   11.5710  -14.8940 S.3   126  MET126     -0.1393
    121  CE         6.3280   13.2940  -14.7130 C.3   126  MET126      0.0692
    122  N          8.7330   13.7470  -19.7440 N.3   131  ARG131     -0.1231
    123  CA         7.5790   14.6250  -19.5790 C.3   131  ARG131      0.1694
    124  C          6.4640   13.9880  -18.7730 C.2   131  ARG131      0.2593
    125  O          5.7320   14.6570  -18.0450 O.2   131  ARG131     -0.2718
    126  CB         7.0110   15.0310  -20.9390 C.3   131  ARG131      0.0321
    127  CG         7.7720   16.0990  -21.6700 C.3   131  ARG131      0.0489
    128  CD         6.8610   16.7290  -22.7210 C.3   131  ARG131      0.2205
    129  NE         6.3410   15.7400  -23.6640 N.pl3 131  ARG131     -0.0865
    130  CZ         6.9680   15.3770  -24.7790 C.cat 131  ARG131      0.5346
    131  NH1        6.4270   14.4750  -25.5880 N.pl3 131  ARG131      0.1354
    132  NH2        8.1390   15.9200  -25.0880 N.pl3 131  ARG131      0.1354
    133  N          6.3190   12.6830  -18.9300 N.am  132  SER132     -0.1938
    134  CA         5.1940   11.9670  -18.3620 C.3   132  SER132      0.2055
    135  C          5.4850   10.4890  -18.4270 C.2   132  SER132      0.2642
    136  O          6.3690   10.0530  -19.1790 O.2   132  SER132     -0.2714
    137  CB         3.9090   12.2770  -19.1280 C.3   132  SER132      0.2130
    138  OG         4.0540   11.8870  -20.4870 O.3   132  SER132     -0.2179
    139  N          4.7390    9.7220  -17.6430 N.am  133  LEU133     -0.1977
    140  CA         4.7460    8.2650  -17.7280 C.3   133  LEU133      0.1596
    141  C          3.7910    7.7840  -18.8060 C.2   133  LEU133      0.2287
    142  O          2.9250    8.5310  -19.2680 O.2   133  LEU133     -0.2864
    143  CB         4.3490    7.6510  -16.3880 C.3   133  LEU133      0.0297
    144  CG         5.2710    7.9990  -15.2270 C.3   133  LEU133      0.0022
    145  CD1        4.6980    7.4710  -13.9250 C.3   133  LEU133      0.0001
    146  CD2        6.6370    7.4060  -15.4650 C.3   133  LEU133      0.0001
    147  N          0.5530    6.0570  -20.2200 N.3   135  LEU135     -0.1245
    148  CA        -0.8260    6.0570  -19.7100 C.3   135  LEU135      0.1561
    149  C         -1.2050    4.7530  -19.0030 C.2   135  LEU135      0.2260
    150  O         -1.7120    4.7780  -17.8820 O.2   135  LEU135     -0.2867
    151  CB        -1.8010    6.3260  -20.8620 C.3   135  LEU135      0.0270
    152  CG        -3.2830    6.1540  -20.5440 C.3   135  LEU135      0.0019
    153  CD1       -3.7420    7.0740  -19.4070 C.3   135  LEU135      0.0001
    154  CD2       -4.1490    6.3690  -21.7730 C.3   135  LEU135      0.0001
    155  N          0.5250    4.2850  -15.6610 N.3   138  THR138     -0.1218
    156  CA         0.0260    5.1220  -14.5670 C.3   138  THR138      0.1862
    157  C         -1.2610    4.5250  -14.0000 C.2   138  THR138      0.2287
    158  O         -1.4860    4.5480  -12.7920 O.2   138  THR138     -0.2866
    159  CB        -0.2200    6.5990  -14.9890 C.3   138  THR138      0.1770
    160  OG1       -1.3100    6.6860  -15.9050 O.3   138  THR138     -0.2211
    161  CG2        1.0080    7.1930  -15.6190 C.3   138  THR138      0.0375
@<TRIPOS>BOND
     1    50    48    1
     2    65    64    1
     3    66    64    1
     4    49    48    1
     5    64    61    1
     6    48    47    2
     7    74    72   am
     8    73    72    2
     9    72    71    1
    10    47    46    1
    11    61    60    1
    12    61    62    1
    13    60    53   am
    14   131   130    1
    15    62    67   am
    16    62    63    2
    17    55    56    1
    18    55    52    1
    19    67    68    1
    20    46    45    1
    21    71    68    1
    22    59    57   ar
    23    58    57   ar
    24    57    56    1
    25   132   130    1
    26    53    54    2
    27    53    52    1
    28   130   129    2
    29    68    69    1
    30    52    51    1
    31    44    45    1
    32    44    41    1
    33    51    42   am
    34   129   128    1
    35    42    41    1
    36    42    43    2
    37    41    40    1
    38    69    75   am
    39    69    70    2
    40   128   127    1
    41    75    76    1
    42    40    38   am
    43   154   152    1
    44    78    77    2
    45   127   126    1
    46    76    77    1
    47   126   123    1
    48    77    79   am
    49    38    39    2
    50    38    37    1
    51   151   152    1
    52   151   148    1
    53   152   153    1
    54   138   137    1
    55   147   148    1
    56    82    81    2
    57   122   123    1
    58   148   149    1
    59    24    23    1
    60    81    80    1
    61    79    80    1
    62    37    36    1
    63   123   124    1
    64   142   141    2
    65    80    83    1
    66   136   135    2
    67   137   134    1
    68   149   150    2
    69   133   124   am
    70   133   134    1
    71   141   140    1
    72   124   125    2
    73    28    27    2
    74    23    22    1
    75   135   134    1
    76   135   139   am
    77    36    27   am
    78    27    26    1
    79   140   139    1
    80   140   143    1
    81    83    84    1
    82    22    21    1
    83    86    84    1
    84    84    85    1
    85    29    26    1
    86    29    30    1
    87    26    25    1
    88   143   144    1
    89    21    20    1
    90   160   159    1
    91    30    31   ar
    92    30    32   ar
    93   155   156    1
    94   161   159    1
    95   146   144    1
    96    31    33   ar
    97    20    17    1
    98   144   145    1
    99    32    34   ar
   100   159   156    1
   101    14    13    1
   102   120   121    1
   103   120   119    1
   104     4     3    2
   105   156   157    1
   106    16    17    1
   107    16    11   am
   108    13    10    1
   109    13    15    1
   110    33    35   ar
   111    17    18    1
   112    10    11    1
   113    10     9    1
   114   157   158    2
   115    34    35   ar
   116     3     9   am
   117     3     2    1
   118    11    12    2
   119    18    19    2
   120   119   118    1
   121   118   115    1
   122     5     2    1
   123     5     6    1
   124   105   103    1
   125     2     1    1
   126     6     7    1
   127     6     8    1
   128   104   103    1
   129   113   111    1
   130   115   116    1
   131   115   114    1
   132   103   102    2
   133   116   117    2
   134   109   108    2
   135   110   111    1
   136   110   112    1
   137   110   107    1
   138    90    89    2
   139   102   101    1
   140   100   101    1
   141   100    99    1
   142   106   107    1
   143   106    97   am
   144   108   107    1
   145    96    99    1
   146    96    97    1
   147    96    95    1
   148    89    95   am
   149    89    88    1
   150    97    98    2
   151    87    88    1
   152    88    91    1
   153    91    92    1
   154    92    93    1
   155    92    94    1
