@<TRIPOS>MOLECULE
tmp/4pzrA02.pdb
 199 197 0 0 0
SMALL
GASTEIGER

@<TRIPOS>ATOM
      1  N         15.3190   41.4650    7.8890 N.3    88  PHE88      -0.1241
      2  CA        14.6040   41.5550    6.6300 C.3    88  PHE88       0.1605
      3  C         13.1250   41.2880    6.8540 C.2    88  PHE88       0.2264
      4  O         12.7650   40.3790    7.6020 O.2    88  PHE88      -0.2867
      5  CB        15.1700   40.5610    5.6170 C.3    88  PHE88       0.0534
      6  CG        14.4370   40.5350    4.3060 C.ar   88  PHE88      -0.0203
      7  CD1       14.8570   41.3130    3.2490 C.ar   88  PHE88      -0.0042
      8  CD2       13.3510   39.6990    4.1190 C.ar   88  PHE88      -0.0042
      9  CE1       14.1970   41.2610    2.0250 C.ar   88  PHE88      -0.0003
     10  CE2       12.6740   39.6520    2.8930 C.ar   88  PHE88      -0.0003
     11  CZ        13.1040   40.4260    1.8500 C.ar   88  PHE88      -0.0000
     12  N          9.2420   45.5640    0.8360 N.3   112  LEU112     -0.1231
     13  CA        10.2300   44.8090    1.5700 C.3   112  LEU112      0.1693
     14  C         11.1180   45.8550    2.2240 C.2   112  LEU112      0.2592
     15  O         11.1280   47.0050    1.8010 O.2   112  LEU112     -0.2718
     16  CB        11.0110   43.8510    0.6460 C.3   112  LEU112      0.0284
     17  CG        11.9020   44.3820   -0.4820 C.3   112  LEU112      0.0019
     18  CD1       13.2610   44.9070    0.0380 C.3   112  LEU112      0.0001
     19  CD2       12.1140   43.3230   -1.5600 C.3   112  LEU112      0.0001
     20  N         11.8380   45.4640    3.2680 N.am  113  ASP113     -0.1960
     21  CA        12.6300   46.4080    4.0380 C.3   113  ASP113      0.1840
     22  C         13.7190   45.5910    4.7190 C.2   113  ASP113      0.2622
     23  O         13.5500   44.3860    4.9030 O.2   113  ASP113     -0.2715
     24  CB        11.7400   47.1460    5.0550 C.3   113  ASP113      0.1450
     25  CG        12.4200   48.3600    5.6960 C.2   113  ASP113      0.3671
     26  OD1       13.4600   48.8180    5.1890 O.co2 113  ASP113     -0.2456
     27  OD2       11.8820   48.8700    6.7060 O.co2 113  ASP113     -0.2456
     28  N         14.8100   46.2430    5.0960 N.am  114  SER114     -0.1950
     29  CA        15.8820   45.5800    5.8280 C.3   114  SER114      0.1924
     30  C         16.6450   46.5480    6.7220 C.2   114  SER114      0.2314
     31  O         16.5660   47.7790    6.5560 O.2   114  SER114     -0.2863
     32  CB        16.8670   44.9280    4.8650 C.3   114  SER114      0.2116
     33  OG        17.5300   45.9360    4.1160 O.3   114  SER114     -0.2180
     34  N         20.7820   46.7740    8.0110 N.3   116  HIS116     -0.1241
     35  CA        21.9440   46.2160    7.3550 C.3   116  HIS116      0.1621
     36  C         22.9260   45.4770    8.2960 C.2   116  HIS116      0.2264
     37  O         24.1210   45.5170    8.0740 O.2   116  HIS116     -0.2867
     38  CB        22.6550   47.3510    6.6050 C.3   116  HIS116      0.0745
     39  CG        23.2280   48.4130    7.5030 C.ar  116  HIS116      0.0817
     40  ND1       23.9610   49.4790    7.0260 N.ar  116  HIS116     -0.2268
     41  CD2       23.1890   48.5580    8.8510 C.ar  116  HIS116      0.1154
     42  CE1       24.3500   50.2360    8.0400 C.ar  116  HIS116      0.1986
     43  NE2       23.8960   49.6970    9.1600 N.ar  116  HIS116     -0.2212
     44  N         28.8430   40.9220    6.5770 N.3   121  LYS121     -0.1245
     45  CA        28.4780   41.9490    5.6070 C.3   121  LYS121      0.1561
     46  C         28.5170   41.4790    4.1600 C.2   121  LYS121      0.2260
     47  O         27.6120   41.7820    3.3740 O.2   121  LYS121     -0.2867
     48  CB        29.4290   43.1480    5.7400 C.3   121  LYS121      0.0271
     49  CG        29.1920   44.0000    6.9550 C.3   121  LYS121      0.0035
     50  CD        30.2720   45.0980    7.0760 C.3   121  LYS121      0.0206
     51  CE        30.4470   45.8700    5.7760 C.3   121  LYS121      0.1093
     52  NZ        30.8990   47.2950    5.9950 N.3   121  LYS121     -0.1314
     53  N         25.3550   39.6990    2.9190 N.3   124  ARG124     -0.1231
     54  CA        24.0510   40.3230    3.1380 C.3   124  ARG124      0.1694
     55  C         23.1850   40.3520    1.8670 C.2   124  ARG124      0.2592
     56  O         22.0930   39.8070    1.8590 O.2   124  ARG124     -0.2718
     57  CB        24.2280   41.7520    3.6800 C.3   124  ARG124      0.0321
     58  CG        22.9090   42.4310    4.1030 C.3   124  ARG124      0.0489
     59  CD        23.1200   43.9280    4.4380 C.3   124  ARG124      0.2205
     60  NE        23.5810   44.6430    3.2520 N.pl3 124  ARG124     -0.0865
     61  CZ        24.8480   44.9640    2.9840 C.cat 124  ARG124      0.5346
     62  NH1       25.8350   44.6520    3.8200 N.pl3 124  ARG124      0.1354
     63  NH2       25.1270   45.5890    1.8550 N.pl3 124  ARG124      0.1354
     64  N         23.6790   40.9730    0.8000 N.am  125  THR125     -0.1953
     65  CA        22.8990   41.1070   -0.4190 C.3   125  THR125      0.1897
     66  C         22.5450   39.7430   -1.0070 C.2   125  THR125      0.2313
     67  O         21.4110   39.5130   -1.4350 O.2   125  THR125     -0.2863
     68  CB        23.6430   41.9440   -1.4790 C.3   125  THR125      0.1794
     69  OG1       23.7950   43.2800   -0.9990 O.3   125  THR125     -0.2208
     70  CG2       22.8640   41.9620   -2.8120 C.3   125  THR125      0.0378
     71  N         19.5280   38.3280    0.8630 N.3   128  TYR128     -0.1241
     72  CA        18.2820   38.9590    0.4260 C.3   128  TYR128      0.1605
     73  C         17.8110   38.3360   -0.8870 C.2   128  TYR128      0.2264
     74  O         16.6390   37.9760   -1.0460 O.2   128  TYR128     -0.2867
     75  CB        18.4490   40.4720    0.2260 C.3   128  TYR128      0.0534
     76  CG        18.7980   41.2880    1.4530 C.ar  128  TYR128     -0.0201
     77  CD1       18.4190   40.8810    2.7270 C.ar  128  TYR128     -0.0009
     78  CD2       19.5200   42.4920    1.3260 C.ar  128  TYR128     -0.0009
     79  CE1       18.7580   41.6490    3.8580 C.ar  128  TYR128      0.0417
     80  CE2       19.8500   43.2630    2.4380 C.ar  128  TYR128      0.0417
     81  CZ        19.4700   42.8370    3.6980 C.ar  128  TYR128      0.1957
     82  OH        19.8040   43.6020    4.7990 O.3   128  TYR128     -0.2866
     83  N         10.4950   50.8640   -5.7240 N.3   152  CYS152     -0.1221
     84  CA        10.3980   52.2300   -5.2250 C.3   152  CYS152      0.1794
     85  C         11.0320   52.3920   -3.8450 C.2   152  CYS152      0.2443
     86  O         10.4740   51.9440   -2.8430 O.2   152  CYS152     -0.2733
     87  CB         8.9280   52.6800   -5.1720 C.3   152  CYS152      0.0970
     88  SG         8.7530   54.4180   -4.6870 S.3   152  CYS152     -0.0800
     89  N         12.2000   53.0460   -3.7890 N.am  153  PRO153     -0.2718
     90  CA        12.8380   53.2700   -2.4890 C.3   153  PRO153      0.1520
     91  C         12.0400   54.2720   -1.6600 C.2   153  PRO153      0.2440
     92  O         11.3290   55.1000   -2.2370 O.2   153  PRO153     -0.2731
     93  CB        14.2120   53.8240   -2.8550 C.3   153  PRO153      0.0310
     94  CG        14.0510   54.4140   -4.2000 C.3   153  PRO153      0.0237
     95  CD        12.9550   53.6510   -4.9010 C.3   153  PRO153      0.0939
     96  N         12.1440   54.1880   -0.3250 N.am  154  PRO154     -0.2727
     97  CA        11.3940   55.0890    0.5430 C.3   154  PRO154      0.1402
     98  C         11.9150   56.5090    0.4090 C.2   154  PRO154      0.2269
     99  O         13.0760   56.7050    0.0570 O.2   154  PRO154     -0.2865
    100  CB        11.6550   54.5260    1.9430 C.3   154  PRO154      0.0296
    101  CG        12.9990   53.9230    1.8370 C.3   154  PRO154      0.0237
    102  CD        13.0520   53.3220    0.4490 C.3   154  PRO154      0.0939
    103  N          9.8060   51.7630    5.6220 N.3   160  TYR160     -0.1241
    104  CA         8.7480   50.8990    5.0990 C.3   160  TYR160      0.1605
    105  C          8.2080   49.9750    6.1770 C.2   160  TYR160      0.2264
    106  O          6.9980   49.8610    6.3660 O.2   160  TYR160     -0.2867
    107  CB         9.2470   50.0950    3.9010 C.3   160  TYR160      0.0534
    108  CG         9.2590   50.9000    2.6260 C.ar  160  TYR160     -0.0201
    109  CD1        8.5720   52.1160    2.5400 C.ar  160  TYR160     -0.0009
    110  CD2        9.9340   50.4520    1.5080 C.ar  160  TYR160     -0.0009
    111  CE1        8.5770   52.8620    1.3670 C.ar  160  TYR160      0.0417
    112  CE2        9.9430   51.1840    0.3380 C.ar  160  TYR160      0.0417
    113  CZ         9.2650   52.3840    0.2730 C.ar  160  TYR160      0.1957
    114  OH         9.2890   53.0940   -0.8960 O.3   160  TYR160     -0.2866
    115  N         15.7440   53.3780   10.9200 N.3   165  HIS165     -0.1241
    116  CA        16.8680   52.6970   10.3010 C.3   165  HIS165      0.1621
    117  C         18.1620   53.2830   10.8190 C.2   165  HIS165      0.2264
    118  O         18.1760   54.4050   11.3100 O.2   165  HIS165     -0.2867
    119  CB        16.8320   52.8450    8.7790 C.3   165  HIS165      0.0745
    120  CG        15.9530   51.8530    8.0870 C.ar  165  HIS165      0.0817
    121  ND1       14.5830   51.8250    8.2480 N.ar  165  HIS165     -0.2268
    122  CD2       16.2450   50.8740    7.1950 C.ar  165  HIS165      0.1154
    123  CE1       14.0740   50.8570    7.5070 C.ar  165  HIS165      0.1986
    124  NE2       15.0630   50.2670    6.8540 N.ar  165  HIS165     -0.2212
    125  N         22.8190   53.7290    7.1500 N.3   169  GLN169     -0.1231
    126  CA        22.3690   52.7880    6.1250 C.3   169  GLN169      0.1698
    127  C         21.8850   53.5900    4.9210 C.2   169  GLN169      0.2592
    128  O         20.8130   54.1850    4.9700 O.2   169  GLN169     -0.2718
    129  CB        21.2550   51.8630    6.6340 C.3   169  GLN169      0.0381
    130  CG        20.7700   50.8520    5.5600 C.3   169  GLN169      0.0905
    131  CD        19.7320   49.8670    6.0930 C.2   169  GLN169      0.2608
    132  OE1       19.7930   49.4640    7.2460 O.2   169  GLN169     -0.2717
    133  NE2       18.7730   49.4840    5.2500 N.am  169  GLN169     -0.0878
    134  N         22.6830   53.6350    3.8610 N.am  170  LYS170     -0.1966
    135  CA        22.3140   54.4060    2.6860 C.3   170  LYS170      0.1728
    136  C         21.0610   53.8200    2.0420 C.2   170  LYS170      0.2616
    137  O         20.8280   52.6150    2.0900 O.2   170  LYS170     -0.2715
    138  CB        23.4450   54.4450    1.6720 C.3   170  LYS170      0.0311
    139  CG        24.7030   55.1710    2.1660 C.3   170  LYS170      0.0038
    140  CD        25.6100   55.5270    1.0050 C.3   170  LYS170      0.0206
    141  CE        26.9390   56.1340    1.4750 C.3   170  LYS170      0.1093
    142  NZ        27.7580   55.1220    2.1820 N.3   170  LYS170     -0.1314
    143  N         20.2620   54.6970    1.4490 N.am  171  ILE171     -0.1964
    144  CA        19.0620   54.3020    0.7340 C.3   171  ILE171      0.1712
    145  C         19.3520   54.3210   -0.7640 C.2   171  ILE171      0.2458
    146  O         19.8150   55.3260   -1.2930 O.2   171  ILE171     -0.2730
    147  CB        17.8930   55.2290    1.0720 C.3   171  ILE171      0.0289
    148  CG1       17.6210   55.1760    2.5690 C.3   171  ILE171      0.0022
    149  CG2       16.6630   54.8330    0.2890 C.3   171  ILE171      0.0023
    150  CD1       16.3900   55.9280    2.9700 C.3   171  ILE171      0.0001
    151  N         19.1280   53.1900   -1.4530 N.am  172  PRO172     -0.2716
    152  CA        19.4970   53.2100   -2.8730 C.3   172  PRO172      0.1536
    153  C         18.6100   54.1840   -3.6550 C.2   172  PRO172      0.2598
    154  O         17.4620   54.3570   -3.2830 O.2   172  PRO172     -0.2715
    155  CB        19.2570   51.7620   -3.3290 C.3   172  PRO172      0.0310
    156  CG        18.2150   51.2540   -2.3930 C.3   172  PRO172      0.0237
    157  CD        18.4950   51.9240   -1.0520 C.3   172  PRO172      0.0939
    158  N         19.1620   54.8010   -4.6890 N.am  173  LYS173     -0.1978
    159  CA        18.3890   55.5720   -5.6500 C.3   173  LYS173      0.1596
    160  C         17.6960   54.5750   -6.5590 C.2   173  LYS173      0.2287
    161  O         18.1110   53.4190   -6.6320 O.2   173  LYS173     -0.2864
    162  CB        19.2770   56.5030   -6.4790 C.3   173  LYS173      0.0298
    163  CG        20.1260   57.4970   -5.6940 C.3   173  LYS173      0.0038
    164  CD        19.4600   58.8670   -5.5870 C.3   173  LYS173      0.0206
    165  CE        20.4020   59.8650   -4.9150 C.3   173  LYS173      0.1093
    166  NZ        19.7500   61.1600   -4.6120 N.3   173  LYS173     -0.1314
    167  N         19.8340   52.2420   -8.7600 N.3   176  ARG176     -0.1231
    168  CA        20.5540   51.2190   -8.0150 C.3   176  ARG176      0.1694
    169  C         19.5960   50.0980   -7.5840 C.2   176  ARG176      0.2591
    170  O         19.9320   48.9220   -7.7300 O.2   176  ARG176     -0.2718
    171  CB        21.2670   51.8150   -6.8010 C.3   176  ARG176      0.0321
    172  CG        21.9640   50.7640   -5.9410 C.3   176  ARG176      0.0489
    173  CD        22.6020   51.3920   -4.7180 C.3   176  ARG176      0.2205
    174  NE        23.7340   52.2410   -5.0680 N.pl3 176  ARG176     -0.0865
    175  CZ        24.9560   51.7740   -5.3060 C.cat 176  ARG176      0.5346
    176  NH1       25.2020   50.4670   -5.2370 N.pl3 176  ARG176      0.1354
    177  NH2       25.9300   52.6070   -5.6170 N.pl3 176  ARG176      0.1354
    178  N         18.4080   50.4620   -7.0880 N.am  177  LEU177     -0.1980
    179  CA        17.4080   49.4740   -6.6670 C.3   177  LEU177      0.1596
    180  C         16.9660   48.6170   -7.8650 C.2   177  LEU177      0.2287
    181  O         16.7870   47.3870   -7.7580 O.2   177  LEU177     -0.2864
    182  CB        16.1960   50.1630   -6.0130 C.3   177  LEU177      0.0297
    183  CG        15.1370   49.2060   -5.4660 C.3   177  LEU177      0.0022
    184  CD1       15.7680   48.2300   -4.4890 C.3   177  LEU177      0.0001
    185  CD2       13.9340   49.9390   -4.8070 C.3   177  LEU177      0.0001
    186  N         19.6140   46.1710   -8.6930 N.3   180  TRP180     -0.1241
    187  CA        19.5260   45.1820   -7.6150 C.3   180  TRP180      0.1605
    188  C         18.4930   44.0890   -7.9080 C.2   180  TRP180      0.2264
    189  O         18.8230   42.9000   -7.8770 O.2   180  TRP180     -0.2867
    190  CB        19.1930   45.9040   -6.3160 C.3   180  TRP180      0.0550
    191  CG        19.3070   45.1080   -5.0300 C.ar  180  TRP180      0.0003
    192  CD1       20.4160   44.9570   -4.2480 C.ar  180  TRP180      0.0946
    193  CD2       18.2430   44.4380   -4.3500 C.ar  180  TRP180      0.0152
    194  NE1       20.1170   44.2170   -3.1270 N.ar  180  TRP180     -0.2442
    195  CE2       18.7850   43.8920   -3.1610 C.ar  180  TRP180      0.0810
    196  CE3       16.8800   44.2490   -4.6270 C.ar  180  TRP180      0.0012
    197  CZ2       18.0110   43.1540   -2.2550 C.ar  180  TRP180      0.0191
    198  CZ3       16.1110   43.5170   -3.7290 C.ar  180  TRP180      0.0001
    199  CH2       16.6810   42.9740   -2.5590 C.ar  180  TRP180      0.0015
@<TRIPOS>BOND
     1   167   168    1
     2   186   187    1
     3   168   169    1
     4   168   171    1
     5   188   189    2
     6   188   187    1
     7   180   181    2
     8   180   179    1
     9   170   169    2
    10   187   190    1
    11   169   178   am
    12   178   179    1
    13   171   172    1
    14   179   182    1
    15   161   160    2
    16   160   159    1
    17   162   163    1
    18   162   159    1
    19   190   191    1
    20   182   183    1
    21   172   173    1
    22    83    84    1
    23   163   164    1
    24   159   158    1
    25   177   175    1
    26   164   165    1
    27   183   185    1
    28   183   184    1
    29   175   176    1
    30   175   174    2
    31    84    87    1
    32    84    85    1
    33    87    88    1
    34   174   173    1
    35   191   193   ar
    36   191   192   ar
    37   165   166    1
    38    95    94    1
    39    95    89    1
    40   158   153   am
    41   196   193   ar
    42   196   198   ar
    43   193   195   ar
    44   192   194   ar
    45    94    93    1
    46    85    89   am
    47    85    86    2
    48    89    90    1
    49   198   199   ar
    50   153   154    2
    51   153   152    1
    52   155   152    1
    53   155   156    1
    54   195   194   ar
    55   195   197   ar
    56   152   151    1
    57    93    90    1
    58    70    68    1
    59   199   197   ar
    60    90    91    1
    61   156   157    1
    62    92    91    2
    63    91    96   am
    64    19    17    1
    65    68    69    1
    66    68    65    1
    67   151   157    1
    68   151   145   am
    69    67    66    2
    70   146   145    2
    71    74    73    2
    72    66    65    1
    73   114   113    1
    74    73    72    1
    75   145   144    1
    76    17    18    1
    77    17    16    1
    78    65    64    1
    79    96   102    1
    80    96    97    1
    81    99    98    2
    82    75    72    1
    83    75    76    1
    84   113   112   ar
    85   113   111   ar
    86   149   147    1
    87   112   110   ar
    88    98    97    1
    89    72    71    1
    90   102   101    1
    91    97   100    1
    92    16    13    1
    93   144   147    1
    94   144   143    1
    95    64    55   am
    96    12    13    1
    97   140   141    1
    98   140   139    1
    99   147   148    1
   100    78    76   ar
   101    78    80   ar
   102   111   109   ar
   103   143   136   am
   104    76    77   ar
   105   141   142    1
   106   110   108   ar
   107    13    14    1
   108   138   139    1
   109   138   135    1
   110    15    14    2
   111   101   100    1
   112    11     9   ar
   113    11    10   ar
   114    63    61    1
   115    56    55    2
   116    55    54    1
   117     9     7   ar
   118   136   137    2
   119   136   135    1
   120    14    20   am
   121    80    81   ar
   122   109   108   ar
   123   148   150    1
   124   108   107    1
   125   135   134    1
   126    77    79   ar
   127    10     8   ar
   128    53    54    1
   129    61    60    2
   130    61    62    1
   131    54    57    1
   132     7     6   ar
   133    60    59    1
   134    20    21    1
   135    47    46    2
   136    57    58    1
   137    81    79   ar
   138    81    82    1
   139   134   127   am
   140   107   104    1
   141    21    22    1
   142    21    24    1
   143    58    59    1
   144    33    32    1
   145     8     6   ar
   146    46    45    1
   147     6     5    1
   148    22    23    2
   149    22    28   am
   150    32    29    1
   151   127   128    2
   152   127   126    1
   153    24    25    1
   154    28    29    1
   155   104   103    1
   156   104   105    1
   157    26    25   ar
   158   133   131   am
   159   130   131    1
   160   130   129    1
   161    45    48    1
   162    45    44    1
   163     5     2    1
   164    25    27   ar
   165    48    49    1
   166    51    52    1
   167    51    50    1
   168    29    30    1
   169   131   132    2
   170   126   129    1
   171   126   125    1
   172   105   106    2
   173    31    30    2
   174    38    35    1
   175    38    39    1
   176     2     3    1
   177     2     1    1
   178     3     4    2
   179   124   122   ar
   180   124   123   ar
   181    49    50    1
   182    40    39   ar
   183    40    42   ar
   184   122   120   ar
   185    35    34    1
   186    35    36    1
   187    39    41   ar
   188   123   121   ar
   189    42    43   ar
   190    37    36    2
   191   120   121   ar
   192   120   119    1
   193   119   116    1
   194    41    43   ar
   195   116   117    1
   196   116   115    1
   197   117   118    2
