@<TRIPOS>MOLECULE
tmp/4pzsA00.pdb
 258 259 0 0 0
SMALL
GASTEIGER

@<TRIPOS>ATOM
      1  N         22.2170   48.4610   -7.2720 N.3    88  PHE88      -0.1241
      2  CA        22.1390   49.1680   -5.9970 C.3    88  PHE88       0.1605
      3  C         22.3880   50.6410   -6.2140 C.2    88  PHE88       0.2264
      4  O         23.2760   51.0180   -6.9890 O.2    88  PHE88      -0.2867
      5  CB        23.1610   48.6170   -4.9980 C.3    88  PHE88       0.0534
      6  CG        23.1820   49.3290   -3.6730 C.ar   88  PHE88      -0.0203
      7  CD1       22.3500   48.9320   -2.6440 C.ar   88  PHE88      -0.0042
      8  CD2       24.0600   50.3790   -3.4480 C.ar   88  PHE88      -0.0042
      9  CE1       22.3760   49.5830   -1.4070 C.ar   88  PHE88      -0.0003
     10  CE2       24.0890   51.0370   -2.2160 C.ar   88  PHE88      -0.0003
     11  CZ        23.2560   50.6280   -1.1970 C.ar   88  PHE88      -0.0000
     12  N         21.6670   59.0150    5.3820 N.3   109  ILE109     -0.1231
     13  CA        21.2790   58.3690    4.1470 C.3   109  ILE109      0.1692
     14  C         19.9020   58.8780    3.7570 C.2   109  ILE109      0.2593
     15  O         18.9240   58.6710    4.4830 O.2   109  ILE109     -0.2718
     16  CB        21.2730   56.8220    4.2680 C.3   109  ILE109      0.0266
     17  CG1       22.6000   56.3280    4.8470 C.3   109  ILE109      0.0019
     18  CG2       21.0170   56.1950    2.9020 C.3   109  ILE109      0.0020
     19  CD1       22.7360   54.7910    4.8850 C.3   109  ILE109      0.0001
     20  N         19.8130   59.5580    2.6180 N.am  110  SER110     -0.1938
     21  CA        18.5180   60.0150    2.1320 C.3   110  SER110      0.2055
     22  C         17.6600   58.8030    1.7800 C.2   110  SER110      0.2643
     23  O         16.5480   58.6290    2.2740 O.2   110  SER110     -0.2714
     24  CB        18.6750   60.9270    0.9100 C.3   110  SER110      0.2130
     25  OG        19.4890   62.0460    1.1960 O.3   110  SER110     -0.2179
     26  N         18.1990   57.9530    0.9190 N.am  111  TYR111     -0.1959
     27  CA        17.4970   56.7520    0.5110 C.3   111  TYR111      0.1771
     28  C         18.4410   55.7980   -0.2030 C.2   111  TYR111      0.2619
     29  O         19.5140   56.1900   -0.6890 O.2   111  TYR111     -0.2715
     30  CB        16.2970   57.0770   -0.3950 C.3   111  TYR111      0.0574
     31  CG        16.3730   58.4040   -1.1320 C.ar  111  TYR111     -0.0198
     32  CD1       17.2080   58.5720   -2.2270 C.ar  111  TYR111     -0.0009
     33  CD2       15.5950   59.4880   -0.7290 C.ar  111  TYR111     -0.0009
     34  CE1       17.2740   59.7900   -2.9020 C.ar  111  TYR111      0.0417
     35  CE2       15.6540   60.7130   -1.4000 C.ar  111  TYR111      0.0417
     36  CZ        16.4920   60.8520   -2.4870 C.ar  111  TYR111      0.1957
     37  OH        16.5550   62.0630   -3.1530 O.3   111  TYR111     -0.2866
     38  N         18.0420   54.5330   -0.2220 N.am  112  LEU112     -0.1963
     39  CA        18.7690   53.5130   -0.9550 C.3   112  LEU112      0.1728
     40  C         17.7510   52.5730   -1.5710 C.2   112  LEU112      0.2616
     41  O         16.6080   52.4740   -1.1140 O.2   112  LEU112     -0.2715
     42  CB        19.7460   52.7560   -0.0480 C.3   112  LEU112      0.0311
     43  CG        19.2140   51.7670    1.0070 C.3   112  LEU112      0.0022
     44  CD1       18.8240   50.4070    0.4200 C.3   112  LEU112      0.0001
     45  CD2       20.2640   51.5790    2.1110 C.3   112  LEU112      0.0001
     46  N         18.1680   51.8740   -2.6180 N.am  113  ASP113     -0.1957
     47  CA        17.2390   51.0490   -3.3650 C.3   113  ASP113      0.1840
     48  C         18.0530   49.9700   -4.0540 C.2   113  ASP113      0.2622
     49  O         19.2560   50.1330   -4.2600 O.2   113  ASP113     -0.2715
     50  CB        16.4660   51.9100   -4.3630 C.3   113  ASP113      0.1450
     51  CG        15.2380   51.2240   -4.9390 C.2   113  ASP113      0.3671
     52  OD1       14.7610   50.2080   -4.3910 O.co2 113  ASP113     -0.2456
     53  OD2       14.7260   51.7510   -5.9450 O.co2 113  ASP113     -0.2456
     54  N         17.4000   48.8670   -4.3910 N.am  114  SER114     -0.1950
     55  CA        18.0570   47.7950   -5.1150 C.3   114  SER114      0.1924
     56  C         17.0790   47.0680   -6.0140 C.2   114  SER114      0.2314
     57  O         15.8610   47.1170   -5.8090 O.2   114  SER114     -0.2863
     58  CB        18.6850   46.8000   -4.1480 C.3   114  SER114      0.2116
     59  OG        17.6620   46.1180   -3.4340 O.3   114  SER114     -0.2180
     60  N         16.8570   42.9780   -7.3080 N.3   116  HIS116     -0.1241
     61  CA        17.4260   41.7910   -6.6870 C.3   116  HIS116      0.1621
     62  C         18.1270   40.7980   -7.6300 C.2   116  HIS116      0.2264
     63  O         18.0790   39.5950   -7.3930 O.2   116  HIS116     -0.2867
     64  CB        16.3200   41.0670   -5.9050 C.3   116  HIS116      0.0745
     65  CG        15.2220   40.5000   -6.7660 C.ar  116  HIS116      0.0817
     66  ND1       14.1500   39.8080   -6.2400 N.ar  116  HIS116     -0.2268
     67  CD2       15.0420   40.5040   -8.1070 C.ar  116  HIS116      0.1154
     68  CE1       13.3600   39.4040   -7.2220 C.ar  116  HIS116      0.1986
     69  NE2       13.8770   39.8170   -8.3670 N.ar  116  HIS116     -0.2212
     70  N         22.7380   34.7990   -5.9130 N.3   121  LYS121     -0.1245
     71  CA        21.7200   35.1520   -4.9240 C.3   121  LYS121      0.1561
     72  C         22.2350   35.1320   -3.4910 C.2   121  LYS121      0.2260
     73  O         21.9550   36.0370   -2.7210 O.2   121  LYS121     -0.2867
     74  CB        20.5250   34.1830   -5.0290 C.3   121  LYS121      0.0271
     75  CG        19.5960   34.4520   -6.1840 C.3   121  LYS121      0.0035
     76  CD        18.5320   33.3670   -6.2890 C.3   121  LYS121      0.0206
     77  CE        17.7510   33.2130   -4.9930 C.3   121  LYS121      0.1093
     78  NZ        16.3480   32.7840   -5.2910 N.3   121  LYS121     -0.1314
     79  N         23.9950   38.3620   -2.2500 N.3   124  ARG124     -0.1231
     80  CA        23.3810   39.6760   -2.4860 C.3   124  ARG124      0.1694
     81  C         23.3180   40.5520   -1.2180 C.2   124  ARG124      0.2592
     82  O         23.8110   41.6860   -1.2240 O.2   124  ARG124     -0.2718
     83  CB        21.9590   39.5010   -3.0670 C.3   124  ARG124      0.0321
     84  CG        21.2290   40.8150   -3.3560 C.3   124  ARG124      0.0489
     85  CD        19.7490   40.5840   -3.7300 C.3   124  ARG124      0.2205
     86  NE        18.9710   40.1600   -2.5710 N.pl3 124  ARG124     -0.0865
     87  CZ        18.6200   38.9040   -2.3030 C.cat 124  ARG124      0.5346
     88  NH1       18.9710   37.9200   -3.1130 N.pl3 124  ARG124      0.1354
     89  NH2       17.9050   38.6370   -1.2160 N.pl3 124  ARG124      0.1354
     90  N         22.7210   40.0310   -0.1460 N.am  125  THR125     -0.1953
     91  CA        22.5570   40.7950    1.0830 C.3   125  THR125      0.1897
     92  C         23.9340   41.1370    1.6580 C.2   125  THR125      0.2313
     93  O         24.1620   42.2610    2.1060 O.2   125  THR125     -0.2863
     94  CB        21.7120   40.0370    2.1590 C.3   125  THR125      0.1794
     95  OG1       20.3580   39.9020    1.7050 O.3   125  THR125     -0.2208
     96  CG2       21.7130   40.8230    3.4760 C.3   125  THR125      0.0378
     97  N         25.3060   44.0950   -0.2370 N.3   128  TYR128     -0.1241
     98  CA        24.6660   45.3440    0.2270 C.3   128  TYR128      0.1605
     99  C         25.3160   45.8210    1.5220 C.2   128  TYR128      0.2264
    100  O         25.6640   46.9980    1.6600 O.2   128  TYR128     -0.2867
    101  CB        23.1520   45.1790    0.4560 C.3   128  TYR128      0.0534
    102  CG        22.3210   44.8520   -0.7710 C.ar  128  TYR128     -0.0201
    103  CD1       22.7370   45.2300   -2.0500 C.ar  128  TYR128     -0.0009
    104  CD2       21.1150   44.1660   -0.6500 C.ar  128  TYR128     -0.0009
    105  CE1       21.9730   44.9230   -3.1720 C.ar  128  TYR128      0.0417
    106  CE2       20.3430   43.8570   -1.7760 C.ar  128  TYR128      0.0417
    107  CZ        20.7790   44.2390   -3.0230 C.ar  128  TYR128      0.1957
    108  OH        20.0220   43.9360   -4.1340 O.3   128  TYR128     -0.2866
    109  N         20.2020   56.8800   10.0670 N.3   149  ILE149     -0.1231
    110  CA        19.3940   56.0700    9.1580 C.3   149  ILE149      0.1692
    111  C         17.9270   56.0190    9.5800 C.2   149  ILE149      0.2592
    112  O         17.6040   55.7570   10.7370 O.2   149  ILE149     -0.2718
    113  CB        19.9380   54.6370    9.0650 C.3   149  ILE149      0.0266
    114  CG1       21.2690   54.6400    8.3160 C.3   149  ILE149      0.0019
    115  CG2       18.9400   53.7290    8.3780 C.3   149  ILE149      0.0020
    116  CD1       22.0600   53.3710    8.4970 C.3   149  ILE149      0.0001
    117  N         17.0510   56.3000    8.6230 N.am  150  TRP150     -0.1976
    118  CA        15.6030   56.1640    8.7680 C.3   150  TRP150      0.1640
    119  C         15.2040   54.8540    8.0780 C.2   150  TRP150      0.2290
    120  O         15.2330   54.7700    6.8530 O.2   150  TRP150     -0.2864
    121  CB        14.9090   57.3810    8.1380 C.3   150  TRP150      0.0576
    122  CG        13.3930   57.3960    8.1600 C.ar  150  TRP150      0.0006
    123  CD1       12.5620   56.5260    8.7950 C.ar  150  TRP150      0.0946
    124  CD2       12.5470   58.3540    7.5030 C.ar  150  TRP150      0.0152
    125  NE1       11.2490   56.8710    8.5660 N.ar  150  TRP150     -0.2442
    126  CE2       11.2140   57.9960    7.7830 C.ar  150  TRP150      0.0810
    127  CE3       12.7930   59.4760    6.7030 C.ar  150  TRP150      0.0012
    128  CZ2       10.1240   58.7210    7.2900 C.ar  150  TRP150      0.0191
    129  CZ3       11.7140   60.1950    6.2110 C.ar  150  TRP150      0.0001
    130  CH2       10.3960   59.8150    6.5090 C.ar  150  TRP150      0.0015
    131  N         12.9060   53.2310    6.6550 N.3   152  CYS152     -0.1221
    132  CA        11.5520   53.3640    6.1190 C.3   152  CYS152      0.1794
    133  C         11.3520   52.6150    4.8030 C.2   152  CYS152      0.2443
    134  O         11.8090   53.0610    3.7660 O.2   152  CYS152     -0.2733
    135  CB        11.2080   54.8320    5.8930 C.3   152  CYS152      0.0970
    136  SG         9.4900   55.0470    5.4110 S.3   152  CYS152     -0.0800
    137  N         10.6450   51.4810    4.8410 N.am  153  PRO153     -0.2718
    138  CA        10.3480   50.8140    3.5690 C.3   153  PRO153      0.1520
    139  C          9.3750   51.6330    2.7160 C.2   153  PRO153      0.2440
    140  O          8.5240   52.3400    3.2660 O.2   153  PRO153     -0.2731
    141  CB         9.7210   49.4880    4.0030 C.3   153  PRO153      0.0310
    142  CG         9.1680   49.7480    5.3520 C.3   153  PRO153      0.0237
    143  CD        10.0470   50.7890    5.9960 C.3   153  PRO153      0.0939
    144  N          9.5000   51.5350    1.3840 N.am  154  PRO154     -0.2727
    145  CA         8.6440   52.2840    0.4590 C.3   154  PRO154      0.1402
    146  C          7.2240   51.7610    0.4780 C.2   154  PRO154      0.2269
    147  O          7.0080   50.5750    0.7220 O.2   154  PRO154     -0.2865
    148  CB         9.3020   52.0480   -0.9100 C.3   154  PRO154      0.0296
    149  CG        10.0310   50.7690   -0.7650 C.3   154  PRO154      0.0237
    150  CD        10.4440   50.6490    0.6770 C.3   154  PRO154      0.0939
    151  N         11.9290   53.9400   -4.8440 N.3   160  TYR160     -0.1241
    152  CA        12.8050   54.9880   -4.3230 C.3   160  TYR160      0.1605
    153  C         13.6930   55.5500   -5.4250 C.2   160  TYR160      0.2264
    154  O         13.7100   56.7560   -5.6610 O.2   160  TYR160     -0.2867
    155  CB        13.6500   54.4770   -3.1490 C.3   160  TYR160      0.0534
    156  CG        12.8950   54.4430   -1.8360 C.ar  160  TYR160     -0.0201
    157  CD1       11.6330   55.0140   -1.7270 C.ar  160  TYR160     -0.0009
    158  CD2       13.4430   53.8530   -0.7050 C.ar  160  TYR160     -0.0009
    159  CE1       10.9380   54.9890   -0.5360 C.ar  160  TYR160      0.0417
    160  CE2       12.7540   53.8250    0.4930 C.ar  160  TYR160      0.0417
    161  CZ        11.4960   54.3960    0.5710 C.ar  160  TYR160      0.1957
    162  OH        10.7930   54.3730    1.7590 O.3   160  TYR160     -0.2866
    163  N         10.2220   47.9540  -10.1850 N.3   165  HIS165     -0.1241
    164  CA        10.9360   46.8200   -9.6170 C.3   165  HIS165      0.1621
    165  C         10.3260   45.5310  -10.1220 C.2   165  HIS165      0.2264
    166  O          9.2130   45.5380  -10.6510 O.2   165  HIS165     -0.2867
    167  CB        10.8930   46.8480   -8.0840 C.3   165  HIS165      0.0745
    168  CG        11.8130   47.8580   -7.4740 C.ar  165  HIS165      0.0817
    169  ND1       11.6820   49.2110   -7.6940 N.ar  165  HIS165     -0.2268
    170  CD2       12.8770   47.7120   -6.6460 C.ar  165  HIS165      0.1154
    171  CE1       12.6310   49.8570   -7.0350 C.ar  165  HIS165      0.1986
    172  NE2       13.3660   48.9710   -6.3870 N.ar  165  HIS165     -0.2212
    173  N          9.9430   40.9010   -6.4370 N.3   169  GLN169     -0.1231
    174  CA        10.8630   41.4140   -5.4130 C.3   169  GLN169      0.1698
    175  C         10.0600   41.9390   -4.2260 C.2   169  GLN169      0.2592
    176  O          9.4810   43.0200   -4.2940 O.2   169  GLN169     -0.2718
    177  CB        11.7810   42.5110   -5.9610 C.3   169  GLN169      0.0381
    178  CG        12.7370   43.0640   -4.8770 C.3   169  GLN169      0.0905
    179  CD        13.7890   44.0090   -5.4260 C.2   169  GLN169      0.2608
    180  OE1       14.2190   43.8770   -6.5700 O.2   169  GLN169     -0.2717
    181  NE2       14.2120   44.9680   -4.6060 N.am  169  GLN169     -0.0878
    182  N         10.0160   41.1640   -3.1440 N.am  170  LYS170     -0.1966
    183  CA         9.2350   41.5430   -1.9620 C.3   170  LYS170      0.1728
    184  C          9.7830   42.7990   -1.2720 C.2   170  LYS170      0.2616
    185  O         10.9950   43.0310   -1.2520 O.2   170  LYS170     -0.2715
    186  CB         9.1930   40.3960   -0.9530 C.3   170  LYS170      0.0311
    187  CG         8.5870   39.0910   -1.4860 C.3   170  LYS170      0.0038
    188  CD         8.3100   38.1250   -0.3450 C.3   170  LYS170      0.0206
    189  CE         7.6540   36.8210   -0.8170 C.3   170  LYS170      0.1093
    190  NZ         8.5690   36.0250   -1.6760 N.3   170  LYS170     -0.1314
    191  N          8.8780   43.5990   -0.7170 N.am  171  ILE171     -0.1964
    192  CA         9.2520   44.7550    0.0940 C.3   171  ILE171      0.1712
    193  C          9.2510   44.3680    1.5660 C.2   171  ILE171      0.2458
    194  O          8.2400   43.8760    2.0830 O.2   171  ILE171     -0.2730
    195  CB         8.2880   45.9460   -0.0990 C.3   171  ILE171      0.0289
    196  CG1        8.1470   46.3120   -1.5750 C.3   171  ILE171      0.0022
    197  CG2        8.7600   47.1470    0.7110 C.3   171  ILE171      0.0023
    198  CD1        7.2250   47.4920   -1.8100 C.3   171  ILE171      0.0001
    199  N         10.3790   44.5830    2.2580 N.am  172  PRO172     -0.2716
    200  CA        10.4250   44.1900    3.6670 C.3   172  PRO172      0.1536
    201  C          9.4670   45.0110    4.5080 C.2   172  PRO172      0.2598
    202  O          9.2410   46.1820    4.2270 O.2   172  PRO172     -0.2715
    203  CB        11.8840   44.4730    4.0680 C.3   172  PRO172      0.0310
    204  CG        12.3300   45.5160    3.1050 C.3   172  PRO172      0.0237
    205  CD        11.6390   45.1900    1.8100 C.3   172  PRO172      0.0939
    206  N          8.9030   44.3970    5.5300 N.am  173  LYS173     -0.1978
    207  CA         8.1160   45.1520    6.4910 C.3   173  LYS173      0.1596
    208  C          9.1060   45.9030    7.3650 C.2   173  LYS173      0.2287
    209  O         10.3130   45.6010    7.3390 O.2   173  LYS173     -0.2864
    210  CB         7.2200   44.2340    7.3200 C.3   173  LYS173      0.0298
    211  CG         5.9810   43.7260    6.5860 C.3   173  LYS173      0.0038
    212  CD         4.8800   44.7870    6.5880 C.3   173  LYS173      0.0206
    213  CE         3.5790   44.2660    5.9930 C.3   173  LYS173      0.1093
    214  NZ         3.7310   43.9060    4.5510 N.3   173  LYS173     -0.1314
    215  N         11.4510   43.7400    9.6040 N.3   176  ARG176     -0.1231
    216  CA        12.4740   43.0700    8.7950 C.3   176  ARG176      0.1694
    217  C         13.5900   44.0250    8.3480 C.2   176  ARG176      0.2591
    218  O         14.7770   43.6810    8.4250 O.2   176  ARG176     -0.2718
    219  CB        11.8450   42.4140    7.5620 C.3   176  ARG176      0.0321
    220  CG        12.8850   41.7970    6.6220 C.3   176  ARG176      0.0489
    221  CD        12.2190   41.1090    5.4370 C.3   176  ARG176      0.2205
    222  NE        11.4700   39.9310    5.8500 N.pl3 176  ARG176     -0.0865
    223  CZ        12.0020   38.7200    5.9750 C.cat 176  ARG176      0.5346
    224  NH1       13.2940   38.5270    5.7250 N.pl3 176  ARG176      0.1354
    225  NH2       11.2480   37.7020    6.3580 N.pl3 176  ARG176      0.1354
    226  N         13.2050   45.2090    7.8780 N.am  177  LEU177     -0.1980
    227  CA        14.1630   46.2300    7.4570 C.3   177  LEU177      0.1596
    228  C         14.9770   46.7270    8.6500 C.2   177  LEU177      0.2287
    229  O         16.1840   46.9600    8.5440 O.2   177  LEU177     -0.2864
    230  CB        13.4420   47.4010    6.7870 C.3   177  LEU177      0.0297
    231  CG        14.3380   48.5150    6.2370 C.3   177  LEU177      0.0022
    232  CD1       15.2730   47.9630    5.1640 C.3   177  LEU177      0.0001
    233  CD2       13.4880   49.6610    5.6580 C.3   177  LEU177      0.0001
    234  N         17.5230   44.1520    9.3960 N.3   180  TRP180     -0.1227
    235  CA        18.4830   44.1860    8.3030 C.3   180  TRP180      0.1737
    236  C         19.5830   45.2080    8.5810 C.2   180  TRP180      0.2595
    237  O         20.7620   44.8650    8.5300 O.2   180  TRP180     -0.2718
    238  CB        17.7540   44.5000    7.0060 C.3   180  TRP180      0.0564
    239  CG        18.5560   44.4220    5.7080 C.ar  180  TRP180      0.0003
    240  CD1       18.7120   43.3220    4.9000 C.ar  180  TRP180      0.0946
    241  CD2       19.2260   45.5040    5.0390 C.ar  180  TRP180      0.0152
    242  NE1       19.4550   43.6510    3.7870 N.ar  180  TRP180     -0.2442
    243  CE2       19.7800   44.9820    3.8450 C.ar  180  TRP180      0.0810
    244  CE3       19.4210   46.8660    5.3370 C.ar  180  TRP180      0.0012
    245  CZ2       20.5160   45.7720    2.9490 C.ar  180  TRP180      0.0191
    246  CZ3       20.1490   47.6460    4.4510 C.ar  180  TRP180      0.0001
    247  CH2       20.6830   47.0980    3.2640 C.ar  180  TRP180      0.0015
    248  N         19.1950   46.4500    8.9000 N.am  181  PHE181     -0.1976
    249  CA        20.1570   47.4710    9.3260 C.3   181  PHE181      0.1639
    250  C         20.9050   47.0720   10.5980 C.2   181  PHE181      0.2290
    251  O         22.1040   47.3440   10.7190 O.2   181  PHE181     -0.2864
    252  CB        19.4670   48.8380    9.5340 C.3   181  PHE181      0.0560
    253  CG        19.1930   49.5780    8.2550 C.ar  181  PHE181     -0.0200
    254  CD1       20.2410   50.0680    7.4890 C.ar  181  PHE181     -0.0042
    255  CD2       17.8860   49.7620    7.8070 C.ar  181  PHE181     -0.0042
    256  CE1       19.9940   50.7440    6.2990 C.ar  181  PHE181     -0.0003
    257  CE2       17.6250   50.4320    6.6230 C.ar  181  PHE181     -0.0003
    258  CZ        18.6780   50.9260    5.8640 C.ar  181  PHE181     -0.0000
@<TRIPOS>BOND
     1   166   165    2
     2   163   164    1
     3   165   164    1
     4   164   167    1
     5    69    67   ar
     6    69    68   ar
     7    67    65   ar
     8   167   168    1
     9   169   168   ar
    10   169   171   ar
    11    62    63    2
    12    62    61    1
    13   168   170   ar
    14    60    61    1
    15     1     2    1
    16    68    66   ar
    17   171   172   ar
    18     4     3    2
    19    65    66   ar
    20    65    64    1
    21    61    64    1
    22   170   172   ar
    23   180   179    2
    24   173   174    1
    25    76    75    1
    26    76    77    1
    27     3     2    1
    28    75    74    1
    29    56    57    2
    30    56    55    1
    31     2     5    1
    32   177   174    1
    33   177   178    1
    34    53    51   ar
    35    70    71    1
    36   154   153    2
    37   179   178    1
    38   179   181   am
    39   153   152    1
    40   174   175    1
    41    78    77    1
    42    55    54    1
    43    55    58    1
    44    74    71    1
    45     5     6    1
    46    51    52   ar
    47    51    50    1
    48    71    72    1
    49   151   152    1
    50    54    48   am
    51    50    47    1
    52   152   155    1
    53   176   175    2
    54    49    48    2
    55   175   182   am
    56    58    59    1
    57   108   107    1
    58    48    47    1
    59    85    84    1
    60    85    86    1
    61     6     8   ar
    62     6     7   ar
    63    72    73    2
    64     8    10   ar
    65    47    46    1
    66    84    83    1
    67   105   107   ar
    68   105   103   ar
    69    37    36    1
    70   155   156    1
    71   182   183    1
    72    88    87    1
    73    83    80    1
    74   107   106   ar
    75    34    36   ar
    76    34    32   ar
    77     7     9   ar
    78    46    40   am
    79    86    87    2
    80    36    35   ar
    81    80    79    1
    82    80    81    1
    83    87    89    1
    84    32    31   ar
    85    10    11   ar
    86   103   102   ar
    87   183   184    1
    88   183   186    1
    89   156   157   ar
    90   156   158   ar
    91   198   196    1
    92   106   104   ar
    93   157   159   ar
    94   190   189    1
    95   196   195    1
    96    40    41    2
    97    40    39    1
    98   187   186    1
    99   187   188    1
   100     9    11   ar
   101    35    33   ar
   102   184   185    2
   103   184   191   am
   104    82    81    2
   105    81    90   am
   106    31    33   ar
   107    31    30    1
   108    39    38    1
   109    39    42    1
   110   148   149    1
   111   148   145    1
   112   189   188    1
   113   102   104   ar
   114   102   101    1
   115   149   150    1
   116   191   192    1
   117   158   160   ar
   118    29    28    2
   119   159   161   ar
   120    30    27    1
   121    97    98    1
   122    38    28   am
   123    28    27    1
   124    90    91    1
   125   195   192    1
   126   195   197    1
   127    42    43    1
   128   192   193    1
   129    98   101    1
   130    98    99    1
   131    44    43    1
   132   145   146    1
   133   145   144    1
   134   146   147    2
   135   160   161   ar
   136    27    26    1
   137   161   162    1
   138   150   144    1
   139    24    25    1
   140    24    21    1
   141    26    22   am
   142    43    45    1
   143    91    92    1
   144    91    94    1
   145   144   139   am
   146    99   100    2
   147   193   194    2
   148   193   199   am
   149    92    93    2
   150    95    94    1
   151    22    21    1
   152    22    23    2
   153   205   199    1
   154   205   204    1
   155    21    20    1
   156    94    96    1
   157   199   200    1
   158    20    14   am
   159   139   140    2
   160   139   138    1
   161    18    16    1
   162   245   247   ar
   163   245   243   ar
   164   204   203    1
   165   247   246   ar
   166   138   141    1
   167   138   137    1
   168   200   203    1
   169   200   201    1
   170    14    13    1
   171    14    15    2
   172   134   133    2
   173   242   243   ar
   174   242   240   ar
   175   243   241   ar
   176   141   142    1
   177    13    16    1
   178    13    12    1
   179   202   201    2
   180    16    17    1
   181   246   244   ar
   182   201   206   am
   183   214   213    1
   184   133   137   am
   185   133   132    1
   186   137   143    1
   187    17    19    1
   188   240   239   ar
   189   241   244   ar
   190   241   239   ar
   191   232   231    1
   192   142   143    1
   193   136   135    1
   194   221   222    1
   195   221   220    1
   196   206   207    1
   197   233   231    1
   198   239   238    1
   199   224   223    1
   200   222   223    2
   201   258   256   ar
   202   258   257   ar
   203   135   132    1
   204   223   225    1
   205   213   212    1
   206   132   131    1
   207   129   130   ar
   208   129   127   ar
   209   231   230    1
   210   256   254   ar
   211   207   210    1
   212   207   208    1
   213   130   128   ar
   214   211   212    1
   215   211   210    1
   216   220   219    1
   217   257   255   ar
   218   127   124   ar
   219   230   227    1
   220   120   119    2
   221   238   235    1
   222   128   126   ar
   223   209   208    2
   224   227   226    1
   225   227   228    1
   226   254   253   ar
   227   124   126   ar
   228   124   122   ar
   229   219   216    1
   230   126   125   ar
   231   255   253   ar
   232   226   217   am
   233   119   118    1
   234   121   122    1
   235   121   118    1
   236   122   123   ar
   237   253   252    1
   238   235   236    1
   239   235   234    1
   240   114   116    1
   241   114   113    1
   242   217   218    2
   243   217   216    1
   244   115   113    1
   245   237   236    2
   246   229   228    2
   247   125   123   ar
   248   236   248   am
   249   117   118    1
   250   117   111   am
   251   216   215    1
   252   248   249    1
   253   113   110    1
   254   110   111    1
   255   110   109    1
   256   249   252    1
   257   249   250    1
   258   111   112    2
   259   250   251    2
