@<TRIPOS>MOLECULE
tmp/4pzvA00.pdb
 238 228 0 0 0
SMALL
GASTEIGER

@<TRIPOS>ATOM
      1  N          3.5840   24.3650   -3.2190 N.3     8  GLY8       -0.1225
      2  CA         4.9770   24.7350   -3.2280 C.3     8  GLY8        0.1811
      3  C          5.2140   25.9620   -2.3640 C.2     8  GLY8        0.2280
      4  O          4.3130   26.7870   -2.1590 O.2     8  GLY8       -0.2866
      5  N         13.5730   20.4540   -3.8590 N.3    42  SER42      -0.1202
      6  CA        14.2050   20.6390   -5.1590 C.3    42  SER42       0.2020
      7  C         14.7380   22.0450   -5.3100 C.2    42  SER42       0.2619
      8  O         14.2760   22.9630   -4.6410 O.2    42  SER42      -0.2717
      9  CB        13.2180   20.3250   -6.3070 C.3    42  SER42       0.2103
     10  OG        12.0340   21.1100   -6.2050 O.3    42  SER42      -0.2182
     11  N         15.7170   22.2110   -6.1900 N.am   43  LYS43      -0.1965
     12  CA        16.1890   23.5430   -6.5530 C.3    43  LYS43       0.1728
     13  C         15.1110   24.3130   -7.2830 C.2    43  LYS43       0.2616
     14  O         14.3970   23.7570   -8.1130 O.2    43  LYS43      -0.2715
     15  CB        17.4030   23.4600   -7.4630 C.3    43  LYS43       0.0311
     16  CG        18.6170   22.8600   -6.7920 C.3    43  LYS43       0.0038
     17  CD        19.8010   22.9660   -7.7180 C.3    43  LYS43       0.0206
     18  CE        21.0680   22.3840   -7.1290 C.3    43  LYS43       0.1093
     19  NZ        22.2090   22.6280   -8.0660 N.3    43  LYS43      -0.1314
     20  N         15.0000   25.5960   -6.9600 N.am   44  ALA44      -0.1963
     21  CA        14.1310   26.4910   -7.6880 C.3    44  ALA44       0.1728
     22  C         14.3740   26.2920   -9.1750 C.2    44  ALA44       0.2616
     23  O         15.5050   26.3280   -9.6320 O.2    44  ALA44      -0.2715
     24  CB        14.4200   27.9410   -7.2980 C.3    44  ALA44       0.0334
     25  N         13.3070   26.0310   -9.9130 N.am   45  VAL45      -0.1963
     26  CA        13.3620   26.0450  -11.3660 C.3    45  VAL45       0.1727
     27  C         13.2150   27.4860  -11.8180 C.2    45  VAL45       0.2616
     28  O         12.1800   28.1180  -11.6010 O.2    45  VAL45      -0.2715
     29  CB        12.2420   25.1960  -11.9640 C.3    45  VAL45       0.0290
     30  CG1       12.2660   25.2770  -13.4790 C.3    45  VAL45       0.0023
     31  CG2       12.3760   23.7520  -11.4960 C.3    45  VAL45       0.0023
     32  N         14.2760   28.0130  -12.4170 N.am   46  LEU46      -0.1977
     33  CA        14.3350   29.4160  -12.7840 C.3    46  LEU46       0.1596
     34  C         14.6790   29.6020  -14.2440 C.2    46  LEU46       0.2287
     35  O         15.2720   28.7330  -14.8830 O.2    46  LEU46      -0.2864
     36  CB        15.4200   30.1420  -11.9970 C.3    46  LEU46       0.0297
     37  CG        15.2940   30.1740  -10.4880 C.3    46  LEU46       0.0022
     38  CD1       16.3410   31.0730   -9.8890 C.3    46  LEU46       0.0001
     39  CD2       13.9330   30.6550  -10.1500 C.3    46  LEU46       0.0001
     40  N         13.0980   24.7410   -2.7880 N.3    58  PHE58      -0.1241
     41  CA        11.6520   24.6140   -2.6330 C.3    58  PHE58       0.1605
     42  C         11.2870   23.4370   -1.7450 C.2    58  PHE58       0.2264
     43  O         12.0120   22.4450   -1.6780 O.2    58  PHE58      -0.2867
     44  CB        10.9820   24.4200   -4.0040 C.3    58  PHE58       0.0534
     45  CG        10.4650   25.6960   -4.6150 C.ar   58  PHE58      -0.0203
     46  CD1       11.3160   26.5630   -5.2850 C.ar   58  PHE58      -0.0042
     47  CD2        9.1230   26.0180   -4.5290 C.ar   58  PHE58      -0.0042
     48  CE1       10.8300   27.7360   -5.8380 C.ar   58  PHE58      -0.0003
     49  CE2        8.6390   27.1730   -5.0750 C.ar   58  PHE58      -0.0003
     50  CZ         9.4840   28.0340   -5.7380 C.ar   58  PHE58      -0.0000
     51  N          7.9370   21.0500   -1.7180 N.3    60  ASN60      -0.1240
     52  CA         6.7360   20.7670   -2.5290 C.3    60  ASN60       0.1653
     53  C          5.9990   19.5360   -2.0260 C.2    60  ASN60       0.2266
     54  O          6.6140   18.6340   -1.4690 O.2    60  ASN60      -0.2867
     55  CB         7.0910   20.5220   -4.0110 C.3    60  ASN60       0.1155
     56  CG         7.4310   21.7920   -4.7610 C.2    60  ASN60       0.2627
     57  OD1        8.5960   22.1600   -4.8710 O.2    60  ASN60      -0.2716
     58  ND2        6.4270   22.4350   -5.3250 N.am   60  ASN60      -0.0877
     59  N        -10.2940   27.1090   -8.5760 N.3    75  LEU75      -0.1245
     60  CA        -9.1430   27.9770   -8.8450 C.3    75  LEU75       0.1561
     61  C         -9.2800   29.2780   -8.0690 C.2    75  LEU75       0.2260
     62  O         -8.3170   29.7550   -7.4650 O.2    75  LEU75      -0.2867
     63  CB        -8.9710   28.2500  -10.3460 C.3    75  LEU75       0.0270
     64  CG        -7.8180   29.2200  -10.6560 C.3    75  LEU75       0.0019
     65  CD1       -6.4830   28.5760  -10.3070 C.3    75  LEU75       0.0001
     66  CD2       -7.8240   29.6930  -12.0920 C.3    75  LEU75       0.0001
     67  N         -6.5790   30.7670   -5.1690 N.3    79  LYS79      -0.1245
     68  CA        -6.0390   32.1250   -5.1520 C.3    79  LYS79       0.1561
     69  C         -6.3780   32.8170   -3.8270 C.2    79  LYS79       0.2260
     70  O         -5.5330   33.4750   -3.2150 O.2    79  LYS79      -0.2867
     71  CB        -6.6080   32.9420   -6.3080 C.3    79  LYS79       0.0271
     72  CG        -6.3300   32.3560   -7.6910 C.3    79  LYS79       0.0035
     73  CD        -6.8490   33.2880   -8.7570 C.3    79  LYS79       0.0206
     74  CE        -6.6210   32.7250  -10.1450 C.3    79  LYS79       0.1093
     75  NZ        -6.9620   33.7250  -11.1710 N.3    79  LYS79      -0.1314
     76  N         -4.0170   31.5530   -1.2560 N.3    82  GLU82      -0.1245
     77  CA        -2.6600   32.0620   -1.4290 C.3    82  GLU82       0.1567
     78  C         -2.6020   33.4750   -0.8580 C.2    82  GLU82       0.2260
     79  O         -1.6390   33.8670   -0.1980 O.2    82  GLU82      -0.2867
     80  CB        -2.2720   32.0750   -2.9170 C.3    82  GLU82       0.0388
     81  CG        -2.0500   30.6830   -3.5470 C.3    82  GLU82       0.1160
     82  CD        -1.6900   30.7900   -5.0070 C.2    82  GLU82       0.3649
     83  OE1       -2.1070   31.7880   -5.6140 O.co2  82  GLU82      -0.2457
     84  OE2       -0.9950   29.9080   -5.5520 O.co2  82  GLU82      -0.2457
     85  N          0.6870   35.6430   -0.0910 N.3    87  ARG87      -0.1245
     86  CA         1.4100   35.7160   -1.3530 C.3    87  ARG87       0.1563
     87  C          1.0410   37.0000   -2.0710 C.2    87  ARG87       0.2260
     88  O         -0.0920   37.4440   -1.9840 O.2    87  ARG87      -0.2867
     89  CB         1.0630   34.5210   -2.2410 C.3    87  ARG87       0.0307
     90  CG         1.8540   34.5190   -3.5310 C.3    87  ARG87       0.0489
     91  CD         1.5090   33.3910   -4.4540 C.3    87  ARG87       0.2205
     92  NE         2.4070   33.4300   -5.6010 N.pl3  87  ARG87      -0.0865
     93  CZ         2.4930   32.4860   -6.5280 C.cat  87  ARG87       0.5346
     94  NH1        1.7350   31.4010   -6.4670 N.pl3  87  ARG87       0.1354
     95  NH2        3.3640   32.6230   -7.5140 N.pl3  87  ARG87       0.1354
     96  N          7.0020   36.8720  -11.9410 N.3    93  ALA93      -0.1231
     97  CA         6.9410   35.4330  -12.1360 C.3    93  ALA93       0.1694
     98  C          8.3200   34.8420  -11.8400 C.2    93  ALA93       0.2592
     99  O          9.3440   35.5310  -11.9600 O.2    93  ALA93      -0.2718
    100  CB         6.5100   35.1030  -13.5560 C.3    93  ALA93       0.0304
    101  N          8.3400   33.5730  -11.4440 N.am   94  TRP94      -0.1976
    102  CA         9.5760   32.8960  -11.0700 C.3    94  TRP94       0.1640
    103  C         10.1620   33.3350   -9.7180 C.2    94  TRP94       0.2290
    104  O         11.1090   32.7090   -9.2260 O.2    94  TRP94      -0.2864
    105  CB        10.6300   33.0900  -12.1590 C.3    94  TRP94       0.0576
    106  CG        10.1350   32.7900  -13.5490 C.ar   94  TRP94       0.0006
    107  CD1        9.6460   33.6860  -14.4630 C.ar   94  TRP94       0.0946
    108  CD2       10.0920   31.5060  -14.1820 C.ar   94  TRP94       0.0152
    109  NE1        9.2990   33.0300  -15.6280 N.ar   94  TRP94      -0.2442
    110  CE2        9.5650   31.6920  -15.4790 C.ar   94  TRP94       0.0810
    111  CE3       10.4540   30.2190  -13.7870 C.ar   94  TRP94       0.0012
    112  CZ2        9.3890   30.6360  -16.3740 C.ar   94  TRP94       0.0191
    113  CZ3       10.2770   29.1740  -14.6740 C.ar   94  TRP94       0.0001
    114  CH2        9.7520   29.3880  -15.9540 C.ar   94  TRP94       0.0015
    115  N          8.0940   32.7300   -3.1890 N.3    97  ARG97      -0.1245
    116  CA         6.6940   32.8700   -2.7830 C.3    97  ARG97       0.1563
    117  C          6.4210   32.0820   -1.5290 C.2    97  ARG97       0.2260
    118  O          6.9620   30.9880   -1.3430 O.2    97  ARG97      -0.2867
    119  CB         5.7270   32.4060   -3.8820 C.3    97  ARG97       0.0307
    120  CG         5.6360   30.8890   -4.0820 C.3    97  ARG97       0.0489
    121  CD         6.8760   30.3180   -4.7980 C.3    97  ARG97       0.2205
    122  NE         7.1370   31.0840   -6.0120 N.pl3  97  ARG97      -0.0865
    123  CZ         6.6060   30.8240   -7.2060 C.cat  97  ARG97       0.5346
    124  NH1        5.8240   29.7680   -7.3860 N.pl3  97  ARG97       0.1354
    125  NH2        6.8810   31.6120   -8.2350 N.pl3  97  ARG97       0.1354
    126  N          2.1400   28.5220   -3.0300 N.3   100  ASP100     -0.1225
    127  CA         1.6980   28.4350   -4.4090 C.3   100  ASP100      0.1805
    128  C          0.8290   27.1890   -4.5100 C.2   100  ASP100      0.2598
    129  O          1.2350   26.1100   -4.0700 O.2   100  ASP100     -0.2718
    130  CB         2.9190   28.3880   -5.3320 C.3   100  ASP100      0.1424
    131  CG         2.6560   27.6480   -6.6270 C.2   100  ASP100      0.3668
    132  OD1        2.0400   28.2380   -7.5500 O.co2 100  ASP100     -0.2456
    133  OD2        3.0840   26.4780   -6.7190 O.co2 100  ASP100     -0.2456
    134  N         -0.3870   27.3580   -5.0240 N.am  101  LEU101     -0.1966
    135  CA        -1.3460   26.2650   -5.1200 C.3   101  LEU101      0.1728
    136  C         -1.8610   26.1710   -6.5470 C.2   101  LEU101      0.2616
    137  O         -2.3270   27.1550   -7.1070 O.2   101  LEU101     -0.2715
    138  CB        -2.5230   26.5100   -4.1920 C.3   101  LEU101      0.0311
    139  CG        -2.1250   26.7350   -2.7370 C.3   101  LEU101      0.0022
    140  CD1       -3.3120   27.0610   -1.9060 C.3   101  LEU101      0.0001
    141  CD2       -1.4700   25.4870   -2.2300 C.3   101  LEU101      0.0001
    142  N         -1.7850   24.9880   -7.1340 N.am  102  ASP102     -0.1957
    143  CA        -2.3180   24.8090   -8.4700 C.3   102  ASP102      0.1840
    144  C         -3.0540   23.4930   -8.5970 C.2   102  ASP102      0.2621
    145  O         -2.9110   22.5970   -7.7620 O.2   102  ASP102     -0.2715
    146  CB        -1.2070   24.9130   -9.5120 C.3   102  ASP102      0.1450
    147  CG         0.0100   24.0990   -9.1480 C.2   102  ASP102      0.3671
    148  OD1       -0.1460   23.0350   -8.5220 O.co2 102  ASP102     -0.2456
    149  OD2        1.1270   24.5380   -9.4780 O.co2 102  ASP102     -0.2456
    150  N         -3.8630   23.3940   -9.6440 N.am  103  ILE103     -0.1977
    151  CA        -4.5890   22.1670   -9.9250 C.3   103  ILE103      0.1596
    152  C         -3.7240   21.3540  -10.8720 C.2   103  ILE103      0.2287
    153  O         -3.5660   21.7150  -12.0360 O.2   103  ILE103     -0.2864
    154  CB        -5.9730   22.4120  -10.5530 C.3   103  ILE103      0.0276
    155  CG1       -6.7940   23.3820   -9.6990 C.3   103  ILE103      0.0022
    156  CG2       -6.6940   21.0800  -10.7000 C.3   103  ILE103      0.0022
    157  CD1       -8.0990   23.8310  -10.3560 C.3   103  ILE103      0.0001
    158  N         -7.4530   29.7780  -21.5250 N.3   114  ASP114     -0.1225
    159  CA        -6.3540   30.6920  -21.2570 C.3   114  ASP114      0.1805
    160  C         -6.1070   30.8140  -19.7720 C.2   114  ASP114      0.2598
    161  O         -4.9660   30.9330  -19.3310 O.2   114  ASP114     -0.2718
    162  CB        -6.6500   32.0850  -21.8170 C.3   114  ASP114      0.1424
    163  CG        -6.5630   32.1270  -23.3300 C.2   114  ASP114      0.3668
    164  OD1       -7.5980   31.8630  -23.9940 O.co2 114  ASP114     -0.2456
    165  OD2       -5.4480   32.3960  -23.8470 O.co2 114  ASP114     -0.2456
    166  N         -7.1850   30.8000  -19.0020 N.am  115  LYS115     -0.1966
    167  CA        -7.1000   31.0680  -17.5810 C.3   115  LYS115      0.1728
    168  C         -6.7620   29.8070  -16.7710 C.2   115  LYS115      0.2616
    169  O         -6.1790   29.8850  -15.6820 O.2   115  LYS115     -0.2715
    170  CB        -8.4310   31.6470  -17.1130 C.3   115  LYS115      0.0311
    171  CG        -8.4130   32.1570  -15.7060 C.3   115  LYS115      0.0038
    172  CD        -9.8030   32.5250  -15.2250 C.3   115  LYS115      0.0206
    173  CE       -10.7050   31.2950  -15.1000 C.3   115  LYS115      0.1093
    174  NZ       -11.9700   31.6500  -14.3820 N.3   115  LYS115     -0.1314
    175  N         -7.1340   28.6560  -17.3060 N.am  116  LEU116     -0.1963
    176  CA        -6.9570   27.3940  -16.6020 C.3   116  LEU116      0.1728
    177  C         -6.7150   26.2390  -17.5830 C.2   116  LEU116      0.2617
    178  O         -7.4800   26.0390  -18.5340 O.2   116  LEU116     -0.2715
    179  CB        -8.1780   27.1330  -15.7250 C.3   116  LEU116      0.0311
    180  CG        -8.2160   25.8490  -14.8890 C.3   116  LEU116      0.0022
    181  CD1       -6.9400   25.6510  -14.0730 C.3   116  LEU116      0.0001
    182  CD2       -9.4530   25.8370  -13.9910 C.3   116  LEU116      0.0001
    183  N         -5.6200   25.5070  -17.3730 N.am  117  THR117     -0.1937
    184  CA        -5.3280   24.3330  -18.1740 C.3   117  THR117      0.2028
    185  C         -5.0980   23.1520  -17.2400 C.2   117  THR117      0.2642
    186  O         -4.2570   23.2180  -16.3350 O.2   117  THR117     -0.2714
    187  CB        -4.0800   24.5320  -19.0640 C.3   117  THR117      0.1808
    188  OG1       -4.2930   25.6310  -19.9770 O.3   117  THR117     -0.2208
    189  CG2       -3.7810   23.2540  -19.8460 C.3   117  THR117      0.0379
    190  N         -5.8380   22.0740  -17.4770 N.am  118  ILE118     -0.1977
    191  CA        -5.7490   20.8590  -16.6770 C.3   118  ILE118      0.1596
    192  C         -5.6680   19.6460  -17.6020 C.2   118  ILE118      0.2287
    193  O         -6.4580   19.5260  -18.5400 O.2   118  ILE118     -0.2864
    194  CB        -6.9890   20.6960  -15.7920 C.3   118  ILE118      0.0276
    195  CG1       -7.1720   21.9240  -14.9030 C.3   118  ILE118      0.0022
    196  CG2       -6.9150   19.4010  -14.9720 C.3   118  ILE118      0.0022
    197  CD1       -8.4880   21.9580  -14.1770 C.3   118  ILE118      0.0001
    198  N         -2.1830   20.5530  -15.4260 N.3   120  HIS120     -0.1226
    199  CA        -1.3060   21.7010  -15.4940 C.3   120  HIS120      0.1752
    200  C         -0.2850   21.4870  -16.5830 C.2   120  HIS120      0.2595
    201  O          0.2600   20.3980  -16.7400 O.2   120  HIS120     -0.2718
    202  CB        -0.5960   21.8760  -14.1670 C.3   120  HIS120      0.0759
    203  CG         0.1450   23.1650  -14.0490 C.ar  120  HIS120      0.0818
    204  ND1        1.3220   23.4110  -14.7160 N.ar  120  HIS120     -0.2268
    205  CD2       -0.1160   24.2770  -13.3240 C.ar  120  HIS120      0.1154
    206  CE1        1.7490   24.6280  -14.4210 C.ar  120  HIS120      0.1986
    207  NE2        0.8950   25.1710  -13.5730 N.ar  120  HIS120     -0.2212
    208  N         -0.0540   22.5450  -17.3430 N.am  121  LYS121     -0.1980
    209  CA         0.7360   22.4780  -18.5690 C.3   121  LYS121      0.1596
    210  C          2.1000   21.8060  -18.3860 C.2   121  LYS121      0.2287
    211  O          2.5970   21.0940  -19.2680 O.2   121  LYS121     -0.2864
    212  CB         0.9880   23.8700  -19.1780 C.3   121  LYS121      0.0298
    213  CG        -0.1920   24.5670  -19.7700 C.3   121  LYS121      0.0038
    214  CD         0.2840   25.9210  -20.3610 C.3   121  LYS121      0.0206
    215  CE         1.1210   25.7580  -21.6390 C.3   121  LYS121      0.1093
    216  NZ         0.3540   25.1480  -22.7590 N.3   121  LYS121     -0.1314
    217  N          7.8510   18.6720  -14.6400 N.3   126  ARG126     -0.1245
    218  CA         8.2480   19.1030  -13.2880 C.3   126  ARG126      0.1563
    219  C          8.1840   17.9580  -12.2620 C.2   126  ARG126      0.2260
    220  O          7.1080   17.5130  -11.8680 O.2   126  ARG126     -0.2867
    221  CB         7.3980   20.3080  -12.8460 C.3   126  ARG126      0.0307
    222  CG         7.7650   21.5810  -13.6010 C.3   126  ARG126      0.0489
    223  CD         6.8230   22.7560  -13.3810 C.3   126  ARG126      0.2205
    224  NE         7.3270   23.9390  -14.0900 N.pl3 126  ARG126     -0.0865
    225  CZ         6.6830   25.1000  -14.2390 C.cat 126  ARG126      0.5346
    226  NH1        5.4710   25.2840  -13.7340 N.pl3 126  ARG126      0.1354
    227  NH2        7.2590   26.0880  -14.9220 N.pl3 126  ARG126      0.1354
    228  N          8.8530   17.9590   -9.1280 N.3   128  PHE128     -0.1241
    229  CA         8.3140   18.3300   -7.8170 C.3   128  PHE128      0.1605
    230  C          6.7930   18.2960   -7.7980 C.2   128  PHE128      0.2264
    231  O          6.1820   18.3180   -6.7230 O.2   128  PHE128     -0.2867
    232  CB         8.8220   19.6980   -7.3590 C.3   128  PHE128      0.0534
    233  CG         8.6450   20.7820   -8.3700 C.ar  128  PHE128     -0.0203
    234  CD1        7.4270   21.4110   -8.5090 C.ar  128  PHE128     -0.0042
    235  CD2        9.6960   21.1790   -9.1730 C.ar  128  PHE128     -0.0042
    236  CE1        7.2410   22.4090   -9.4490 C.ar  128  PHE128     -0.0003
    237  CE2        9.5230   22.1950  -10.1070 C.ar  128  PHE128     -0.0003
    238  CZ         8.2990   22.8030  -10.2420 C.ar  128  PHE128     -0.0000
@<TRIPOS>BOND
     1   164   163   ar
     2   165   163   ar
     3   163   162    1
     4   216   215    1
     5   162   159    1
     6   215   214    1
     7   158   159    1
     8   159   160    1
     9   214   213    1
    10   188   187    1
    11   189   187    1
    12   160   161    2
    13   160   166   am
    14   213   212    1
    15   211   210    2
    16   212   209    1
    17   187   184    1
    18   166   167    1
    19   209   210    1
    20   209   208    1
    21   193   192    2
    22   178   177    2
    23   184   183    1
    24   184   185    1
    25   192   191    1
    26   177   183   am
    27   177   176    1
    28   167   170    1
    29   167   168    1
    30   190   185   am
    31   190   191    1
    32   208   200   am
    33   175   168   am
    34   175   176    1
    35   185   186    2
    36   170   171    1
    37   168   169    2
    38   201   200    2
    39   191   194    1
    40   176   179    1
    41   200   199    1
    42   112   114   ar
    43   112   110   ar
    44   114   113   ar
    45   194   196    1
    46   194   195    1
    47   179   180    1
    48   171   172    1
    49   109   110   ar
    50   109   107   ar
    51   199   198    1
    52   199   202    1
    53   110   108   ar
    54   172   173    1
    55   173   174    1
    56   227   225    1
    57   195   197    1
    58   180   181    1
    59   180   182    1
    60    35    34    2
    61   204   206   ar
    62   204   203   ar
    63   113   111   ar
    64   217   218    1
    65   107   106   ar
    66   206   207   ar
    67    34    33    1
    68   225   224    2
    69   225   226    1
    70   108   111   ar
    71   108   106   ar
    72   202   203    1
    73   224   223    1
    74   203   205   ar
    75   222   223    1
    76   222   221    1
    77   207   205   ar
    78   100    97    1
    79   106   105    1
    80    30    29    1
    81   218   221    1
    82   218   219    1
    83    33    32    1
    84    33    36    1
    85    32    27   am
    86   219   220    2
    87   105   102    1
    88    97    96    1
    89    97    98    1
    90    66    64    1
    91   153   152    2
    92    36    37    1
    93    29    31    1
    94    29    26    1
    95    99    98    2
    96    98   101   am
    97    27    28    2
    98    27    26    1
    99   101   102    1
   100    26    25    1
   101    75    74    1
   102   102   103    1
   103   152   151    1
   104   156   154    1
   105    64    63    1
   106    64    65    1
   107   154   151    1
   108   154   155    1
   109    37    39    1
   110    37    38    1
   111   157   155    1
   112    63    60    1
   113   238   237   ar
   114   238   236   ar
   115    74    73    1
   116   237   235   ar
   117   151   150    1
   118    25    22   am
   119   103   104    2
   120   150   144   am
   121    23    22    2
   122   146   147    1
   123   146   143    1
   124   149   147   ar
   125   236   234   ar
   126    22    21    1
   127   235   233   ar
   128   147   148   ar
   129   228   229    1
   130    60    59    1
   131    60    61    1
   132    73    72    1
   133   144   143    1
   134   144   145    2
   135   234   233   ar
   136   143   142    1
   137   233   232    1
   138   125   123    1
   139    14    13    2
   140    61    62    2
   141    19    18    1
   142   229   230    1
   143   229   232    1
   144   230   231    2
   145    17    18    1
   146    17    16    1
   147    72    71    1
   148    21    24    1
   149    21    20    1
   150   132   131   ar
   151    95    93    1
   152    15    16    1
   153    15    12    1
   154   124   123    1
   155    13    20   am
   156    13    12    1
   157   123   122    2
   158   142   136   am
   159   137   136    2
   160   133   131   ar
   161   131   130    1
   162    12    11    1
   163   136   135    1
   164    93    94    1
   165    93    92    2
   166    71    68    1
   167     9    10    1
   168     9     6    1
   169    11     7   am
   170   122   121    1
   171    48    50   ar
   172    48    46   ar
   173    50    49   ar
   174    83    82   ar
   175    92    91    1
   176    84    82   ar
   177   130   127    1
   178    58    56   am
   179     7     6    1
   180     7     8    2
   181    46    45   ar
   182    67    68    1
   183     6     5    1
   184    68    69    1
   185   135   134    1
   186   135   138    1
   187    49    47   ar
   188   134   128   am
   189    82    81    1
   190    57    56    2
   191   121   120    1
   192    56    55    1
   193    45    47   ar
   194    45    44    1
   195   128   127    1
   196   128   129    2
   197    91    90    1
   198   127   126    1
   199   138   139    1
   200   120   119    1
   201    55    52    1
   202    44    41    1
   203   119   116    1
   204    69    70    2
   205    81    80    1
   206    90    89    1
   207     2     1    1
   208     2     3    1
   209   115   116    1
   210    80    77    1
   211    40    41    1
   212   116   117    1
   213   139   141    1
   214   139   140    1
   215    41    42    1
   216    52    53    1
   217    52    51    1
   218     3     4    2
   219    89    86    1
   220    87    88    2
   221    87    86    1
   222    53    54    2
   223    42    43    2
   224   117   118    2
   225    77    76    1
   226    77    78    1
   227    86    85    1
   228    78    79    2
