@<TRIPOS>MOLECULE
tmp/4pzxA00.pdb
 175 169 0 0 0
SMALL
GASTEIGER

@<TRIPOS>ATOM
      1  N         32.1060   24.1410   12.8330 N.3    16  GLY16      -0.1210
      2  CA        31.6030   23.7320   11.5260 C.3    16  GLY16       0.1956
      3  C         31.5880   22.2360   11.2710 C.2    16  GLY16       0.2612
      4  O         31.1660   21.7870   10.1940 O.2    16  GLY16      -0.2717
      5  N         32.0370   21.4580   12.2560 N.am   17  GLN17      -0.1965
      6  CA        32.1640   20.0080   12.0670 C.3    17  GLN17       0.1733
      7  C         31.2580   19.2030   13.0140 C.2    17  GLN17       0.2617
      8  O         31.3690   17.9780   13.1100 O.2    17  GLN17      -0.2715
      9  CB        33.6380   19.5850   12.1640 C.3    17  GLN17       0.0408
     10  CG        34.5140   20.2140   11.0760 C.3    17  GLN17       0.0908
     11  CD        35.9210   19.6370   11.0140 C.2    17  GLN17       0.2608
     12  OE1       36.4870   19.2430   12.0270 O.2    17  GLN17      -0.2717
     13  NE2       36.4980   19.6070    9.8180 N.am   17  GLN17      -0.0878
     14  N         30.3610   19.9090   13.6940 N.am   18  GLY18      -0.1940
     15  CA        29.3300   19.2920   14.5240 C.3    18  GLY18       0.2014
     16  C         29.7170   19.1530   15.9850 C.2    18  GLY18       0.2638
     17  O         30.8940   19.1820   16.3280 O.2    18  GLY18      -0.2714
     18  N         28.7150   18.9880   16.8400 N.am   19  TYR19      -0.1973
     19  CA        28.9300   18.7850   18.2700 C.3    19  TYR19       0.1639
     20  C         28.7950   17.3060   18.6100 C.2    19  TYR19       0.2290
     21  O         27.8360   16.6510   18.1850 O.2    19  TYR19      -0.2864
     22  CB        27.9160   19.6130   19.0720 C.3    19  TYR19       0.0560
     23  CG        28.1340   21.1150   18.9900 C.ar   19  TYR19      -0.0198
     24  CD1       27.7040   21.8520   17.8770 C.ar   19  TYR19      -0.0009
     25  CD2       28.7440   21.8060   20.0380 C.ar   19  TYR19      -0.0009
     26  CE1       27.8950   23.2260   17.8120 C.ar   19  TYR19       0.0417
     27  CE2       28.9340   23.1810   19.9790 C.ar   19  TYR19       0.0417
     28  CZ        28.5160   23.8840   18.8660 C.ar   19  TYR19       0.1957
     29  OH        28.7160   25.2490   18.8140 O.3    19  TYR19      -0.2866
     30  N         28.3360   12.2740   17.1620 N.3    35  LEU35      -0.1245
     31  CA        27.6840   13.5040   16.7050 C.3    35  LEU35       0.1561
     32  C         26.2440   13.5600   17.1900 C.2    35  LEU35       0.2260
     33  O         25.4700   12.6360   16.9600 O.2    35  LEU35      -0.2867
     34  CB        27.7000   13.5900   15.1730 C.3    35  LEU35       0.0270
     35  CG        26.9440   14.7570   14.5150 C.3    35  LEU35       0.0019
     36  CD1       27.7830   16.0270   14.5680 C.3    35  LEU35       0.0001
     37  CD2       26.5980   14.4030   13.0730 C.3    35  LEU35       0.0001
     38  N         22.7660   14.7020   16.7220 N.3    37  ASP37      -0.1239
     39  CA        22.0510   15.0680   15.4990 C.3    37  ASP37       0.1674
     40  C         20.5300   15.0380   15.6440 C.2    37  ASP37       0.2266
     41  O         19.9110   13.9850   15.5330 O.2    37  ASP37      -0.2867
     42  CB        22.4900   14.1470   14.3490 C.3    37  ASP37       0.1410
     43  CG        21.9600   14.5980   13.0010 C.2    37  ASP37       0.3668
     44  OD1       21.3720   15.6920   12.9180 O.co2  37  ASP37      -0.2456
     45  OD2       22.1460   13.8570   12.0120 O.co2  37  ASP37      -0.2456
     46  N         18.5790   16.0920   13.5290 N.3    39  GLY39      -0.1210
     47  CA        18.0240   15.9870   12.1740 C.3    39  GLY39       0.1956
     48  C         18.0290   14.5970   11.5590 C.2    39  GLY39       0.2612
     49  O         17.8450   14.4600   10.3480 O.2    39  GLY39      -0.2717
     50  N         18.2940   13.5720   12.3660 N.am   40  SER40      -0.1952
     51  CA        18.2520   12.1720   11.8970 C.3    40  SER40       0.1924
     52  C         17.8670   11.2480   13.0430 C.2    40  SER40       0.2314
     53  O         17.7550   11.6970   14.1900 O.2    40  SER40      -0.2863
     54  CB        19.5920   11.7330   11.2950 C.3    40  SER40       0.2116
     55  OG        20.5720   11.5860   12.3150 O.3    40  SER40      -0.2180
     56  N         22.1910    3.8210    3.7050 N.3    74  VAL74      -0.1245
     57  CA        21.7250    5.1940    3.8680 C.3    74  VAL74       0.1561
     58  C         22.4760    6.1410    2.9300 C.2    74  VAL74       0.2260
     59  O         23.5470    6.6530    3.2770 O.2    74  VAL74      -0.2867
     60  CB        21.8230    5.6670    5.3410 C.3    74  VAL74       0.0252
     61  CG1       21.2000    7.0470    5.5130 C.3    74  VAL74       0.0019
     62  CG2       21.1490    4.6630    6.2650 C.3    74  VAL74       0.0019
     63  N         22.6560    9.7990    0.8620 N.3    76  TYR76      -0.1241
     64  CA        22.1780   11.1710    1.0120 C.3    76  TYR76       0.1605
     65  C         22.9060   12.0790    0.0180 C.2    76  TYR76       0.2264
     66  O         23.6670   11.5900   -0.8210 O.2    76  TYR76      -0.2867
     67  CB        22.3140   11.6590    2.4670 C.3    76  TYR76       0.0534
     68  CG        23.7070   11.5660    3.0540 C.ar   76  TYR76      -0.0201
     69  CD1       24.2090   10.3530    3.5370 C.ar   76  TYR76      -0.0009
     70  CD2       24.5140   12.6990    3.1510 C.ar   76  TYR76      -0.0009
     71  CE1       25.4820   10.2720    4.0800 C.ar   76  TYR76       0.0417
     72  CE2       25.7850   12.6280    3.6960 C.ar   76  TYR76       0.0417
     73  CZ        26.2650   11.4140    4.1550 C.ar   76  TYR76       0.1957
     74  OH        27.5280   11.3490    4.6940 O.3    76  TYR76      -0.2866
     75  N         26.3330    6.0900    4.0510 N.3    81  TRP81      -0.1241
     76  CA        26.8830    5.1560    5.0250 C.3    81  TRP81       0.1605
     77  C         26.0820    3.8660    4.9670 C.2    81  TRP81       0.2264
     78  O         24.9130    3.8750    4.6020 O.2    81  TRP81      -0.2867
     79  CB        26.9690    5.7540    6.4420 C.3    81  TRP81       0.0550
     80  CG        25.6710    5.9950    7.1860 C.ar   81  TRP81       0.0003
     81  CD1       25.0350    7.1990    7.3620 C.ar   81  TRP81       0.0946
     82  CD2       24.8840    5.0210    7.8980 C.ar   81  TRP81       0.0152
     83  NE1       23.8950    7.0260    8.1160 N.ar   81  TRP81      -0.2442
     84  CE2       23.7800    5.7040    8.4580 C.ar   81  TRP81       0.0810
     85  CE3       24.9940    3.6380    8.0950 C.ar   81  TRP81       0.0012
     86  CZ2       22.7970    5.0520    9.2170 C.ar   81  TRP81       0.0191
     87  CZ3       24.0120    2.9860    8.8460 C.ar   81  TRP81       0.0001
     88  CH2       22.9290    3.6990    9.4000 C.ar   81  TRP81       0.0015
     89  N         32.1880    9.9470    2.1140 N.3   112  LYS112     -0.1231
     90  CA        31.9630   11.3500    2.4970 C.3   112  LYS112      0.1693
     91  C         30.9990   11.4660    3.6900 C.2   112  LYS112      0.2592
     92  O         30.1120   12.3230    3.7280 O.2   112  LYS112     -0.2718
     93  CB        31.4870   12.1750    1.2900 C.3   112  LYS112      0.0285
     94  CG        32.5350   12.3260    0.1890 C.3   112  LYS112      0.0035
     95  CD        31.9610   12.8990   -1.1030 C.3   112  LYS112      0.0206
     96  CE        31.5530   14.3650   -0.9810 C.3   112  LYS112      0.1093
     97  NZ        32.7010   15.2980   -0.7890 N.3   112  LYS112     -0.1314
     98  N         31.1760   10.5680    4.6510 N.am  113  PHE113     -0.1976
     99  CA        30.3960   10.5910    5.8760 C.3   113  PHE113      0.1639
    100  C         31.2770   11.1110    7.0030 C.2   113  PHE113      0.2290
    101  O         31.0050   12.1710    7.5720 O.2   113  PHE113     -0.2864
    102  CB        29.8290    9.2010    6.1840 C.3   113  PHE113      0.0560
    103  CG        29.0440    9.1330    7.4680 C.ar  113  PHE113     -0.0200
    104  CD1       27.7810    9.7010    7.5580 C.ar  113  PHE113     -0.0042
    105  CD2       29.5730    8.4960    8.5850 C.ar  113  PHE113     -0.0042
    106  CE1       27.0590    9.6330    8.7440 C.ar  113  PHE113     -0.0003
    107  CE2       28.8600    8.4280    9.7750 C.ar  113  PHE113     -0.0003
    108  CZ        27.6000    8.9970    9.8510 C.ar  113  PHE113     -0.0000
    109  N         34.5250   12.8690    8.7380 N.3   115  ILE115     -0.1245
    110  CA        35.2330   14.1030    8.4160 C.3   115  ILE115      0.1561
    111  C         36.5800   14.1000    9.1110 C.2   115  ILE115      0.2260
    112  O         36.6490   13.9690   10.3390 O.2   115  ILE115     -0.2867
    113  CB        34.4450   15.3480    8.8800 C.3   115  ILE115      0.0252
    114  CG1       33.0710   15.3990    8.2080 C.3   115  ILE115      0.0019
    115  CG2       35.2320   16.6280    8.6010 C.3   115  ILE115      0.0019
    116  CD1       32.1290   16.3830    8.8520 C.3   115  ILE115      0.0001
    117  N         34.7810   12.8550   15.7380 N.3   120  TRP120     -0.1241
    118  CA        33.6620   11.9470   16.0120 C.3   120  TRP120      0.1605
    119  C         33.6720   10.7030   15.1210 C.2   120  TRP120      0.2264
    120  O         34.1540   10.7370   13.9820 O.2   120  TRP120     -0.2867
    121  CB        32.2850   12.6580   16.0400 C.3   120  TRP120      0.0550
    122  CG        31.9060   13.4790   14.8150 C.ar  120  TRP120      0.0003
    123  CD1       31.9830   14.8360   14.6870 C.ar  120  TRP120      0.0946
    124  CD2       31.3390   12.9950   13.5860 C.ar  120  TRP120      0.0152
    125  NE1       31.5190   15.2300   13.4490 N.ar  120  TRP120     -0.2442
    126  CE2       31.1200   14.1210   12.7530 C.ar  120  TRP120      0.0810
    127  CE3       31.0060   11.7230   13.1030 C.ar  120  TRP120      0.0012
    128  CZ2       30.5900   14.0100   11.4610 C.ar  120  TRP120      0.0191
    129  CZ3       30.4730   11.6110   11.8200 C.ar  120  TRP120      0.0001
    130  CH2       30.2680   12.7520   11.0140 C.ar  120  TRP120      0.0015
    131  N         27.1570    8.7370   14.8390 N.3   123  ILE123     -0.1245
    132  CA        26.0790    9.7180   14.8340 C.3   123  ILE123      0.1561
    133  C         24.9460    9.2550   15.7470 C.2   123  ILE123      0.2260
    134  O         24.5680    8.0710   15.7210 O.2   123  ILE123     -0.2867
    135  CB        25.5850    9.9560   13.3820 C.3   123  ILE123      0.0252
    136  CG1       24.5070   11.0470   13.3270 C.3   123  ILE123      0.0019
    137  CG2       25.1290    8.6510   12.7240 C.3   123  ILE123      0.0019
    138  CD1       24.2510   11.5550   11.9210 C.3   123  ILE123      0.0001
    139  N         17.7400   21.5640   13.7030 N.3   230  ASP230     -0.1225
    140  CA        18.7250   20.5280   13.3560 C.3   230  ASP230      0.1805
    141  C         20.1450   20.7960   13.8780 C.2   230  ASP230      0.2598
    142  O         20.9020   21.5490   13.2620 O.2   230  ASP230     -0.2718
    143  CB        18.7530   20.3430   11.8310 C.3   230  ASP230      0.1424
    144  CG        19.6510   19.2010   11.3890 C.2   230  ASP230      0.3668
    145  OD1       20.0960   18.4030   12.2460 O.co2 230  ASP230     -0.2456
    146  OD2       19.8980   19.0820   10.1670 O.co2 230  ASP230     -0.2456
    147  N         20.5080   20.1460   14.9870 N.am  231  SER231     -0.1938
    148  CA        21.8700   20.2620   15.5380 C.3   231  SER231      0.2055
    149  C         22.9390   19.6640   14.6110 C.2   231  SER231      0.2644
    150  O         24.1230   19.9220   14.7960 O.2   231  SER231     -0.2714
    151  CB        21.9530   19.5840   16.9100 C.3   231  SER231      0.2130
    152  OG        21.7520   18.1820   16.8030 O.3   231  SER231     -0.2179
    153  N         22.5170   18.8550   13.6370 N.am  232  GLY232     -0.1939
    154  CA        23.4480   18.2060   12.7070 C.3   232  GLY232      0.2014
    155  C         23.6620   18.9670   11.4050 C.2   232  GLY232      0.2640
    156  O         24.1640   18.4100   10.4200 O.2   232  GLY232     -0.2714
    157  N         23.2780   20.2400   11.4060 N.am  233  THR233     -0.1936
    158  CA        23.5330   21.1550   10.3000 C.3   233  THR233      0.2028
    159  C         24.2230   22.3810   10.8840 C.2   233  THR233      0.2642
    160  O         23.8250   22.8810   11.9460 O.2   233  THR233     -0.2714
    161  CB        22.2270   21.5570    9.5770 C.3   233  THR233      0.1808
    162  OG1       21.6810   20.4180    8.9020 O.3   233  THR233     -0.2208
    163  CG2       22.4730   22.6500    8.5400 C.3   233  THR233      0.0379
    164  N         25.2730   22.8530   10.2140 N.am  234  THR234     -0.1950
    165  CA        26.0010   24.0320   10.6950 C.3   234  THR234      0.1897
    166  C         25.2200   25.3210   10.4230 C.2   234  THR234      0.2313
    167  O         25.0410   26.1650   11.3120 O.2   234  THR234     -0.2863
    168  CB        27.4030   24.1240   10.0420 C.3   234  THR234      0.1794
    169  OG1       28.1640   22.9560   10.3740 O.3   234  THR234     -0.2208
    170  CG2       28.1640   25.3780   10.5010 C.3   234  THR234      0.0378
    171  N         23.2520   25.1010   13.6040 N.3   337  ALA337     -0.1245
    172  CA        24.0580   25.7000   14.6690 C.3   337  ALA337      0.1562
    173  C         24.0160   27.2190   14.6680 C.2   337  ALA337      0.2260
    174  O         24.0050   27.8290   15.7410 O.2   337  ALA337     -0.2867
    175  CB        25.4930   25.1980   14.6040 C.3   337  ALA337      0.0290
@<TRIPOS>BOND
     1    95    96    1
     2    95    94    1
     3    96    97    1
     4    66    65    2
     5    65    64    1
     6    94    93    1
     7    63    64    1
     8    64    67    1
     9    93    90    1
    10    89    90    1
    11    67    68    1
    12    90    91    1
    13    58    59    2
    14    58    57    1
    15    68    70   ar
    16    68    69   ar
    17    70    72   ar
    18    69    71   ar
    19    91    92    2
    20    91    98   am
    21    72    73   ar
    22    56    57    1
    23    57    60    1
    24    75    76    1
    25    71    73   ar
    26    73    74    1
    27    78    77    2
    28    98    99    1
    29    77    76    1
    30    76    79    1
    31    60    61    1
    32    60    62    1
    33    99   102    1
    34    99   100    1
    35   102   103    1
    36    79    80    1
    37   100   101    2
    38    80    81   ar
    39    80    82   ar
    40    81    83   ar
    41   103   104   ar
    42   103   105   ar
    43   104   106   ar
    44    82    85   ar
    45    82    84   ar
    46    85    87   ar
    47    83    84   ar
    48   114   116    1
    49   114   113    1
    50   110   109    1
    51   110   113    1
    52   110   111    1
    53    84    86   ar
    54   163   161    1
    55   105   107   ar
    56   115   113    1
    57   106   108   ar
    58    87    88   ar
    59   162   161    1
    60   111   112    2
    61    86    88   ar
    62   161   158    1
    63   107   108   ar
    64    13    11   am
    65   168   169    1
    66   168   170    1
    67   168   165    1
    68   146   144   ar
    69     4     3    2
    70   164   165    1
    71   164   159   am
    72   158   159    1
    73   158   157    1
    74    49    48    2
    75   156   155    2
    76   166   165    1
    77   166   167    2
    78   159   160    2
    79    11    10    1
    80    11    12    2
    81   130   128   ar
    82   130   129   ar
    83    10     9    1
    84     3     2    1
    85     3     5   am
    86    54    51    1
    87    54    55    1
    88   144   143    1
    89   144   145   ar
    90   155   157   am
    91   155   154    1
    92   128   126   ar
    93     2     1    1
    94    48    47    1
    95    48    50   am
    96   129   127   ar
    97   143   140    1
    98    51    50    1
    99    51    52    1
   100   138   136    1
   101    45    43   ar
   102     6     9    1
   103     6     5    1
   104     6     7    1
   105    47    46    1
   106   154   153    1
   107   137   135    1
   108   126   125   ar
   109   126   124   ar
   110    44    43   ar
   111    43    42    1
   112     7     8    2
   113     7    14   am
   114    52    53    2
   115    37    35    1
   116   127   124   ar
   117   142   141    2
   118   136   135    1
   119   140   139    1
   120   140   141    1
   121   135   132    1
   122   125   123   ar
   123   124   122   ar
   124   171   172    1
   125   153   149   am
   126    14    15    1
   127   141   147   am
   128   120   119    2
   129    42    39    1
   130    35    36    1
   131    35    34    1
   132    15    16    1
   133   175   172    1
   134   149   150    2
   135   149   148    1
   136   173   172    1
   137   173   174    2
   138   123   122   ar
   139   122   121    1
   140   132   131    1
   141   132   133    1
   142   147   148    1
   143   119   118    1
   144    34    31    1
   145    39    40    1
   146    39    38    1
   147    41    40    2
   148   148   151    1
   149   134   133    2
   150   117   118    1
   151    16    17    2
   152    16    18   am
   153   118   121    1
   154    31    30    1
   155    31    32    1
   156   152   151    1
   157    18    19    1
   158    33    32    2
   159    26    24   ar
   160    26    28   ar
   161    24    23   ar
   162    21    20    2
   163    19    20    1
   164    19    22    1
   165    29    28    1
   166    28    27   ar
   167    23    22    1
   168    23    25   ar
   169    27    25   ar
