@<TRIPOS>MOLECULE
tmp/4pzyA01.pdb
 83 77 0 0 0
SMALL
GASTEIGER

@<TRIPOS>ATOM
      1  N         21.2660   -0.5140  -19.3430 N.3     6  LYS6       -0.1231
      2  CA        20.4860   -1.5460  -18.6530 C.3     6  LYS6        0.1693
      3  C         19.0410   -1.5750  -19.1370 C.2     6  LYS6        0.2592
      4  O         18.2650   -0.6560  -18.8700 O.2     6  LYS6       -0.2718
      5  CB        20.5490   -1.3340  -17.1500 C.3     6  LYS6        0.0285
      6  CG        21.9820   -1.3830  -16.6280 C.3     6  LYS6        0.0035
      7  CD        22.0630   -1.8310  -15.1930 C.3     6  LYS6        0.0206
      8  CE        23.5080   -2.1450  -14.7990 C.3     6  LYS6        0.1093
      9  NZ        24.3760   -0.9320  -14.8320 N.3     6  LYS6       -0.1314
     10  N         18.6880   -2.6300  -19.8630 N.am    7  LEU7       -0.1966
     11  CA        17.3720   -2.7050  -20.5000 C.3     7  LEU7        0.1728
     12  C         16.5050   -3.7500  -19.8170 C.2     7  LEU7        0.2616
     13  O         17.0150   -4.7760  -19.3480 O.2     7  LEU7       -0.2715
     14  CB        17.5240   -3.0400  -21.9820 C.3     7  LEU7        0.0311
     15  CG        18.6280   -2.2400  -22.6850 C.3     7  LEU7        0.0022
     16  CD1       18.7620   -2.6770  -24.1400 C.3     7  LEU7        0.0001
     17  CD2       18.2960   -0.7660  -22.6020 C.3     7  LEU7        0.0001
     18  N         15.2010   -3.4770  -19.7430 N.am    8  VAL8       -0.1977
     19  CA        14.2550   -4.4040  -19.1290 C.3     8  VAL8        0.1596
     20  C         13.1200   -4.6950  -20.0900 C.2     8  VAL8        0.2287
     21  O         12.4770   -3.7690  -20.5910 O.2     8  VAL8       -0.2864
     22  CB        13.6400   -3.8240  -17.8350 C.3     8  VAL8        0.0276
     23  CG1       12.6790   -4.8230  -17.2160 C.3     8  VAL8        0.0022
     24  CG2       14.7250   -3.3860  -16.8530 C.3     8  VAL8        0.0022
     25  N         18.9560  -12.7720  -17.0420 N.3    40  SER40      -0.1217
     26  CA        19.5710  -11.5900  -17.6290 C.3    40  SER40       0.1889
     27  C         20.7010  -11.9800  -18.5830 C.2    40  SER40       0.2288
     28  O         21.2470  -13.0830  -18.5030 O.2    40  SER40      -0.2866
     29  CB        20.0740  -10.6440  -16.5380 C.3    40  SER40       0.2089
     30  OG        21.0210  -11.2980  -15.7210 O.3    40  SER40      -0.2183
     31  N         22.9490   -4.7630  -20.9780 N.3    55  ASP55      -0.1239
     32  CA        22.5830   -5.6980  -19.9230 C.3    55  ASP55       0.1674
     33  C         21.0700   -5.7910  -19.9570 C.2    55  ASP55       0.2266
     34  O         20.3740   -4.8420  -19.6020 O.2    55  ASP55      -0.2867
     35  CB        23.0580   -5.1980  -18.5480 C.3    55  ASP55       0.1410
     36  CG        22.7220   -6.1660  -17.4160 C.2    55  ASP55       0.3668
     37  OD1       21.9380   -7.1090  -17.6320 O.co2  55  ASP55      -0.2456
     38  OD2       23.2450   -5.9880  -16.2980 O.co2  55  ASP55      -0.2456
     39  N         17.4520   -7.5660  -18.9490 N.3    57  LEU57      -0.1245
     40  CA        16.6600   -8.4300  -18.0890 C.3    57  LEU57       0.1561
     41  C         15.3930   -8.8730  -18.8170 C.2    57  LEU57       0.2260
     42  O         14.5650   -8.0560  -19.2030 O.2    57  LEU57      -0.2867
     43  CB        16.2920   -7.7140  -16.7810 C.3    57  LEU57       0.0270
     44  CG        15.4780   -8.5450  -15.7950 C.3    57  LEU57       0.0019
     45  CD1       16.3010   -9.7340  -15.2450 C.3    57  LEU57       0.0001
     46  CD2       14.9420   -7.6600  -14.6720 C.3    57  LEU57       0.0001
     47  N         11.0940   -7.7740   -6.3060 N.3    68  MET68      -0.1245
     48  CA        12.0620   -7.7870   -7.3960 C.3    68  MET68       0.1570
     49  C         11.6150   -6.8640   -8.5160 C.2    68  MET68       0.2261
     50  O         12.4220   -6.1270   -9.0890 O.2    68  MET68      -0.2867
     51  CB        12.2320   -9.2100   -7.9380 C.3    68  MET68       0.0387
     52  CG        13.0640   -9.3000   -9.2250 C.3    68  MET68       0.0595
     53  SD        14.7930   -8.8600   -8.9540 S.3    68  MET68      -0.1393
     54  CE        15.4660  -10.4290   -8.3780 C.3    68  MET68       0.0692
     55  N         11.9480   -3.3780   -7.8860 N.3    71  CYS71      -0.1221
     56  CA        13.3530   -3.1100   -7.9330 C.3    71  CYS71       0.1808
     57  C         13.8700   -2.8970   -9.3230 C.2    71  CYS71       0.2601
     58  O         14.5210   -1.8860   -9.5810 O.2    71  CYS71      -0.2717
     59  CB        14.0690   -4.2780   -7.3700 C.3    71  CYS71       0.0970
     60  SG        15.6960   -4.0980   -7.1520 S.3    71  CYS71      -0.0800
     61  N         13.6230   -3.8330  -10.2340 N.am   72  TYR72      -0.1976
     62  CA        14.1130   -3.6350  -11.5990 C.3    72  TYR72       0.1639
     63  C         13.4000   -2.4880  -12.3240 C.2    72  TYR72       0.2290
     64  O         13.9560   -1.8950  -13.2420 O.2    72  TYR72      -0.2864
     65  CB        14.1630   -4.9310  -12.4350 C.3    72  TYR72       0.0560
     66  CG        12.8290   -5.5870  -12.7510 C.ar   72  TYR72      -0.0198
     67  CD1       11.9070   -4.9720  -13.5930 C.ar   72  TYR72      -0.0009
     68  CD2       12.5160   -6.8380  -12.2450 C.ar   72  TYR72      -0.0009
     69  CE1       10.6960   -5.5670  -13.8940 C.ar   72  TYR72       0.0417
     70  CE2       11.3120   -7.4500  -12.5440 C.ar   72  TYR72       0.0417
     71  CZ        10.4000   -6.8090  -13.3570 C.ar   72  TYR72       0.1957
     72  OH         9.2000   -7.4110  -13.6710 O.3    72  TYR72      -0.2866
     73  N         15.6140    0.5020  -11.1820 N.3    75  THR75      -0.1203
     74  CA        16.9940    0.5480  -11.6460 C.3    75  THR75       0.1994
     75  C         17.1560    0.4870  -13.1690 C.2    75  THR75       0.2618
     76  O         18.1190    1.0270  -13.7070 O.2    75  THR75      -0.2717
     77  CB        17.7980   -0.5900  -11.0220 C.3    75  THR75       0.1784
     78  OG1       17.2880   -1.8450  -11.4870 O.3    75  THR75      -0.2211
     79  CG2       17.6950   -0.5370   -9.5070 C.3    75  THR75       0.0376
     80  N         16.2260   -0.1810  -13.8530 N.am   76  GLY76      -0.1956
     81  CA        16.2550   -0.2540  -15.3080 C.3    76  GLY76       0.1869
     82  C         16.2500    1.1200  -15.9470 C.2    76  GLY76       0.2309
     83  O         15.5170    2.0120  -15.5180 O.2    76  GLY76      -0.2863
@<TRIPOS>BOND
     1    16    15    1
     2    15    17    1
     3    15    14    1
     4    14    11    1
     5    31    32    1
     6    21    20    2
     7    11    10    1
     8    11    12    1
     9    20    19    1
    10    33    32    1
    11    33    34    2
    12    32    35    1
    13    10     3   am
    14    12    18   am
    15    12    13    2
    16    18    19    1
    17     1     2    1
    18    42    41    2
    19     3     4    2
    20     3     2    1
    21    19    22    1
    22    39    40    1
    23    41    40    1
    24     2     5    1
    25    27    28    2
    26    27    26    1
    27    35    36    1
    28    40    43    1
    29    22    23    1
    30    22    24    1
    31    37    36   ar
    32    26    25    1
    33    26    29    1
    34    36    38   ar
    35     5     6    1
    36    43    44    1
    37     6     7    1
    38    29    30    1
    39    82    83    2
    40    82    81    1
    41    44    45    1
    42    44    46    1
    43    81    80    1
    44     7     8    1
    45     9     8    1
    46    69    67   ar
    47    69    71   ar
    48    80    75   am
    49    76    75    2
    50    72    71    1
    51    67    66   ar
    52    71    70   ar
    53    64    63    2
    54    75    74    1
    55    66    65    1
    56    66    68   ar
    57    70    68   ar
    58    65    62    1
    59    63    62    1
    60    74    73    1
    61    74    77    1
    62    62    61    1
    63    78    77    1
    64    77    79    1
    65    61    57   am
    66    58    57    2
    67    57    56    1
    68    52    53    1
    69    52    51    1
    70    50    49    2
    71    53    54    1
    72    49    48    1
    73    51    48    1
    74    56    55    1
    75    56    59    1
    76    48    47    1
    77    59    60    1
