@<TRIPOS>MOLECULE
tmp/4q01B01.pdb
 88 83 0 0 0
SMALL
GASTEIGER

@<TRIPOS>ATOM
      1  N         -3.7140   -2.6620   15.9180 N.3     5  LYS5       -0.1231
      2  CA        -3.1090   -1.4900   16.5120 C.3     5  LYS5        0.1693
      3  C         -3.0460   -0.3800   15.4820 C.2     5  LYS5        0.2592
      4  O         -2.3230   -0.4490   14.5050 O.2     5  LYS5       -0.2718
      5  CB        -1.7200   -1.8250   17.0340 C.3     5  LYS5        0.0285
      6  CG        -1.7590   -2.9690   18.0480 C.3     5  LYS5        0.0035
      7  CD        -0.5970   -2.9100   19.0030 C.3     5  LYS5        0.0206
      8  CE         0.1220   -4.2450   19.0960 C.3     5  LYS5        0.1093
      9  NZ        -0.7920   -5.3660   19.4520 N.3     5  LYS5       -0.1314
     10  N         -3.8580    0.6340   15.7410 N.am    6  LEU6       -0.1966
     11  CA        -4.0550    1.7330   14.7970 C.3     6  LEU6        0.1728
     12  C         -3.5440    3.0290   15.4060 C.2     6  LEU6        0.2616
     13  O         -3.6720    3.2560   16.6070 O.2     6  LEU6       -0.2715
     14  CB        -5.5470    1.8930   14.4970 C.3     6  LEU6        0.0311
     15  CG        -6.3700    0.6320   14.2130 C.3     6  LEU6        0.0022
     16  CD1       -7.7880    0.9860   13.7770 C.3     6  LEU6        0.0001
     17  CD2       -5.7160   -0.2080   13.1950 C.3     6  LEU6        0.0001
     18  N         -2.9700    3.8740   14.5590 N.am    7  VAL7       -0.1977
     19  CA        -2.4240    5.1680   14.9870 C.3     7  VAL7        0.1596
     20  C         -3.0350    6.2400   14.1220 C.2     7  VAL7        0.2287
     21  O         -3.0490    6.1300   12.9100 O.2     7  VAL7       -0.2864
     22  CB        -0.8940    5.1860   14.8960 C.3     7  VAL7        0.0276
     23  CG1       -0.3430    6.5100   15.4180 C.3     7  VAL7        0.0022
     24  CG2       -0.2870    4.0230   15.6940 C.3     7  VAL7        0.0022
     25  N         -4.6580    6.0160   24.5220 N.3    39  CYS39      -0.1235
     26  CA        -4.9880    4.7870   23.8580 C.3    39  CYS39       0.1677
     27  C         -6.4260    4.4740   24.1700 C.2    39  CYS39       0.2270
     28  O         -6.8510    4.4430   25.3360 O.2    39  CYS39      -0.2867
     29  CB        -4.0730    3.7270   24.4290 C.3    39  CYS39       0.0956
     30  SG        -4.4250    2.1120   23.7790 S.3    39  CYS39      -0.0801
     31  N         -9.6060    1.7270   23.3990 N.3    41  ARG41      -0.1245
     32  CA        -9.7590    0.3140   23.0900 C.3    41  ARG41       0.1563
     33  C        -11.2330   -0.0410   23.0240 C.2    41  ARG41       0.2260
     34  O        -12.0580    0.4670   23.7890 O.2    41  ARG41      -0.2867
     35  CB        -9.0530   -0.5570   24.1310 C.3    41  ARG41       0.0307
     36  CG        -7.5490   -0.3750   24.1920 C.3    41  ARG41       0.0489
     37  CD        -6.9990   -1.0140   25.4500 C.3    41  ARG41       0.2205
     38  NE        -5.5770   -0.7270   25.6320 N.pl3  41  ARG41      -0.0865
     39  CZ        -4.5940   -1.5360   25.2530 C.cat  41  ARG41       0.5346
     40  NH1       -3.3250   -1.1850   25.4580 N.pl3  41  ARG41       0.1354
     41  NH2       -4.8770   -2.6970   24.6700 N.pl3  41  ARG41       0.1354
     42  N         -7.1240   -1.2490   19.1210 N.3    54  ASP54      -0.1225
     43  CA        -6.3030   -0.4200   20.0040 C.3    54  ASP54       0.1805
     44  C         -5.9300    0.8190   19.2080 C.2    54  ASP54       0.2598
     45  O         -5.1990    0.7080   18.2380 O.2    54  ASP54      -0.2718
     46  CB        -5.0010   -1.1180   20.3810 C.3    54  ASP54       0.1424
     47  CG        -5.2090   -2.4690   21.0500 C.2    54  ASP54       0.3668
     48  OD1       -6.2380   -2.6830   21.7250 O.co2  54  ASP54      -0.2456
     49  OD2       -4.2880   -3.3020   20.8890 O.co2  54  ASP54      -0.2456
     50  N         -6.4230    1.9780   19.6060 N.am   55  ILE55      -0.1966
     51  CA        -6.2110    3.1970   18.8240 C.3    55  ILE55       0.1727
     52  C         -5.4210    4.2370   19.5850 C.2    55  ILE55       0.2616
     53  O         -5.8530    4.6830   20.6580 O.2    55  ILE55      -0.2715
     54  CB        -7.5400    3.8070   18.3640 C.3    55  ILE55       0.0290
     55  CG1       -8.3620    2.7430   17.6320 C.3    55  ILE55       0.0022
     56  CG2       -7.2960    5.0280   17.4760 C.3    55  ILE55       0.0023
     57  CD1       -9.7340    3.1160   17.2890 C.3    55  ILE55       0.0001
     58  N         -4.2790    4.6140   19.0150 N.am   56  LEU56      -0.1977
     59  CA        -3.4440    5.6710   19.5780 C.3    56  LEU56       0.1596
     60  C         -3.7990    7.0150   18.9360 C.2    56  LEU56       0.2287
     61  O         -3.6230    7.2200   17.7350 O.2    56  LEU56      -0.2864
     62  CB        -1.9710    5.3570   19.3730 C.3    56  LEU56       0.0297
     63  CG        -1.0190    6.3850   19.9710 C.3    56  LEU56       0.0022
     64  CD1       -1.1390    6.4050   21.4610 C.3    56  LEU56       0.0001
     65  CD2        0.3870    6.0850   19.5250 C.3    56  LEU56       0.0001
     66  N          5.9220    3.4230   19.1610 N.3    71  TYR71      -0.1241
     67  CA         4.5170    3.2530   18.8260 C.3    71  TYR71       0.1605
     68  C          4.2740    3.1780   17.3270 C.2    71  TYR71       0.2264
     69  O          3.4120    2.4020   16.8870 O.2    71  TYR71      -0.2867
     70  CB         3.6830    4.3510   19.4810 C.3    71  TYR71       0.0534
     71  CG         3.6680    4.2080   20.9900 C.ar   71  TYR71      -0.0201
     72  CD1        4.1310    3.0430   21.5900 C.ar   71  TYR71      -0.0009
     73  CD2        3.2140    5.2180   21.8060 C.ar   71  TYR71      -0.0009
     74  CE1        4.1290    2.8760   22.9500 C.ar   71  TYR71       0.0417
     75  CE2        3.2020    5.0630   23.1890 C.ar   71  TYR71       0.0417
     76  CZ         3.6570    3.8830   23.7560 C.ar   71  TYR71       0.1957
     77  OH         3.6630    3.7070   25.1310 O.3    71  TYR71      -0.2866
     78  N          5.2980   -0.3020   16.4170 N.3    74  THR74      -0.1203
     79  CA         4.2670   -1.2340   16.8790 C.3    74  THR74       0.1994
     80  C          2.9680   -1.1100   16.0600 C.2    74  THR74       0.2618
     81  O          2.2720   -2.1000   15.8170 O.2    74  THR74      -0.2717
     82  CB         3.9440   -0.9950   18.3590 C.3    74  THR74       0.1784
     83  OG1        5.0760   -1.3570   19.1590 O.3    74  THR74      -0.2211
     84  CG2        2.7480   -1.8080   18.8240 C.3    74  THR74       0.0376
     85  N          2.6260    0.1110   15.6610 N.am   75  GLY75      -0.1956
     86  CA         1.3980    0.3460   14.9090 C.3    75  GLY75       0.1869
     87  C          1.3180   -0.4280   13.6120 C.2    75  GLY75       0.2309
     88  O          2.2760   -0.5350   12.8920 O.2    75  GLY75      -0.2863
@<TRIPOS>BOND
     1    88    87    2
     2    21    20    2
     3    17    15    1
     4    87    86    1
     5    16    15    1
     6    20    19    1
     7    15    14    1
     8    14    11    1
     9     4     3    2
    10    18    19    1
    11    18    12   am
    12    11    12    1
    13    11    10    1
    14    22    19    1
    15    22    23    1
    16    22    24    1
    17    86    85    1
    18    12    13    2
    19     3    10   am
    20     3     2    1
    21    85    80   am
    22    81    80    2
    23     1     2    1
    24    80    79    1
    25    78    79    1
    26     2     5    1
    27    79    82    1
    28    69    68    2
    29     5     6    1
    30    57    55    1
    31    68    67    1
    32    56    54    1
    33    55    54    1
    34    61    60    2
    35     6     7    1
    36    45    44    2
    37    82    84    1
    38    82    83    1
    39    54    51    1
    40    51    52    1
    41    51    50    1
    42    67    66    1
    43    67    70    1
    44    60    59    1
    45     7     8    1
    46    58    59    1
    47    58    52   am
    48     8     9    1
    49    42    43    1
    50    44    50   am
    51    44    43    1
    52    62    59    1
    53    62    63    1
    54    70    71    1
    55    65    63    1
    56    52    53    2
    57    63    64    1
    58    43    46    1
    59    46    47    1
    60    49    47   ar
    61    71    72   ar
    62    71    73   ar
    63    47    48   ar
    64    72    74   ar
    65    73    75   ar
    66    74    76   ar
    67    33    32    1
    68    33    34    2
    69    32    31    1
    70    32    35    1
    71    75    76   ar
    72    76    77    1
    73    30    29    1
    74    26    27    1
    75    26    29    1
    76    26    25    1
    77    35    36    1
    78    27    28    2
    79    36    37    1
    80    41    39    1
    81    39    40    1
    82    39    38    2
    83    37    38    1
