@<TRIPOS>MOLECULE
tmp/4q02A01.pdb
 89 86 0 0 0
SMALL
GASTEIGER

@<TRIPOS>ATOM
      1  N        -20.5360    5.0560   -3.9830 N.3     6  LYS6       -0.1231
      2  CA       -20.7100    4.2440   -5.1860 C.3     6  LYS6        0.1693
      3  C        -19.5510    4.4110   -6.1620 C.2     6  LYS6        0.2592
      4  O        -19.3570    5.4850   -6.7460 O.2     6  LYS6       -0.2718
      5  CB       -22.0410    4.5850   -5.8570 C.3     6  LYS6        0.0285
      6  CG       -23.2050    4.4300   -4.8910 C.3     6  LYS6        0.0035
      7  CD       -24.5470    4.6840   -5.5560 C.3     6  LYS6        0.0206
      8  CE       -25.6500    4.5370   -4.5150 C.3     6  LYS6        0.1093
      9  NZ       -26.9840    4.2830   -5.1130 N.3     6  LYS6       -0.1314
     10  N        -18.7590    3.3510   -6.3030 N.am    7  LEU7       -0.1966
     11  CA       -17.5470    3.3910   -7.1270 C.3     7  LEU7        0.1728
     12  C        -17.6960    2.5350   -8.3680 C.2     7  LEU7        0.2616
     13  O        -18.2900    1.4620   -8.3240 O.2     7  LEU7       -0.2715
     14  CB       -16.3410    2.8940   -6.3470 C.3     7  LEU7        0.0311
     15  CG       -16.2000    3.3650   -4.9000 C.3     7  LEU7        0.0022
     16  CD1      -14.9160    2.8130   -4.2690 C.3     7  LEU7        0.0001
     17  CD2      -16.1700    4.8510   -4.8630 C.3     7  LEU7        0.0001
     18  N        -17.1230    2.9870   -9.4730 N.am    8  VAL8       -0.1977
     19  CA       -17.2100    2.2440  -10.7150 C.3     8  VAL8        0.1596
     20  C        -15.7920    2.0770  -11.2560 C.2     8  VAL8        0.2287
     21  O        -15.0480    3.0500  -11.3470 O.2     8  VAL8       -0.2864
     22  CB       -18.1110    2.9600  -11.7490 C.3     8  VAL8        0.0276
     23  CG1      -18.1520    2.1950  -13.0660 C.3     8  VAL8        0.0022
     24  CG2      -19.5320    3.1450  -11.2090 C.3     8  VAL8        0.0022
     25  N        -21.7080   -6.0450   -9.4790 N.3    40  CYS40      -0.1221
     26  CA       -21.7120   -4.9890   -8.4040 C.3    40  CYS40       0.1808
     27  C        -21.3820   -5.6700   -7.0820 C.2    40  CYS40       0.2601
     28  O        -22.1180   -6.5260   -6.6420 O.2    40  CYS40      -0.2717
     29  CB       -23.0830   -4.4170   -8.3950 C.3    40  CYS40       0.0970
     30  SG       -23.4100   -3.2630   -7.0820 S.3    40  CYS40      -0.0800
     31  N        -20.2650   -5.2860   -6.4640 N.am   41  TYR41      -0.1976
     32  CA       -19.8510   -5.8330   -5.1740 C.3    41  TYR41       0.1639
     33  C        -20.1180   -4.8540   -4.0420 C.2    41  TYR41       0.2290
     34  O        -20.1630   -3.6410   -4.2610 O.2    41  TYR41      -0.2864
     35  CB       -18.3660   -6.1760   -5.1720 C.3    41  TYR41       0.0560
     36  CG       -17.9620   -7.3010   -6.0850 C.ar   41  TYR41      -0.0198
     37  CD1      -17.6820   -7.0700   -7.4310 C.ar   41  TYR41      -0.0009
     38  CD2      -17.8270   -8.5890   -5.6000 C.ar   41  TYR41      -0.0009
     39  CE1      -17.2880   -8.1020   -8.2690 C.ar   41  TYR41       0.0417
     40  CE2      -17.4370   -9.6290   -6.4280 C.ar   41  TYR41       0.0417
     41  CZ       -17.1680   -9.3830   -7.7580 C.ar   41  TYR41       0.1957
     42  OH       -16.7790  -10.4340   -8.5640 O.3    41  TYR41      -0.2866
     43  N        -19.9320    0.3510   -2.6230 N.3    55  ASP55      -0.1225
     44  CA       -20.6240   -0.3590   -3.7050 C.3    55  ASP55       0.1805
     45  C        -19.7120   -0.2690   -4.8970 C.2    55  ASP55       0.2598
     46  O        -19.5510    0.8160   -5.4480 O.2    55  ASP55      -0.2718
     47  CB       -21.9770    0.2640   -4.0600 C.3    55  ASP55       0.1424
     48  CG       -22.8960    0.4000   -2.8750 C.2    55  ASP55       0.3668
     49  OD1      -23.0090   -0.5750   -2.1140 O.co2  55  ASP55      -0.2456
     50  OD2      -23.5130    1.4850   -2.7150 O.co2  55  ASP55      -0.2456
     51  N        -19.0760   -1.3710   -5.2740 N.am   56  ILE56      -0.1966
     52  CA       -18.1120   -1.3070   -6.3600 C.3    56  ILE56       0.1727
     53  C        -18.5930   -2.0510   -7.5970 C.2    56  ILE56       0.2616
     54  O        -18.8280   -3.2630   -7.5510 O.2    56  ILE56      -0.2715
     55  CB       -16.7500   -1.8780   -5.9270 C.3    56  ILE56       0.0290
     56  CG1      -16.2370   -1.1410   -4.6890 C.3    56  ILE56       0.0022
     57  CG2      -15.7640   -1.7660   -7.0750 C.3    56  ILE56       0.0023
     58  CD1      -14.8880   -1.5980   -4.2360 C.3    56  ILE56       0.0001
     59  N        -18.7550   -1.3170   -8.6940 N.am   57  LEU57      -0.1977
     60  CA       -19.1700   -1.9160   -9.9630 C.3    57  LEU57       0.1596
     61  C        -17.9590   -2.2820  -10.7960 C.2    57  LEU57       0.2287
     62  O        -17.2040   -1.4190  -11.2470 O.2    57  LEU57      -0.2864
     63  CB       -20.0850   -0.9780  -10.7600 C.3    57  LEU57       0.0297
     64  CG       -20.5190   -1.6260  -12.0890 C.3    57  LEU57       0.0022
     65  CD1      -21.3460   -2.8690  -11.8150 C.3    57  LEU57       0.0001
     66  CD2      -21.2810   -0.6780  -12.9920 C.3    57  LEU57       0.0001
     67  N        -25.3010    3.3550  -15.1230 N.3    72  TYR72      -0.1241
     68  CA       -24.3280    3.2020  -14.0500 C.3    72  TYR72       0.1605
     69  C        -23.3790    4.3860  -13.9980 C.2    72  TYR72       0.2264
     70  O        -22.8150    4.6770  -12.9460 O.2    72  TYR72      -0.2867
     71  CB       -23.5630    1.8700  -14.1360 C.3    72  TYR72       0.0534
     72  CG       -22.4730    1.6730  -15.1790 C.ar   72  TYR72      -0.0201
     73  CD1      -21.3160    2.4440  -15.1920 C.ar   72  TYR72      -0.0009
     74  CD2      -22.5750    0.6340  -16.1030 C.ar   72  TYR72      -0.0009
     75  CE1      -20.3080    2.2140  -16.1340 C.ar   72  TYR72       0.0417
     76  CE2      -21.5920    0.4020  -17.0470 C.ar   72  TYR72       0.0417
     77  CZ       -20.4550    1.1900  -17.0540 C.ar   72  TYR72       0.1957
     78  OH       -19.4720    0.9420  -17.9930 O.3    72  TYR72      -0.2866
     79  N        -25.3180    6.8860  -11.8600 N.3    75  THR75      -0.1203
     80  CA       -25.3950    6.4420  -10.4700 C.3    75  THR75       0.1994
     81  C        -24.0530    6.5410   -9.7510 C.2    75  THR75       0.2618
     82  O        -23.9700    6.9550   -8.5890 O.2    75  THR75      -0.2717
     83  CB       -25.9040    4.9860  -10.4040 C.3    75  THR75       0.1784
     84  OG1      -27.2510    4.9540  -10.8790 O.3    75  THR75      -0.2211
     85  CG2      -25.8650    4.4520   -8.9780 C.3    75  THR75       0.0376
     86  N        -23.0020    6.1480  -10.4540 N.am   76  GLY76      -0.1956
     87  CA       -21.6550    6.1670   -9.9110 C.3    76  GLY76       0.1869
     88  C        -21.2090    7.5350   -9.4480 C.2    76  GLY76       0.2309
     89  O        -21.4200    8.5380  -10.1330 O.2    76  GLY76      -0.2863
@<TRIPOS>BOND
     1    78    77    1
     2    77    76   ar
     3    77    75   ar
     4    76    74   ar
     5    75    73   ar
     6    74    72   ar
     7    73    72   ar
     8    72    71    1
     9    67    68    1
    10    71    68    1
    11    68    69    1
    12    69    70    2
    13    23    22    1
    14    66    64    1
    15    64    65    1
    16    64    63    1
    17    79    80    1
    18    22    24    1
    19    22    19    1
    20    21    20    2
    21    20    19    1
    22    62    61    2
    23    84    83    1
    24    61    60    1
    25    63    60    1
    26    19    18    1
    27    80    83    1
    28    80    81    1
    29    86    87    1
    30    86    81   am
    31    83    85    1
    32    89    88    2
    33    60    59    1
    34    87    88    1
    35    81    82    2
    36    25    26    1
    37    18    12   am
    38    59    53   am
    39    42    41    1
    40    26    29    1
    41    26    27    1
    42    29    30    1
    43    12    13    2
    44    12    11    1
    45    39    41   ar
    46    39    37   ar
    47    41    40   ar
    48    53    54    2
    49    53    52    1
    50    37    36   ar
    51    11    14    1
    52    11    10    1
    53    27    28    2
    54    27    31   am
    55    57    55    1
    56     4     3    2
    57    31    32    1
    58    40    38   ar
    59    52    55    1
    60    52    51    1
    61    14    15    1
    62    10     3   am
    63     3     2    1
    64    36    38   ar
    65    36    35    1
    66    55    56    1
    67     5     2    1
    68     5     6    1
    69     7     6    1
    70     7     8    1
    71    46    45    2
    72    51    45   am
    73     2     1    1
    74    32    35    1
    75    32    33    1
    76     9     8    1
    77    15    17    1
    78    15    16    1
    79    45    44    1
    80    56    58    1
    81    34    33    2
    82    47    44    1
    83    47    48    1
    84    44    43    1
    85    48    50   ar
    86    48    49   ar
