@<TRIPOS>MOLECULE
tmp/4q03A01.pdb
 89 86 0 0 0
SMALL
GASTEIGER

@<TRIPOS>ATOM
      1  N         20.6530   46.2060   95.7300 N.3     6  LYS6       -0.1231
      2  CA        20.8340   45.4070   96.9450 C.3     6  LYS6        0.1693
      3  C         19.6590   45.6400   97.8730 C.2     6  LYS6        0.2592
      4  O         19.5410   46.7080   98.4930 O.2     6  LYS6       -0.2718
      5  CB        22.1490   45.7740   97.6260 C.3     6  LYS6        0.0285
      6  CG        23.3460   45.5540   96.7520 C.3     6  LYS6        0.0035
      7  CD        24.6380   45.8130   97.5220 C.3     6  LYS6        0.0206
      8  CE        25.8480   45.8480   96.6000 C.3     6  LYS6        0.1093
      9  NZ        27.1190   45.9920   97.3470 N.3     6  LYS6       -0.1314
     10  N         18.7970   44.6350   97.9480 N.am    7  LEU7       -0.1966
     11  CA        17.5560   44.7090   98.7160 C.3     7  LEU7        0.1728
     12  C         17.6940   43.8370   99.9430 C.2     7  LEU7        0.2616
     13  O         18.2890   42.7590   99.8830 O.2     7  LEU7       -0.2715
     14  CB        16.3880   44.2020   97.8750 C.3     7  LEU7        0.0311
     15  CG        16.2880   44.7650   96.4500 C.3     7  LEU7        0.0022
     16  CD1       15.0400   44.2480   95.7730 C.3     7  LEU7        0.0001
     17  CD2       16.3020   46.2960   96.4780 C.3     7  LEU7        0.0001
     18  N         17.1290   44.2760  101.0610 N.am    8  VAL8       -0.1977
     19  CA        17.2010   43.5360  102.3210 C.3     8  VAL8        0.1596
     20  C         15.7650   43.3800  102.8400 C.2     8  VAL8        0.2287
     21  O         15.0250   44.3470  102.9400 O.2     8  VAL8       -0.2864
     22  CB        18.0400   44.3150  103.3470 C.3     8  VAL8        0.0276
     23  CG1       18.0890   43.5820  104.6910 C.3     8  VAL8        0.0022
     24  CG2       19.4400   44.5470  102.8240 C.3     8  VAL8        0.0022
     25  N         21.5700   35.1320  100.8830 N.3    40  CYS40      -0.1221
     26  CA        21.5830   36.1400   99.8440 C.3    40  CYS40       0.1808
     27  C         21.2450   35.4830   98.5110 C.2    40  CYS40       0.2601
     28  O         21.9500   34.5530   98.0810 O.2    40  CYS40      -0.2717
     29  CB        22.9860   36.7440   99.8200 C.3    40  CYS40       0.0970
     30  SG        23.4250   37.7180   98.4110 S.3    40  CYS40      -0.0800
     31  N         20.1890   35.9560   97.8570 N.am   41  TYR41      -0.1976
     32  CA        19.6970   35.4140   96.5910 C.3    41  TYR41       0.1639
     33  C         19.9070   36.4270   95.4820 C.2    41  TYR41       0.2290
     34  O         19.9980   37.6360   95.7440 O.2    41  TYR41      -0.2864
     35  CB        18.2020   35.1310   96.6610 C.3    41  TYR41       0.0560
     36  CG        17.8040   33.9970   97.5640 C.ar   41  TYR41      -0.0198
     37  CD1       17.6470   34.1890   98.9280 C.ar   41  TYR41      -0.0009
     38  CD2       17.5370   32.7380   97.0420 C.ar   41  TYR41      -0.0009
     39  CE1       17.2480   33.1570   99.7540 C.ar   41  TYR41       0.0417
     40  CE2       17.1440   31.6950   97.8580 C.ar   41  TYR41       0.0417
     41  CZ        17.0110   31.9050   99.2170 C.ar   41  TYR41       0.1957
     42  OH        16.6100   30.8680  100.0360 O.3    41  TYR41      -0.2866
     43  N         19.7690   41.6840   94.1340 N.3    55  ASP55      -0.1225
     44  CA        20.4430   40.9270   95.1810 C.3    55  ASP55       0.1805
     45  C         19.5270   41.0480   96.3860 C.2    55  ASP55       0.2598
     46  O         19.2860   42.1770   96.8450 O.2    55  ASP55      -0.2718
     47  CB        21.7720   41.5830   95.5150 C.3    55  ASP55       0.1424
     48  CG        22.6740   41.7220   94.3210 C.2    55  ASP55       0.3668
     49  OD1       22.6730   40.8280   93.4520 O.co2  55  ASP55      -0.2456
     50  OD2       23.3870   42.7460   94.2610 O.co2  55  ASP55      -0.2456
     51  N         18.9970   39.9390   96.8870 N.am   56  ILE56      -0.1966
     52  CA        18.0180   39.9990   97.9700 C.3    56  ILE56       0.1727
     53  C         18.5280   39.2190   99.1730 C.2    56  ILE56       0.2616
     54  O         18.7280   37.9850   99.1140 O.2    56  ILE56      -0.2715
     55  CB        16.6710   39.4050   97.5010 C.3    56  ILE56       0.0290
     56  CG1       16.1610   40.1650   96.2740 C.3    56  ILE56       0.0022
     57  CG2       15.6370   39.4260   98.6260 C.3    56  ILE56       0.0023
     58  CD1       14.9310   39.5820   95.6380 C.3    56  ILE56       0.0001
     59  N         18.7110   39.9250  100.2770 N.am   57  LEU57      -0.1977
     60  CA        19.1290   39.3060  101.5330 C.3    57  LEU57       0.1596
     61  C         17.8790   38.9910  102.3390 C.2    57  LEU57       0.2287
     62  O         17.1400   39.9040  102.7480 O.2    57  LEU57      -0.2864
     63  CB        20.0430   40.2380  102.3280 C.3    57  LEU57       0.0297
     64  CG        20.5670   39.6470  103.6420 C.3    57  LEU57       0.0022
     65  CD1       21.4410   38.4000  103.4000 C.3    57  LEU57       0.0001
     66  CD2       21.3090   40.7110  104.4320 C.3    57  LEU57       0.0001
     67  N         25.1510   44.7670  106.9030 N.3    72  TYR72      -0.1241
     68  CA        24.1530   44.6100  105.8450 C.3    72  TYR72       0.1605
     69  C         23.2360   45.7930  105.8000 C.2    72  TYR72       0.2264
     70  O         22.7140   46.1200  104.7210 O.2    72  TYR72      -0.2867
     71  CB        23.3810   43.2820  105.8720 C.3    72  TYR72       0.0534
     72  CG        22.3390   43.0390  106.9330 C.ar   72  TYR72      -0.0201
     73  CD1       21.1510   43.7400  106.9430 C.ar   72  TYR72      -0.0009
     74  CD2       22.4960   42.0060  107.8350 C.ar   72  TYR72      -0.0009
     75  CE1       20.1620   43.4730  107.8780 C.ar   72  TYR72       0.0417
     76  CE2       21.5170   41.7040  108.7520 C.ar   72  TYR72       0.0417
     77  CZ        20.3420   42.4440  108.7720 C.ar   72  TYR72       0.1957
     78  OH        19.3420   42.1460  109.6730 O.3    72  TYR72      -0.2866
     79  N         25.2600   48.4670  103.8830 N.3    75  THR75      -0.1203
     80  CA        25.4530   48.0580  102.5000 C.3    75  THR75       0.1994
     81  C         24.1320   48.0660  101.6950 C.2    75  THR75       0.2618
     82  O         24.1080   48.3740  100.4930 O.2    75  THR75      -0.2717
     83  CB        26.0560   46.6030  102.4670 C.3    75  THR75       0.1784
     84  OG1       27.3920   46.5940  103.0030 O.3    75  THR75      -0.2211
     85  CG2       26.1230   46.0780  101.0270 C.3    75  THR75       0.0376
     86  N         23.0580   47.6640  102.3420 N.am   76  GLY76      -0.1956
     87  CA        21.7800   47.5280  101.6590 C.3    76  GLY76       0.1869
     88  C         21.2880   48.8620  101.1510 C.2    76  GLY76       0.2309
     89  O         21.4120   49.8720  101.8300 O.2    76  GLY76      -0.2863
@<TRIPOS>BOND
     1    49    48   ar
     2    43    44    1
     3    50    48   ar
     4    48    47    1
     5    44    47    1
     6    44    45    1
     7    33    34    2
     8    33    32    1
     9    58    56    1
    10     1     2    1
    11    16    15    1
    12    56    55    1
    13    45    46    2
    14    45    51   am
    15    15    17    1
    16    15    14    1
    17    32    35    1
    18    32    31    1
    19     8     9    1
    20     8     7    1
    21    35    36    1
    22     6     7    1
    23     6     5    1
    24    51    52    1
    25     2     5    1
    26     2     3    1
    27    38    36   ar
    28    38    40   ar
    29    55    52    1
    30    55    57    1
    31    36    37   ar
    32    31    27   am
    33    40    41   ar
    34     3    10   am
    35     3     4    2
    36    14    11    1
    37    10    11    1
    38    52    53    1
    39    28    27    2
    40    30    29    1
    41    27    26    1
    42    11    12    1
    43    37    39   ar
    44    54    53    2
    45    53    59   am
    46    41    39   ar
    47    41    42    1
    48    29    26    1
    49    26    25    1
    50    13    12    2
    51    12    18   am
    52    59    60    1
    53    82    81    2
    54    85    83    1
    55    18    19    1
    56    88    87    1
    57    88    89    2
    58    60    63    1
    59    60    61    1
    60    87    86    1
    61    81    86   am
    62    81    80    1
    63    19    20    1
    64    19    22    1
    65    63    64    1
    66    61    62    2
    67    83    80    1
    68    83    84    1
    69    80    79    1
    70    24    22    1
    71    20    21    2
    72    22    23    1
    73    65    64    1
    74    64    66    1
    75    70    69    2
    76    69    68    1
    77    68    71    1
    78    68    67    1
    79    71    72    1
    80    72    73   ar
    81    72    74   ar
    82    73    75   ar
    83    74    76   ar
    84    75    77   ar
    85    76    77   ar
    86    77    78    1
