@<TRIPOS>MOLECULE
tmp/4q0aA02.pdb
 96 93 0 0 0
SMALL
GASTEIGER

@<TRIPOS>ATOM
      1  N         -0.6480   48.9570   29.5860 N.3    27  ASP27      -0.1239
      2  CA        -0.0260   48.1200   28.5670 C.3    27  ASP27       0.1674
      3  C         -0.7160   46.7570   28.4020 C.2    27  ASP27       0.2266
      4  O         -0.4340   46.0410   27.4400 O.2    27  ASP27      -0.2867
      5  CB         1.4390   47.8420   28.9080 C.3    27  ASP27       0.1410
      6  CG         2.3050   49.0810   28.8400 C.2    27  ASP27       0.3668
      7  OD1        2.1220   49.9080   27.9220 O.co2  27  ASP27      -0.2456
      8  OD2        3.1880   49.2130   29.6970 O.co2  27  ASP27      -0.2456
      9  N         -2.1110   45.3520   25.1640 N.3    30  ARG30      -0.1231
     10  CA        -1.1970   44.9630   24.0920 C.3    30  ARG30       0.1694
     11  C         -0.9600   43.4490   24.1100 C.2    30  ARG30       0.2592
     12  O         -0.4470   42.8860   23.1440 O.2    30  ARG30      -0.2718
     13  CB         0.1590   45.6870   24.2260 C.3    30  ARG30       0.0321
     14  CG         0.1160   47.2290   24.1810 C.3    30  ARG30       0.0489
     15  CD        -0.3900   47.7290   22.8340 C.3    30  ARG30       0.2205
     16  NE         0.2870   47.0970   21.7060 N.pl3  30  ARG30      -0.0865
     17  CZ         1.3900   47.5590   21.1230 C.cat  30  ARG30       0.5346
     18  NH1        1.9590   48.6860   21.5540 N.pl3  30  ARG30       0.1354
     19  NH2        1.9410   46.8760   20.1170 N.pl3  30  ARG30       0.1354
     20  N         -1.3220   42.8140   25.2180 N.am   31  PHE31      -0.1976
     21  CA        -1.1580   41.3740   25.3900 C.3    31  PHE31       0.1639
     22  C         -2.1410   40.5880   24.5180 C.2    31  PHE31       0.2290
     23  O         -3.2070   41.0930   24.1470 O.2    31  PHE31      -0.2864
     24  CB        -1.4620   40.9370   26.8300 C.3    31  PHE31       0.0560
     25  CG        -0.6580   41.6320   27.9110 C.ar   31  PHE31      -0.0200
     26  CD1        0.4750   42.3800   27.6170 C.ar   31  PHE31      -0.0042
     27  CD2       -1.0480   41.5030   29.2340 C.ar   31  PHE31      -0.0042
     28  CE1        1.2100   42.9870   28.6430 C.ar   31  PHE31      -0.0003
     29  CE2       -0.3300   42.1050   30.2670 C.ar   31  PHE31      -0.0003
     30  CZ         0.8060   42.8490   29.9650 C.ar   31  PHE31      -0.0000
     31  N          1.9850   36.4140   27.9920 N.3    46  ASP46      -0.1239
     32  CA         2.3560   37.7940   27.6870 C.3    46  ASP46       0.1674
     33  C          2.4440   38.6190   28.9640 C.2    46  ASP46       0.2266
     34  O          3.4080   39.3760   29.1570 O.2    46  ASP46      -0.2867
     35  CB         1.3620   38.4380   26.7190 C.3    46  ASP46       0.1410
     36  CG         1.6890   38.1370   25.2710 C.2    46  ASP46       0.3668
     37  OD1        2.6960   37.4300   25.0150 O.co2  46  ASP46      -0.2456
     38  OD2        0.9550   38.6070   24.3850 O.co2  46  ASP46      -0.2456
     39  N          5.5490   37.5910   30.9380 N.3    49  SER49      -0.1202
     40  CA         6.7480   38.0670   30.2350 C.3    49  SER49       0.2020
     41  C          6.9330   39.5750   30.4120 C.2    49  SER49       0.2618
     42  O          8.0550   40.0730   30.5940 O.2    49  SER49      -0.2717
     43  CB         6.6350   37.7220   28.7500 C.3    49  SER49       0.2103
     44  OG         7.8670   37.8620   28.0640 O.3    49  SER49      -0.2182
     45  N          5.8290   40.3130   30.3360 N.am   50  TYR50      -0.1975
     46  CA         5.8810   41.7630   30.5210 C.3    50  TYR50       0.1639
     47  C          6.3280   41.9930   31.9670 C.2    50  TYR50       0.2290
     48  O          7.1620   42.8530   32.2400 O.2    50  TYR50      -0.2864
     49  CB         4.4850   42.3640   30.2760 C.3    50  TYR50       0.0560
     50  CG         4.2840   43.8140   30.7070 C.ar   50  TYR50      -0.0198
     51  CD1        4.5570   44.8640   29.8350 C.ar   50  TYR50      -0.0009
     52  CD2        3.7300   44.1210   31.9510 C.ar   50  TYR50      -0.0009
     53  CE1        4.2610   46.2070   30.1860 C.ar   50  TYR50       0.0417
     54  CE2        3.4370   45.4720   32.3220 C.ar   50  TYR50       0.0417
     55  CZ         3.7010   46.4940   31.4260 C.ar   50  TYR50       0.1957
     56  OH         3.3600   47.8090   31.7360 O.3    50  TYR50      -0.2866
     57  N         10.1230   41.6670   32.4160 N.3    53  GLN53      -0.1231
     58  CA        10.8720   42.8320   31.9280 C.3    53  GLN53       0.1698
     59  C         10.8500   43.9400   32.9610 C.2    53  GLN53       0.2592
     60  O         11.8410   44.6550   33.1480 O.2    53  GLN53      -0.2718
     61  CB        10.2820   43.3780   30.6350 C.3    53  GLN53       0.0381
     62  CG         9.7830   42.2980   29.7030 C.3    53  GLN53       0.0905
     63  CD         9.4070   42.8250   28.3500 C.2    53  GLN53       0.2608
     64  OE1        8.6350   42.1960   27.6360 O.2    53  GLN53      -0.2717
     65  NE2        9.9630   43.9860   27.9750 N.am   53  GLN53      -0.0878
     66  N          9.7080   44.0840   33.6220 N.am   54  LYS54      -0.1980
     67  CA         9.5460   45.1060   34.6570 C.3    54  LYS54       0.1596
     68  C         10.3680   44.7710   35.9120 C.2    54  LYS54       0.2287
     69  O         10.9140   45.6590   36.5540 O.2    54  LYS54      -0.2864
     70  CB         8.0620   45.2680   35.0030 C.3    54  LYS54       0.0298
     71  CG         7.2260   45.7860   33.8420 C.3    54  LYS54       0.0038
     72  CD         7.7590   47.1230   33.3120 C.3    54  LYS54       0.0206
     73  CE         6.8800   47.6890   32.2220 C.3    54  LYS54       0.1093
     74  NZ         7.5150   48.8630   31.5490 N.3    54  LYS54      -0.1314
     75  N          6.7870   33.1400   25.5840 N.3   227  THR227     -0.1204
     76  CA         7.5840   34.1510   24.8860 C.3   227  THR227      0.1979
     77  C          9.0660   33.8120   25.0100 C.2   227  THR227      0.2460
     78  O          9.4490   33.0460   25.8810 O.2   227  THR227     -0.2732
     79  CB         7.4080   35.5190   25.5160 C.3   227  THR227      0.1783
     80  OG1        7.9670   35.4880   26.8350 O.3   227  THR227     -0.2211
     81  CG2        5.9270   35.8900   25.5900 C.3   227  THR227      0.0376
     82  N          9.9080   34.3810   24.1430 N.am  228  PRO228     -0.2717
     83  CA        11.3360   34.0790   24.2460 C.3   228  PRO228      0.1535
     84  C         11.8910   34.4760   25.6190 C.2   228  PRO228      0.2598
     85  O         12.7290   33.7710   26.1480 O.2   228  PRO228     -0.2715
     86  CB        11.9480   34.9000   23.1160 C.3   228  PRO228      0.0310
     87  CG        10.8490   34.9580   22.1110 C.3   228  PRO228      0.0237
     88  CD         9.6380   35.2210   22.9640 C.3   228  PRO228      0.0939
     89  N         11.4310   35.5910   26.2060 N.am  229  LEU229     -0.1978
     90  CA        11.9440   35.9950   27.5260 C.3   229  LEU229      0.1596
     91  C         11.5460   35.0100   28.6390 C.2   229  LEU229      0.2287
     92  O         12.3430   34.7010   29.5210 O.2   229  LEU229     -0.2864
     93  CB        11.4850   37.4260   27.8890 C.3   229  LEU229      0.0297
     94  CG        11.9720   37.9720   29.2340 C.3   229  LEU229      0.0022
     95  CD1       13.5000   38.0730   29.2130 C.3   229  LEU229      0.0001
     96  CD2       11.3530   39.3700   29.5010 C.3   229  LEU229      0.0001
@<TRIPOS>BOND
     1    19    17    1
     2    17    18    1
     3    17    16    2
     4    16    15    1
     5    87    88    1
     6    87    86    1
     7    15    14    1
     8    88    82    1
     9    86    83    1
    10    12    11    2
    11    10    11    1
    12    10    13    1
    13    10     9    1
    14    11    20   am
    15    82    83    1
    16    82    77   am
    17    23    22    2
    18    14    13    1
    19    83    84    1
    20    38    36   ar
    21    22    21    1
    22    76    77    1
    23    76    79    1
    24    76    75    1
    25    77    78    2
    26    37    36   ar
    27    20    21    1
    28    36    35    1
    29    21    24    1
    30    79    81    1
    31    79    80    1
    32    84    85    2
    33    84    89   am
    34    89    90    1
    35    35    32    1
    36    24    25    1
    37     4     3    2
    38    90    93    1
    39    90    91    1
    40    26    25   ar
    41    26    28   ar
    42    64    63    2
    43    32    31    1
    44    32    33    1
    45    93    94    1
    46    25    27   ar
    47     7     6   ar
    48    65    63   am
    49    44    43    1
    50    63    62    1
    51     3     2    1
    52     2     5    1
    53     2     1    1
    54    91    92    2
    55    28    30   ar
    56    43    40    1
    57     6     5    1
    58     6     8   ar
    59    33    34    2
    60    95    94    1
    61    94    96    1
    62    27    29   ar
    63    62    61    1
    64    51    53   ar
    65    51    50   ar
    66    30    29   ar
    67    53    55   ar
    68    40    41    1
    69    40    39    1
    70    49    46    1
    71    49    50    1
    72    45    41   am
    73    45    46    1
    74    41    42    2
    75    46    47    1
    76    61    58    1
    77    50    52   ar
    78    55    56    1
    79    55    54   ar
    80    74    73    1
    81    58    57    1
    82    58    59    1
    83    52    54   ar
    84    47    48    2
    85    73    72    1
    86    59    60    2
    87    59    66   am
    88    72    71    1
    89    66    67    1
    90    71    70    1
    91    67    70    1
    92    67    68    1
    93    68    69    2
