@<TRIPOS>MOLECULE
tmp/4q0aA01.pdb
 250 236 0 0 0
SMALL
GASTEIGER

@<TRIPOS>ATOM
      1  N          6.1690   49.7020   37.8470 N.3    21  TYR21      -0.1241
      2  CA         4.8550   49.1490   38.1160 C.3    21  TYR21       0.1605
      3  C          3.8140   50.2040   37.7790 C.2    21  TYR21       0.2264
      4  O          3.6080   51.1380   38.5460 O.2    21  TYR21      -0.2867
      5  CB         4.7230   48.7400   39.5770 C.3    21  TYR21       0.0534
      6  CG         3.4750   47.9290   39.8500 C.ar   21  TYR21      -0.0201
      7  CD1        2.2500   48.5500   40.0700 C.ar   21  TYR21      -0.0009
      8  CD2        3.5180   46.5320   39.8770 C.ar   21  TYR21      -0.0009
      9  CE1        1.0980   47.8070   40.3120 C.ar   21  TYR21       0.0417
     10  CE2        2.3710   45.7800   40.1250 C.ar   21  TYR21       0.0417
     11  CZ         1.1630   46.4270   40.3420 C.ar   21  TYR21       0.1957
     12  OH         0.0210   45.6890   40.5990 O.3    21  TYR21      -0.2866
     13  N         -2.0820   49.9090   34.5670 N.3    25  TYR25      -0.1241
     14  CA        -2.0670   48.6750   33.7690 C.3    25  TYR25       0.1605
     15  C         -2.4130   48.9650   32.3090 C.2    25  TYR25       0.2264
     16  O         -3.0160   48.1300   31.6380 O.2    25  TYR25      -0.2867
     17  CB        -3.0760   47.6630   34.3400 C.3    25  TYR25       0.0534
     18  CG        -2.9030   47.4150   35.8170 C.ar   25  TYR25      -0.0201
     19  CD1       -1.8550   46.6050   36.3020 C.ar   25  TYR25      -0.0009
     20  CD2       -3.7250   48.0650   36.7500 C.ar   25  TYR25      -0.0009
     21  CE1       -1.6400   46.4630   37.6710 C.ar   25  TYR25       0.0417
     22  CE2       -3.5070   47.9370   38.1180 C.ar   25  TYR25       0.0417
     23  CZ        -2.4630   47.1360   38.5730 C.ar   25  TYR25       0.1957
     24  OH        -2.2460   47.0240   39.9280 O.3    25  TYR25      -0.2866
     25  N         -1.5950   46.3970   29.3310 N.3    28  PHE28      -0.1241
     26  CA        -2.2680   45.0920   29.2890 C.3    28  PHE28       0.1605
     27  C         -3.1070   44.8520   28.0260 C.2    28  PHE28       0.2264
     28  O         -3.3900   43.7000   27.6700 O.2    28  PHE28      -0.2867
     29  CB        -3.1420   44.9060   30.5260 C.3    28  PHE28       0.0534
     30  CG        -2.3940   44.4240   31.7520 C.ar   28  PHE28      -0.0203
     31  CD1       -1.1350   44.9400   32.0830 C.ar   28  PHE28      -0.0042
     32  CD2       -2.9760   43.4930   32.6080 C.ar   28  PHE28      -0.0042
     33  CE1       -0.4710   44.5260   33.2640 C.ar   28  PHE28      -0.0003
     34  CE2       -2.3300   43.0720   33.7840 C.ar   28  PHE28      -0.0003
     35  CZ        -1.0740   43.5930   34.1100 C.ar   28  PHE28      -0.0000
     36  N         -3.7560   30.8450   28.5130 N.3    41  LEU41      -0.1245
     37  CA        -2.2930   30.7390   28.3370 C.3    41  LEU41       0.1561
     38  C         -1.6300   31.8200   27.4780 C.2    41  LEU41       0.2260
     39  O         -0.5840   32.3380   27.8600 O.2    41  LEU41      -0.2867
     40  CB        -1.9040   29.3390   27.8130 C.3    41  LEU41       0.0270
     41  CG        -0.4150   29.0310   27.5910 C.3    41  LEU41       0.0019
     42  CD1        0.3710   29.2350   28.8950 C.3    41  LEU41       0.0001
     43  CD2       -0.2580   27.5810   27.0960 C.3    41  LEU41       0.0001
     44  N         -1.7600   35.1800   29.5570 N.3    44  LEU44      -0.1231
     45  CA        -0.9550   35.1430   30.7650 C.3    44  LEU44       0.1693
     46  C          0.5380   34.9790   30.4900 C.2    44  LEU44       0.2591
     47  O          1.3430   35.4450   31.2820 O.2    44  LEU44      -0.2718
     48  CB        -1.4850   34.0770   31.7350 C.3    44  LEU44       0.0284
     49  CG        -2.8890   34.4180   32.2970 C.3    44  LEU44       0.0019
     50  CD1       -3.4530   33.2790   33.1400 C.3    44  LEU44       0.0001
     51  CD2       -2.8120   35.6810   33.1500 C.3    44  LEU44       0.0001
     52  N          0.8910   34.3540   29.3690 N.am   45  ALA45      -0.1980
     53  CA         2.2950   34.2030   28.9770 C.3    45  ALA45       0.1597
     54  C          2.8040   35.6180   28.6840 C.2    45  ALA45       0.2287
     55  O          3.9190   35.9820   29.0690 O.2    45  ALA45      -0.2864
     56  CB         2.4080   33.3630   27.7350 C.3    45  ALA45       0.0319
     57  N          1.4440   38.4790   29.8320 N.3    47  LEU47      -0.1231
     58  CA         1.4280   39.1970   31.1080 C.3    47  LEU47       0.1693
     59  C          2.6710   38.8440   31.9540 C.2    47  LEU47       0.2591
     60  O          3.3420   39.7290   32.4900 O.2    47  LEU47      -0.2718
     61  CB         0.1530   38.8450   31.9030 C.3    47  LEU47       0.0284
     62  CG        -0.1190   39.5690   33.2320 C.3    47  LEU47       0.0019
     63  CD1       -1.6080   39.5060   33.5320 C.3    47  LEU47       0.0001
     64  CD2        0.6850   38.9550   34.3660 C.3    47  LEU47       0.0001
     65  N          2.9690   37.5550   32.0960 N.am   48  VAL48      -0.1980
     66  CA         4.1300   37.1610   32.8930 C.3    48  VAL48       0.1595
     67  C          5.4200   37.6990   32.2580 C.2    48  VAL48       0.2287
     68  O          6.2690   38.2300   32.9560 O.2    48  VAL48      -0.2864
     69  CB         4.1980   35.6100   33.0590 C.3    48  VAL48       0.0276
     70  CG1        5.5650   35.1740   33.6080 C.3    48  VAL48       0.0022
     71  CG2        3.1220   35.1590   34.0260 C.3    48  VAL48       0.0022
     72  N          5.8170   41.1980   32.8990 N.3    51  SER51      -0.1217
     73  CA         6.1930   41.3990   34.2960 C.3    51  SER51       0.1889
     74  C          7.6820   41.1240   34.5290 C.2    51  SER51       0.2288
     75  O          8.3240   41.8080   35.3350 O.2    51  SER51      -0.2866
     76  CB         5.3340   40.5300   35.2060 C.3    51  SER51       0.2089
     77  OG         3.9650   40.7720   34.9370 O.3    51  SER51      -0.2183
     78  N         10.1590   34.7520   39.3280 N.3    82  ILE82      -0.1245
     79  CA         8.8050   34.2960   39.6330 C.3    82  ILE82       0.1561
     80  C          8.3610   34.7460   41.0300 C.2    82  ILE82       0.2260
     81  O          7.1880   35.0770   41.2460 O.2    82  ILE82      -0.2867
     82  CB         8.6720   32.7610   39.5220 C.3    82  ILE82       0.0252
     83  CG1        7.2170   32.3560   39.7620 C.3    82  ILE82       0.0019
     84  CG2        9.6020   32.0770   40.5150 C.3    82  ILE82       0.0019
     85  CD1        6.3120   32.7370   38.6290 C.3    82  ILE82       0.0001
     86  N          7.4780   38.5360   40.8990 N.3    85  ILE85      -0.1231
     87  CA         6.2140   38.7250   40.1880 C.3    85  ILE85       0.1692
     88  C          5.0570   38.4040   41.1500 C.2    85  ILE85       0.2591
     89  O          4.0920   39.1620   41.2510 O.2    85  ILE85      -0.2718
     90  CB         6.1500   37.8370   38.9000 C.3    85  ILE85       0.0266
     91  CG1        7.1830   38.3460   37.8880 C.3    85  ILE85       0.0019
     92  CG2        4.7490   37.8830   38.2860 C.3    85  ILE85       0.0020
     93  CD1        7.2490   37.5750   36.5660 C.3    85  ILE85       0.0001
     94  N          5.1610   37.2840   41.8600 N.am   86  MET86      -0.1979
     95  CA         4.1480   36.8980   42.8410 C.3    86  MET86       0.1605
     96  C          4.0270   37.9460   43.9500 C.2    86  MET86       0.2287
     97  O          2.9260   38.2310   44.4210 O.2    86  MET86      -0.2864
     98  CB         4.4970   35.5510   43.4780 C.3    86  MET86       0.0413
     99  CG         4.2660   34.3700   42.5640 C.3    86  MET86       0.0598
    100  SD         4.8800   32.8710   43.3590 S.3    86  MET86      -0.1393
    101  CE         4.4840   31.6730   42.0690 C.3    86  MET86       0.0692
    102  N          5.0320   41.2920   43.7730 N.3    88  ARG88      -0.1231
    103  CA         4.5580   42.5690   43.2570 C.3    88  ARG88       0.1694
    104  C          3.0670   42.5490   42.9230 C.2    88  ARG88       0.2592
    105  O          2.4000   43.5810   42.9650 O.2    88  ARG88      -0.2718
    106  CB         5.3910   42.9780   42.0400 C.3    88  ARG88       0.0321
    107  CG         5.2110   42.1070   40.8080 C.3    88  ARG88       0.0489
    108  CD         6.2280   42.4860   39.7370 C.3    88  ARG88       0.2205
    109  NE         5.9110   43.7640   39.1190 N.pl3  88  ARG88      -0.0865
    110  CZ         6.8210   44.6190   38.6890 C.cat  88  ARG88       0.5346
    111  NH1        8.0990   44.3140   38.8250 N.pl3  88  ARG88       0.1354
    112  NH2        6.4680   45.7540   38.1160 N.pl3  88  ARG88       0.1354
    113  N          2.5450   41.3650   42.6140 N.am   89  SER89      -0.1952
    114  CA         1.1360   41.2120   42.2480 C.3    89  SER89       0.1924
    115  C          0.1780   41.4410   43.4110 C.2    89  SER89       0.2314
    116  O         -1.0350   41.5840   43.2130 O.2    89  SER89      -0.2863
    117  CB         0.8940   39.8140   41.6690 C.3    89  SER89       0.2116
    118  OG         0.7170   38.8710   42.7010 O.3    89  SER89      -0.2180
    119  N         -2.2920   44.3760   43.1650 N.3    92  SER92      -0.1217
    120  CA        -3.5830   44.3630   42.4690 C.3    92  SER92       0.1889
    121  C         -4.5600   43.3700   43.1200 C.2    92  SER92       0.2288
    122  O         -5.7540   43.3540   42.7940 O.2    92  SER92      -0.2866
    123  CB        -3.4030   43.9880   40.9900 C.3    92  SER92       0.2089
    124  OG        -2.9800   42.6360   40.8470 O.3    92  SER92      -0.2183
    125  N         -6.9440   39.3290   41.2520 N.3   100  TRP100     -0.1241
    126  CA        -5.9290   40.3100   40.9280 C.3   100  TRP100      0.1605
    127  C         -6.6960   41.2530   39.9980 C.2   100  TRP100      0.2264
    128  O         -7.0110   40.8830   38.8790 O.2   100  TRP100     -0.2867
    129  CB        -4.7530   39.6480   40.1910 C.3   100  TRP100      0.0550
    130  CG        -3.8500   38.8190   41.0910 C.ar  100  TRP100      0.0003
    131  CD1       -2.7790   39.2600   41.7920 C.ar  100  TRP100      0.0946
    132  CD2       -3.9390   37.4070   41.3370 C.ar  100  TRP100      0.0152
    133  NE1       -2.1760   38.2100   42.4570 N.ar  100  TRP100     -0.2442
    134  CE2       -2.8720   37.0620   42.1930 C.ar  100  TRP100      0.0810
    135  CE3       -4.8150   36.4010   40.9130 C.ar  100  TRP100      0.0012
    136  CZ2       -2.6570   35.7480   42.6350 C.ar  100  TRP100      0.0191
    137  CZ3       -4.5990   35.0960   41.3500 C.ar  100  TRP100      0.0001
    138  CH2       -3.5290   34.7830   42.2000 C.ar  100  TRP100      0.0015
    139  N         -6.5220   44.2420   37.7460 N.3   102  CYS102     -0.1235
    140  CA        -5.5930   45.1060   37.0420 C.3   102  CYS102      0.1677
    141  C         -6.2760   46.0780   36.1080 C.2   102  CYS102      0.2270
    142  O         -6.0490   46.0650   34.9160 O.2   102  CYS102     -0.2867
    143  CB        -4.5860   44.2470   36.2720 C.3   102  CYS102      0.0956
    144  SG        -3.7450   43.0970   37.3860 S.3   102  CYS102     -0.0801
    145  N         -8.3560   38.9870   37.3680 N.3   109  TYR109     -0.1241
    146  CA        -8.1180   37.5460   37.3370 C.3   109  TYR109      0.1605
    147  C         -8.4660   36.8390   38.6270 C.2   109  TYR109      0.2264
    148  O         -7.9380   37.1660   39.6940 O.2   109  TYR109     -0.2867
    149  CB        -6.6430   37.2750   36.9940 C.3   109  TYR109      0.0534
    150  CG        -6.1420   38.1220   35.8570 C.ar  109  TYR109     -0.0201
    151  CD1       -6.4210   37.7850   34.5290 C.ar  109  TYR109     -0.0009
    152  CD2       -5.4400   39.3050   36.1040 C.ar  109  TYR109     -0.0009
    153  CE1       -6.0160   38.6020   33.4780 C.ar  109  TYR109      0.0417
    154  CE2       -5.0330   40.1300   35.0540 C.ar  109  TYR109      0.0417
    155  CZ        -5.3230   39.7690   33.7520 C.ar  109  TYR109      0.1957
    156  OH        -4.8970   40.5610   32.7230 O.3   109  TYR109     -0.2866
    157  N         -6.8120   32.0620   36.3080 N.3   114  VAL114     -0.1245
    158  CA        -5.4150   31.6530   36.4230 C.3   114  VAL114      0.1561
    159  C         -5.1470   30.1430   36.4560 C.2   114  VAL114      0.2260
    160  O         -3.9880   29.7090   36.4950 O.2   114  VAL114     -0.2867
    161  CB        -4.7340   32.3500   37.6470 C.3   114  VAL114      0.0252
    162  CG1       -4.7140   33.8750   37.4270 C.3   114  VAL114      0.0019
    163  CG2       -5.4630   32.0200   38.9300 C.3   114  VAL114      0.0019
    164  N         -4.0730   28.1180   32.3520 N.3   117  ALA117     -0.1245
    165  CA        -2.8180   28.2910   31.6200 C.3   117  ALA117      0.1562
    166  C         -1.9270   27.0710   31.7930 C.2   117  ALA117      0.2260
    167  O         -0.7230   27.1380   31.5430 O.2   117  ALA117     -0.2867
    168  CB        -2.0860   29.5190   32.0970 C.3   117  ALA117      0.0290
    169  N         -1.2980   25.4660   34.6920 N.3   119  HIS119     -0.1241
    170  CA        -0.9610   25.2720   36.0860 C.3   119  HIS119      0.1621
    171  C         -2.1480   24.7960   36.9130 C.2   119  HIS119      0.2264
    172  O         -3.2960   25.1920   36.6640 O.2   119  HIS119     -0.2867
    173  CB        -0.3530   26.5670   36.6160 C.3   119  HIS119      0.0745
    174  CG         0.9460   26.9020   35.9520 C.ar  119  HIS119      0.0817
    175  ND1        2.1570   26.4500   36.4260 N.ar  119  HIS119     -0.2268
    176  CD2        1.2170   27.5470   34.7930 C.ar  119  HIS119      0.1154
    177  CE1        3.1180   26.8040   35.5930 C.ar  119  HIS119      0.1986
    178  NE2        2.5740   27.4700   34.5940 N.ar  119  HIS119     -0.2212
    179  N         -0.5000   24.6610   42.6350 N.3   123  LEU123     -0.1231
    180  CA         0.3170   25.8700   42.6690 C.3   123  LEU123      0.1693
    181  C         -0.5880   27.0490   43.0460 C.2   123  LEU123      0.2591
    182  O         -0.2410   27.8660   43.8780 O.2   123  LEU123     -0.2718
    183  CB         0.9580   26.1690   41.2980 C.3   123  LEU123      0.0284
    184  CG         1.6110   27.5670   41.2060 C.3   123  LEU123      0.0019
    185  CD1        2.7690   27.6510   42.1670 C.3   123  LEU123      0.0001
    186  CD2        2.0980   27.8570   39.7930 C.3   123  LEU123      0.0001
    187  N         -1.7660   27.1060   42.4410 N.am  124  LEU124     -0.1980
    188  CA        -2.6870   28.2150   42.6550 C.3   124  LEU124      0.1596
    189  C         -3.3340   28.3710   44.0210 C.2   124  LEU124      0.2287
    190  O         -3.6150   29.4960   44.4450 O.2   124  LEU124     -0.2864
    191  CB        -3.7380   28.1900   41.5510 C.3   124  LEU124      0.0297
    192  CG        -3.0380   28.6790   40.2770 C.3   124  LEU124      0.0022
    193  CD1       -3.6260   28.0520   39.0610 C.3   124  LEU124      0.0001
    194  CD2       -3.1110   30.1970   40.2250 C.3   124  LEU124      0.0001
    195  N         -0.7440   29.8860   46.2260 N.3   127  LEU127     -0.1245
    196  CA        -0.4860   31.2440   45.7450 C.3   127  LEU127      0.1561
    197  C         -1.5640   32.2190   46.2110 C.2   127  LEU127      0.2260
    198  O         -1.2530   33.3400   46.6230 O.2   127  LEU127     -0.2867
    199  CB        -0.3770   31.2770   44.2130 C.3   127  LEU127      0.0270
    200  CG        -0.2240   32.6740   43.5740 C.3   127  LEU127      0.0019
    201  CD1        1.0030   33.3620   44.1350 C.3   127  LEU127      0.0001
    202  CD2       -0.1000   32.5550   42.0690 C.3   127  LEU127      0.0001
    203  N          6.0940   26.0510   41.2530 N.3   209  HIS209     -0.1241
    204  CA         6.0000   26.6300   39.9240 C.3   209  HIS209      0.1621
    205  C          7.0570   26.0310   38.9970 C.2   209  HIS209      0.2264
    206  O          6.7810   25.7330   37.8320 O.2   209  HIS209     -0.2867
    207  CB         6.1980   28.1450   39.9570 C.3   209  HIS209      0.0745
    208  CG         6.4260   28.7320   38.5990 C.ar  209  HIS209      0.0817
    209  ND1        7.6850   28.8970   38.0670 N.ar  209  HIS209     -0.2268
    210  CD2        5.5570   29.0800   37.6230 C.ar  209  HIS209      0.1154
    211  CE1        7.5840   29.3120   36.8180 C.ar  209  HIS209      0.1986
    212  NE2        6.3020   29.4300   36.5220 N.ar  209  HIS209     -0.2212
    213  N          6.2860   24.1920   35.6370 N.3   213  TYR213     -0.1241
    214  CA         6.8200   24.7740   34.4220 C.3   213  TYR213      0.1605
    215  C          7.5540   23.6930   33.6230 C.2   213  TYR213      0.2264
    216  O          7.3900   23.5710   32.4160 O.2   213  TYR213     -0.2867
    217  CB         7.7920   25.8930   34.7670 C.3   213  TYR213      0.0534
    218  CG         8.3980   26.4990   33.5480 C.ar  213  TYR213     -0.0201
    219  CD1        7.6860   27.4270   32.7840 C.ar  213  TYR213     -0.0009
    220  CD2        9.6460   26.0800   33.0890 C.ar  213  TYR213     -0.0009
    221  CE1        8.1990   27.9130   31.5900 C.ar  213  TYR213      0.0417
    222  CE2       10.1650   26.5570   31.8940 C.ar  213  TYR213      0.0417
    223  CZ         9.4350   27.4700   31.1500 C.ar  213  TYR213      0.1957
    224  OH         9.9290   27.9160   29.9590 O.3   213  TYR213     -0.2866
    225  N          4.5560   30.3210   24.7760 N.3   226  LEU226     -0.1245
    226  CA         5.3010   31.1890   25.6870 C.3   226  LEU226      0.1561
    227  C          6.1150   32.2220   24.8940 C.2   226  LEU226      0.2260
    228  O          6.1150   32.2020   23.6720 O.2   226  LEU226     -0.2867
    229  CB         6.2000   30.3340   26.5920 C.3   226  LEU226      0.0270
    230  CG         5.4030   29.3180   27.4280 C.3   226  LEU226      0.0019
    231  CD1        6.3370   28.4170   28.2450 C.3   226  LEU226      0.0001
    232  CD2        4.4450   30.0820   28.3350 C.3   226  LEU226      0.0001
    233  N         10.3170   34.5040   28.6030 N.3   230  VAL230     -0.1245
    234  CA         9.8870   33.5430   29.6130 C.3   230  VAL230      0.1561
    235  C         10.7420   32.2810   29.4910 C.2   230  VAL230      0.2260
    236  O         11.1930   31.7160   30.4910 O.2   230  VAL230     -0.2867
    237  CB         8.3780   33.1620   29.4320 C.3   230  VAL230      0.0252
    238  CG1        8.0590   31.8770   30.1900 C.3   230  VAL230      0.0019
    239  CG2        7.4950   34.3040   29.9510 C.3   230  VAL230      0.0019
    240  N         12.7760   31.3820   32.8090 N.3   234  PHE234     -0.1241
    241  CA        12.2720   30.2270   33.5570 C.3   234  PHE234      0.1605
    242  C         12.9610   28.9360   33.1100 C.2   234  PHE234      0.2264
    243  O         12.7610   27.8930   33.7200 O.2   234  PHE234     -0.2867
    244  CB        10.7550   30.0690   33.3760 C.3   234  PHE234      0.0534
    245  CG         9.9260   31.1640   34.0180 C.ar  234  PHE234     -0.0203
    246  CD1       10.4920   32.0630   34.9230 C.ar  234  PHE234     -0.0042
    247  CD2        8.5620   31.2590   33.7500 C.ar  234  PHE234     -0.0042
    248  CE1        9.7120   33.0420   35.5580 C.ar  234  PHE234     -0.0003
    249  CE2        7.7690   32.2350   34.3760 C.ar  234  PHE234     -0.0003
    250  CZ         8.3480   33.1240   35.2780 C.ar  234  PHE234     -0.0000
@<TRIPOS>BOND
     1   228   227    2
     2   225   226    1
     3   227   226    1
     4   226   229    1
     5   229   230    1
     6    43    41    1
     7   230   231    1
     8   230   232    1
     9    38    39    2
    10    38    37    1
    11    41    40    1
    12    41    42    1
    13    28    27    2
    14    56    53    1
    15    40    37    1
    16    27    26    1
    17    37    36    1
    18   233   234    1
    19    54    53    1
    20    54    55    2
    21    53    52    1
    22    26    25    1
    23    26    29    1
    24    52    46   am
    25   237   234    1
    26   237   239    1
    27   237   238    1
    28   235   234    1
    29   235   236    2
    30    44    45    1
    31    57    58    1
    32   224   223    1
    33    46    45    1
    34    46    47    2
    35    29    30    1
    36    45    48    1
    37    58    61    1
    38    58    59    1
    39   223   221   ar
    40   223   222   ar
    41   167   166    2
    42   221   219   ar
    43   165   166    1
    44   165   168    1
    45   165   164    1
    46    16    15    2
    47    48    49    1
    48    30    31   ar
    49    30    32   ar
    50   222   220   ar
    51    61    62    1
    52    59    65   am
    53    59    60    2
    54    31    33   ar
    55    65    66    1
    56    67    66    1
    57    67    68    2
    58    49    50    1
    59    49    51    1
    60    15    14    1
    61   216   215    2
    62    32    34   ar
    63   156   155    1
    64   219   218   ar
    65   240   241    1
    66    66    69    1
    67    72    73    1
    68    69    70    1
    69    69    71    1
    70   220   218   ar
    71   242   241    1
    72   242   243    2
    73    62    63    1
    74    62    64    1
    75    33    35   ar
    76   244   241    1
    77   244   245    1
    78   153   155   ar
    79   153   151   ar
    80   218   217    1
    81   215   214    1
    82   247   245   ar
    83   247   249   ar
    84   155   154   ar
    85    14    17    1
    86    14    13    1
    87    34    35   ar
    88   245   246   ar
    89    73    74    1
    90    73    76    1
    91    17    18    1
    92   249   250   ar
    93   214   217    1
    94   214   213    1
    95    74    75    2
    96   151   150   ar
    97   178   176   ar
    98   178   177   ar
    99   169   170    1
   100   176   174   ar
   101   142   141    2
   102   246   248   ar
   103    77    76    1
   104   154   152   ar
   105   250   248   ar
   106   177   175   ar
   107    18    19   ar
   108    18    20   ar
   109   150   152   ar
   110   150   149    1
   111   174   175   ar
   112   174   173    1
   113   170   173    1
   114   170   171    1
   115   141   140    1
   116   143   140    1
   117   143   144    1
   118    19    21   ar
   119   157   158    1
   120   158   159    1
   121   158   161    1
   122   159   160    2
   123   212   211   ar
   124   212   210   ar
   125    93    91    1
   126   172   171    2
   127    20    22   ar
   128   211   209   ar
   129   149   146    1
   130   140   139    1
   131   146   145    1
   132   146   147    1
   133   162   161    1
   134   210   208   ar
   135   161   163    1
   136    21    23   ar
   137     3     2    1
   138     3     4    2
   139   206   205    2
   140     1     2    1
   141    91    90    1
   142   209   208   ar
   143     2     5    1
   144   112   110    1
   145    22    23   ar
   146    92    90    1
   147    23    24    1
   148   208   207    1
   149   147   148    2
   150    85    83    1
   151   110   111    1
   152   110   109    2
   153   128   127    2
   154    90    87    1
   155   205   204    1
   156   193   192    1
   157   109   108    1
   158    78    79    1
   159    82    79    1
   160    82    83    1
   161    82    84    1
   162     5     6    1
   163    79    80    1
   164   108   107    1
   165   186   184    1
   166     6     8   ar
   167     6     7   ar
   168     8    10   ar
   169   204   207    1
   170   204   203    1
   171   127   126    1
   172     7     9   ar
   173    10    11   ar
   174    87    86    1
   175    87    88    1
   176   129   126    1
   177   129   130    1
   178   194   192    1
   179   192   191    1
   180     9    11   ar
   181    11    12    1
   182   107   106    1
   183   124   123    1
   184   135   132   ar
   185   135   137   ar
   186   126   125    1
   187   123   120    1
   188    80    81    2
   189   130   132   ar
   190   130   131   ar
   191    88    89    2
   192    88    94   am
   193   184   183    1
   194   184   185    1
   195   183   180    1
   196   132   134   ar
   197   137   138   ar
   198   191   188    1
   199   117   114    1
   200   117   118    1
   201   131   133   ar
   202    94    95    1
   203   106   103    1
   204   202   200    1
   205   101   100    1
   206   134   133   ar
   207   134   136   ar
   208   138   136   ar
   209   114   113    1
   210   114   115    1
   211   187   188    1
   212   187   181   am
   213   120   121    1
   214   120   119    1
   215    99   100    1
   216    99    98    1
   217   113   104   am
   218   179   180    1
   219   188   189    1
   220   180   181    1
   221   122   121    2
   222    95    98    1
   223    95    96    1
   224   104   105    2
   225   104   103    1
   226   181   182    2
   227   116   115    2
   228   103   102    1
   229   200   201    1
   230   200   199    1
   231    96    97    2
   232   189   190    2
   233   199   196    1
   234   196   197    1
   235   196   195    1
   236   197   198    2
