@<TRIPOS>MOLECULE
tmp/4q0eA02.pdb
 223 214 0 0 0
SMALL
GASTEIGER

@<TRIPOS>ATOM
      1  N        227.2620  -91.7860  773.1630 N.3   241  ARG241     -0.1231
      2  CA       226.3600  -91.1440  774.1150 C.3   241  ARG241      0.1694
      3  C        225.6180  -92.1530  774.9880 C.2   241  ARG241      0.2592
      4  O        225.2570  -91.8550  776.1280 O.2   241  ARG241     -0.2718
      5  CB       225.3590  -90.2430  773.3880 C.3   241  ARG241      0.0321
      6  CG       224.4570  -90.9830  772.4120 C.3   241  ARG241      0.0489
      7  CD       223.3530  -90.0870  771.8760 C.3   241  ARG241      0.2205
      8  NE       222.3830  -90.8490  771.0980 N.pl3 241  ARG241     -0.0865
      9  CZ       221.3400  -91.4850  771.6260 C.cat 241  ARG241      0.5346
     10  NH1      220.5060  -92.1580  770.8470 N.pl3 241  ARG241      0.1354
     11  NH2      221.1330  -91.4470  772.9360 N.pl3 241  ARG241      0.1354
     12  N        225.3890  -93.3460  774.4490 N.am  242  THR242     -0.1953
     13  CA       224.7320  -94.4120  775.1930 C.3   242  THR242      0.1897
     14  C        225.7630  -95.2480  775.9390 C.2   242  THR242      0.2313
     15  O        226.9580  -95.1710  775.6530 O.2   242  THR242     -0.2863
     16  CB       223.9180  -95.3300  774.2670 C.3   242  THR242      0.1794
     17  OG1      224.8070  -96.1770  773.5300 O.3   242  THR242     -0.2208
     18  CG2      223.0900  -94.5050  773.2950 C.3   242  THR242      0.0378
     19  N        216.2440 -111.1000  757.3980 N.3   268  LYS268     -0.1231
     20  CA       215.5570 -110.8060  758.6490 C.3   268  LYS268      0.1693
     21  C        214.1830 -110.2200  758.3390 C.2   268  LYS268      0.2592
     22  O        214.0560 -109.3430  757.4840 O.2   268  LYS268     -0.2718
     23  CB       216.3680 -109.8280  759.4970 C.3   268  LYS268      0.0285
     24  CG       215.6730 -109.3910  760.7790 C.3   268  LYS268      0.0035
     25  CD       216.4800 -108.3360  761.5240 C.3   268  LYS268      0.0206
     26  CE       216.6420 -107.0740  760.6950 C.3   268  LYS268      0.1093
     27  NZ       217.3320 -105.9940  761.4540 N.3   268  LYS268     -0.1314
     28  N        213.1590 -110.7110  759.0250 N.am  269  LYS269     -0.1966
     29  CA       211.8060 -110.2030  758.8270 C.3   269  LYS269      0.1728
     30  C        211.6870 -108.7770  759.3540 C.2   269  LYS269      0.2616
     31  O        211.6900 -108.5480  760.5650 O.2   269  LYS269     -0.2715
     32  CB       210.7820 -111.1120  759.5150 C.3   269  LYS269      0.0311
     33  CG       209.3360 -110.7300  759.2500 C.3   269  LYS269      0.0038
     34  CD       208.3750 -111.7250  759.8790 C.3   269  LYS269      0.0206
     35  CE       206.9270 -111.3600  759.5900 C.3   269  LYS269      0.1093
     36  NZ       205.9790 -112.3570  760.1580 N.3   269  LYS269     -0.1314
     37  N        211.5900 -107.8200  758.4360 N.am  270  VAL270     -0.1963
     38  CA       211.5440 -106.4090  758.8020 C.3   270  VAL270      0.1727
     39  C        210.1060 -105.9020  758.8970 C.2   270  VAL270      0.2616
     40  O        209.2990 -106.1280  757.9950 O.2   270  VAL270     -0.2715
     41  CB       212.3180 -105.5410  757.7920 C.3   270  VAL270      0.0290
     42  CG1      212.4190 -104.1100  758.2910 C.3   270  VAL270      0.0023
     43  CG2      213.7010 -106.1170  757.5500 C.3   270  VAL270      0.0023
     44  N        209.7930 -105.2190  759.9940 N.am  271  ALA271     -0.1977
     45  CA       208.4630 -104.6550  760.1960 C.3   271  ALA271      0.1597
     46  C        208.1960 -103.5190  759.2150 C.2   271  ALA271      0.2287
     47  O        208.4800 -102.3570  759.5090 O.2   271  ALA271     -0.2864
     48  CB       208.3020 -104.1750  761.6290 C.3   271  ALA271      0.0319
     49  N        205.6290 -100.5950  760.3470 N.3   274  SER274     -0.1217
     50  CA       206.1920  -99.5810  761.2280 C.3   274  SER274      0.1889
     51  C        206.9900  -98.5600  760.4240 C.2   274  SER274      0.2288
     52  O        206.9380  -97.3570  760.6940 O.2   274  SER274     -0.2866
     53  CB       207.0890 -100.2350  762.2800 C.3   274  SER274      0.2089
     54  OG       206.4130 -101.2880  762.9410 O.3   274  SER274     -0.2183
     55  N        205.9350  -94.6850  760.0720 N.3   278  GLU278     -0.1245
     56  CA       206.9090  -93.6730  760.4590 C.3   278  GLU278      0.1567
     57  C        207.1310  -92.6970  759.3080 C.2   278  GLU278      0.2260
     58  O        207.2940  -91.4940  759.5230 O.2   278  GLU278     -0.2867
     59  CB       208.2390  -94.3230  760.8400 C.3   278  GLU278      0.0388
     60  CG       209.3300  -93.3310  761.2100 C.3   278  GLU278      0.1160
     61  CD       210.7170  -93.9500  761.2000 C.2   278  GLU278      0.3649
     62  OE1      210.8980  -95.0050  760.5550 O.co2 278  GLU278     -0.2457
     63  OE2      211.6270  -93.3820  761.8400 O.co2 278  GLU278     -0.2457
     64  N        200.5460  -98.6170  767.4220 N.3   296  LYS296     -0.1231
     65  CA       201.4050  -99.7320  767.8240 C.3   296  LYS296      0.1693
     66  C        202.7590  -99.7580  767.1140 C.2   296  LYS296      0.2592
     67  O        203.2240 -100.8110  766.6780 O.2   296  LYS296     -0.2718
     68  CB       200.6810 -101.0720  767.6570 C.3   296  LYS296      0.0285
     69  CG       199.4770 -101.2330  768.5720 C.3   296  LYS296      0.0035
     70  CD       198.8260 -102.5960  768.4000 C.3   296  LYS296      0.0206
     71  CE       197.6270 -102.7550  769.3220 C.3   296  LYS296      0.1093
     72  NZ       196.9720 -104.0870  769.1670 N.3   296  LYS296     -0.1314
     73  N        203.3860  -98.5900  767.0060 N.am  297  VAL297     -0.1966
     74  CA       204.7440  -98.4770  766.4840 C.3   297  VAL297      0.1727
     75  C        205.6190  -97.8480  767.5610 C.2   297  VAL297      0.2616
     76  O        205.4650  -96.6720  767.8860 O.2   297  VAL297     -0.2715
     77  CB       204.7990  -97.6210  765.2070 C.3   297  VAL297      0.0290
     78  CG1      206.2300  -97.5100  764.7070 C.3   297  VAL297      0.0023
     79  CG2      203.8970  -98.2080  764.1320 C.3   297  VAL297      0.0023
     80  N        206.5400  -98.6320  768.1090 N.am  298  TYR298     -0.1960
     81  CA       207.2980  -98.2090  769.2830 C.3   298  TYR298      0.1771
     82  C        208.7780  -97.9620  769.0080 C.2   298  TYR298      0.2619
     83  O        209.6180  -98.1830  769.8790 O.2   298  TYR298     -0.2715
     84  CB       207.1620  -99.2520  770.3960 C.3   298  TYR298      0.0574
     85  CG       205.7620  -99.8030  770.5590 C.ar  298  TYR298     -0.0198
     86  CD1      204.8140  -99.1310  771.3130 C.ar  298  TYR298     -0.0009
     87  CD2      205.3960 -101.0010  769.9610 C.ar  298  TYR298     -0.0009
     88  CE1      203.5350  -99.6360  771.4640 C.ar  298  TYR298      0.0417
     89  CE2      204.1230 -101.5120  770.1030 C.ar  298  TYR298      0.0417
     90  CZ       203.1950 -100.8240  770.8590 C.ar  298  TYR298      0.1957
     91  OH       201.9260 -101.3340  771.0040 O.3   298  TYR298     -0.2866
     92  N        209.1000  -97.5010  767.8040 N.am  299  ILE299     -0.1963
     93  CA       210.4960  -97.2520  767.4560 C.3   299  ILE299      0.1727
     94  C        210.9910  -95.9250  768.0260 C.2   299  ILE299      0.2616
     95  O        212.1960  -95.7150  768.1710 O.2   299  ILE299     -0.2715
     96  CB       210.7380  -97.2950  765.9320 C.3   299  ILE299      0.0290
     97  CG1      210.0010  -96.1560  765.2320 C.3   299  ILE299      0.0022
     98  CG2      210.3180  -98.6430  765.3630 C.3   299  ILE299      0.0023
     99  CD1      210.2020  -96.1450  763.7350 C.3   299  ILE299      0.0001
    100  N        210.0620  -95.0350  768.3530 N.am  300  TRP300     -0.1974
    101  CA       210.4120  -93.7520  768.9530 C.3   300  TRP300      0.1640
    102  C        209.9840  -93.6740  770.4160 C.2   300  TRP300      0.2290
    103  O        209.6850  -92.5950  770.9260 O.2   300  TRP300     -0.2864
    104  CB       209.7870  -92.5950  768.1650 C.3   300  TRP300      0.0576
    105  CG       210.4890  -92.2870  766.8780 C.ar  300  TRP300      0.0006
    106  CD1      210.1670  -92.7570  765.6380 C.ar  300  TRP300      0.0946
    107  CD2      211.6280  -91.4370  766.7020 C.ar  300  TRP300      0.0152
    108  NE1      211.0350  -92.2540  764.7030 N.ar  300  TRP300     -0.2442
    109  CE2      211.9420  -91.4390  765.3290 C.ar  300  TRP300      0.0810
    110  CE3      212.4130  -90.6740  767.5730 C.ar  300  TRP300      0.0012
    111  CZ2      213.0090  -90.7080  764.8060 C.ar  300  TRP300      0.0191
    112  CZ3      213.4700  -89.9500  767.0520 C.ar  300  TRP300      0.0001
    113  CH2      213.7590  -89.9730  765.6820 C.ar  300  TRP300      0.0015
    114  N        213.5430  -92.9110  772.7420 N.3   303  ASN303     -0.1240
    115  CA       214.0150  -91.5460  772.5240 C.3   303  ASN303      0.1653
    116  C        212.9410  -90.5050  772.8200 C.2   303  ASN303      0.2266
    117  O        213.1070  -89.3240  772.5150 O.2   303  ASN303     -0.2867
    118  CB       214.5280  -91.3770  771.0910 C.3   303  ASN303      0.1155
    119  CG       215.6680  -92.3200  770.7650 C.2   303  ASN303      0.2627
    120  OD1      215.4500  -93.4320  770.2850 O.2   303  ASN303     -0.2716
    121  ND2      216.8940  -91.8810  771.0250 N.am  303  ASN303     -0.0877
    122  N        216.4080  -85.9600  769.1660 N.3   383  LEU383     -0.1245
    123  CA       217.5110  -86.6680  768.5370 C.3   383  LEU383      0.1561
    124  C        217.8200  -86.0530  767.1770 C.2   383  LEU383      0.2260
    125  O        216.9710  -86.0540  766.2860 O.2   383  LEU383     -0.2867
    126  CB       217.1720  -88.1510  768.3780 C.3   383  LEU383      0.0270
    127  CG       218.2810  -89.0390  767.8110 C.3   383  LEU383      0.0019
    128  CD1      219.4740  -89.0660  768.7520 C.3   383  LEU383      0.0001
    129  CD2      217.7600  -90.4450  767.5550 C.3   383  LEU383      0.0001
    130  N        219.6940  -88.3990  761.7760 N.3   386  CYS386     -0.1235
    131  CA       220.6490  -89.4200  761.3700 C.3   386  CYS386      0.1677
    132  C        220.6820  -89.5050  759.8510 C.2   386  CYS386      0.2270
    133  O        221.7340  -89.3290  759.2380 O.2   386  CYS386     -0.2867
    134  CB       220.3060  -90.7730  761.9920 C.3   386  CYS386      0.0956
    135  SG       220.5270  -90.8180  763.7860 S.3   386  CYS386     -0.0801
    136  N        222.8450  -97.3390  762.6170 N.3   410  ASP410     -0.1239
    137  CA       222.7190  -98.5570  763.4020 C.3   410  ASP410      0.1674
    138  C        222.4460  -99.7120  762.4490 C.2   410  ASP410      0.2266
    139  O        221.3150  -99.9040  762.0070 O.2   410  ASP410     -0.2867
    140  CB       221.5840  -98.4290  764.4190 C.3   410  ASP410      0.1410
    141  CG       221.6160  -99.5190  765.4800 C.2   410  ASP410      0.3668
    142  OD1      222.1190 -100.6290  765.1970 O.co2 410  ASP410     -0.2456
    143  OD2      221.1370  -99.2660  766.6060 O.co2 410  ASP410     -0.2456
    144  N        219.4340 -101.9940  763.7250 N.3   413  LEU413     -0.1231
    145  CA       218.0530 -101.5240  763.7700 C.3   413  LEU413      0.1693
    146  C        217.7620 -100.4480  762.7320 C.2   413  LEU413      0.2592
    147  O        216.8760 -100.6030  761.8930 O.2   413  LEU413     -0.2718
    148  CB       217.7140 -100.9910  765.1650 C.3   413  LEU413      0.0284
    149  CG       217.2970 -101.9820  766.2570 C.3   413  LEU413      0.0019
    150  CD1      218.4350 -102.9060  766.6390 C.3   413  LEU413      0.0001
    151  CD2      216.7950 -101.2370  767.4820 C.3   413  LEU413      0.0001
    152  N        218.5140  -99.3540  762.7950 N.am  414  GLY414     -0.1957
    153  CA       218.2610  -98.1960  761.9560 C.3   414  GLY414      0.1869
    154  C        218.3960  -98.4070  760.4580 C.2   414  GLY414      0.2309
    155  O        217.5630  -97.9280  759.6900 O.2   414  GLY414     -0.2863
    156  N        215.4930 -100.0680  758.2470 N.3   417  PHE417     -0.1241
    157  CA       214.3880  -99.1300  758.3360 C.3   417  PHE417      0.1605
    158  C        214.6160  -97.9170  757.4440 C.2   417  PHE417      0.2264
    159  O        213.7000  -97.4650  756.7710 O.2   417  PHE417     -0.2867
    160  CB       214.1740  -98.6860  759.7850 C.3   417  PHE417      0.0534
    161  CG       213.2230  -99.5600  760.5480 C.ar  417  PHE417     -0.0203
    162  CD1      213.5180 -100.8930  760.7790 C.ar  417  PHE417     -0.0042
    163  CD2      212.0360  -99.0470  761.0440 C.ar  417  PHE417     -0.0042
    164  CE1      212.6420 -101.7010  761.4830 C.ar  417  PHE417     -0.0003
    165  CE2      211.1590  -99.8480  761.7460 C.ar  417  PHE417     -0.0003
    166  CZ       211.4610 -101.1770  761.9680 C.ar  417  PHE417     -0.0000
    167  N        226.3950 -101.9540  767.4590 N.3   450  TYR450     -0.1241
    168  CA       226.3860 -101.9880  768.9180 C.3   450  TYR450      0.1605
    169  C        226.8250 -103.3600  769.4250 C.2   450  TYR450      0.2264
    170  O        226.5250 -104.3820  768.8070 O.2   450  TYR450     -0.2867
    171  CB       225.0060 -101.6170  769.4630 C.3   450  TYR450      0.0534
    172  CG       224.6630 -100.1530  769.2830 C.ar  450  TYR450     -0.0201
    173  CD1      224.1840  -99.6710  768.0720 C.ar  450  TYR450     -0.0009
    174  CD2      224.8230  -99.2490  770.3290 C.ar  450  TYR450     -0.0009
    175  CE1      223.8770  -98.3310  767.9060 C.ar  450  TYR450      0.0417
    176  CE2      224.5190  -97.9090  770.1740 C.ar  450  TYR450      0.0417
    177  CZ       224.0460  -97.4570  768.9620 C.ar  450  TYR450      0.1957
    178  OH       223.7400  -96.1250  768.8050 O.3   450  TYR450     -0.2866
    179  N        212.3870 -113.3100  762.2520 N.3   498  THR498     -0.1203
    180  CA       212.8120 -112.0440  762.8360 C.3   498  THR498      0.1994
    181  C        213.9200 -112.2400  763.8650 C.2   498  THR498      0.2618
    182  O        214.0190 -113.2950  764.4900 O.2   498  THR498     -0.2717
    183  CB       211.6340 -111.3040  763.5000 C.3   498  THR498      0.1784
    184  OG1      212.1130 -110.1120  764.1400 O.3   498  THR498     -0.2211
    185  CG2      210.9560 -112.1930  764.5300 C.3   498  THR498      0.0376
    186  N        214.7500 -111.2160  764.0300 N.am  499  ILE499     -0.1965
    187  CA       215.8290 -111.2490  765.0120 C.3   499  ILE499      0.1727
    188  C        215.6670 -110.1100  766.0120 C.2   499  ILE499      0.2616
    189  O        215.8030 -108.9360  765.6620 O.2   499  ILE499     -0.2715
    190  CB       217.2060 -111.1500  764.3360 C.3   499  ILE499      0.0290
    191  CG1      217.4170 -112.3230  763.3790 C.3   499  ILE499      0.0022
    192  CG2      218.3030 -111.1080  765.3800 C.3   499  ILE499      0.0023
    193  CD1      218.7650 -112.3240  762.7010 C.3   499  ILE499      0.0001
    194  N        215.3770 -110.4660  767.2620 N.am  500  LYS500     -0.1963
    195  CA       215.1260 -109.4770  768.3020 C.3   500  LYS500      0.1728
    196  C        216.4090 -108.7720  768.7230 C.2   500  LYS500      0.2616
    197  O        217.3840 -109.4120  769.1180 O.2   500  LYS500     -0.2715
    198  CB       214.4670 -110.1350  769.5160 C.3   500  LYS500      0.0311
    199  CG       213.1350 -110.7570  769.1980 C.3   500  LYS500      0.0038
    200  CD       212.1850 -109.7250  768.6370 C.3   500  LYS500      0.0206
    201  CE       210.9000 -110.3680  768.2030 C.3   500  LYS500      0.1093
    202  NZ       209.8530 -109.3500  768.2320 N.3   500  LYS500     -0.1314
    203  N        216.4040 -107.4460  768.6280 N.am  501  MET501     -0.1977
    204  CA       217.5500 -106.6330  769.0250 C.3   501  MET501      0.1605
    205  C        217.0990 -105.3780  769.7650 C.2   501  MET501      0.2287
    206  O        216.1730 -104.6910  769.3330 O.2   501  MET501     -0.2864
    207  CB       218.4040 -106.2680  767.8100 C.3   501  MET501      0.0413
    208  CG       219.2760 -107.4040  767.2990 C.3   501  MET501      0.0598
    209  SD       220.1420 -107.0040  765.7680 S.3   501  MET501     -0.1393
    210  CE       218.7810 -106.9840  764.6040 C.3   501  MET501      0.0692
    211  N        217.2070 -101.5700  771.4180 N.3   503  MET503     -0.1230
    212  CA       217.6650 -100.2380  771.0350 C.3   503  MET503      0.1702
    213  C        218.4070  -99.5560  772.1800 C.2   503  MET503      0.2592
    214  O        217.9330  -99.5390  773.3160 O.2   503  MET503     -0.2718
    215  CB       216.4880  -99.3670  770.5980 C.3   503  MET503      0.0401
    216  CG       216.8760  -97.9370  770.2530 C.3   503  MET503      0.0596
    217  SD       215.4650  -96.9020  769.8140 S.3   503  MET503     -0.1393
    218  CE       214.5020  -96.9790  771.3240 C.3   503  MET503      0.0692
    219  N        219.5740  -98.9950  771.8750 N.am  504  ALA504     -0.1980
    220  CA       220.3430  -98.2550  772.8660 C.3   504  ALA504      0.1597
    221  C        219.8030  -96.8370  773.0110 C.2   504  ALA504      0.2287
    222  O        219.9270  -96.0180  772.1010 O.2   504  ALA504     -0.2864
    223  CB       221.8130  -98.2290  772.4850 C.3   504  ALA504      0.0319
@<TRIPOS>BOND
     1   159   158    2
     2    19    20    1
     3   158   157    1
     4    22    21    2
     5    43    41    1
     6    41    42    1
     7    41    38    1
     8    40    39    2
     9   156   157    1
    10   157   160    1
    11    21    20    1
    12    21    28   am
    13    37    38    1
    14    37    30   am
    15    20    23    1
    16    38    39    1
    17    29    28    1
    18    29    30    1
    19    29    32    1
    20    39    44   am
    21    46    47    2
    22    46    45    1
    23   133   132    2
    24    33    32    1
    25    33    34    1
    26    57    58    2
    27    57    56    1
    28    30    31    2
    29    23    24    1
    30    35    34    1
    31    35    36    1
    32   155   154    2
    33   160   161    1
    34   132   131    1
    35    44    45    1
    36    55    56    1
    37    45    48    1
    38    49    50    1
    39    51    52    2
    40    51    50    1
    41   154   153    1
    42    56    59    1
    43   161   162   ar
    44   161   163   ar
    45    62    61   ar
    46    26    27    1
    47    26    25    1
    48   162   164   ar
    49    24    25    1
    50    59    60    1
    51   163   165   ar
    52    61    60    1
    53    61    63   ar
    54    50    53    1
    55   131   130    1
    56   131   134    1
    57   164   166   ar
    58   165   166   ar
    59   147   146    2
    60   153   152    1
    61   134   135    1
    62   139   138    2
    63   179   180    1
    64    53    54    1
    65   138   137    1
    66   136   137    1
    67   193   191    1
    68   146   152   am
    69   146   145    1
    70   180   183    1
    71   180   181    1
    72   191   190    1
    73   137   140    1
    74   183   184    1
    75   183   185    1
    76   144   145    1
    77    99    97    1
    78   145   148    1
    79   181   186   am
    80   181   182    2
    81   186   187    1
    82    79    77    1
    83   190   187    1
    84   190   192    1
    85   140   141    1
    86   210   209    1
    87   108   109   ar
    88   108   106   ar
    89    78    77    1
    90   111   109   ar
    91   111   113   ar
    92   187   188    1
    93   148   149    1
    94   142   141   ar
    95    77    74    1
    96    97    96    1
    97   109   107   ar
    98    98    96    1
    99   141   143   ar
   100   106   105   ar
   101   189   188    2
   102   113   112   ar
   103   209   208    1
   104    96    93    1
   105   188   194   am
   106   149   150    1
   107   149   151    1
   108   125   124    2
   109    74    73    1
   110    74    75    1
   111    67    66    2
   112   107   105   ar
   113   107   110   ar
   114   105   104    1
   115    73    66   am
   116   112   110   ar
   117    66    65    1
   118   124   123    1
   119   194   195    1
   120   208   207    1
   121    64    65    1
   122    93    92    1
   123    93    94    1
   124   167   168    1
   125   129   127    1
   126    75    76    2
   127    75    80   am
   128    68    65    1
   129    68    69    1
   130    92    82   am
   131   207   204    1
   132   127   126    1
   133   127   128    1
   134   175   173   ar
   135   175   177   ar
   136    94    95    2
   137    94   100   am
   138   173   172   ar
   139    80    81    1
   140   104   101    1
   141   201   202    1
   142   201   200    1
   143   195   196    1
   144   195   198    1
   145   100   101    1
   146   126   123    1
   147    70    69    1
   148    70    71    1
   149   123   122    1
   150   203   196   am
   151   203   204    1
   152   200   199    1
   153   196   197    2
   154   178   177    1
   155   170   169    2
   156   168   169    1
   157   168   171    1
   158   101   102    1
   159   177   176   ar
   160    82    81    1
   161    82    83    2
   162   204   205    1
   163    72    71    1
   164   199   198    1
   165   172   171    1
   166   172   174   ar
   167    81    84    1
   168   206   205    2
   169   217   216    1
   170   217   218    1
   171    87    89   ar
   172    87    85   ar
   173    89    90   ar
   174   176   174   ar
   175   216   215    1
   176   120   119    2
   177    84    85    1
   178   102   103    2
   179    85    86   ar
   180   215   212    1
   181   119   121   am
   182   119   118    1
   183    10     9    1
   184    90    91    1
   185    90    88   ar
   186   212   211    1
   187   212   213    1
   188   118   115    1
   189     8     9    2
   190     8     7    1
   191    86    88   ar
   192     9    11    1
   193   219   213   am
   194   219   220    1
   195     7     6    1
   196   222   221    2
   197   213   214    2
   198     6     5    1
   199   223   220    1
   200   117   116    2
   201   115   114    1
   202   115   116    1
   203   220   221    1
   204     1     2    1
   205    18    16    1
   206     5     2    1
   207    17    16    1
   208     2     3    1
   209    16    13    1
   210    12     3   am
   211    12    13    1
   212     3     4    2
   213    13    14    1
   214    15    14    2
