@<TRIPOS>MOLECULE
tmp/4q0eA03.pdb
 163 154 0 0 0
SMALL
GASTEIGER

@<TRIPOS>ATOM
      1  N        219.4770 -127.1090  734.5700 N.3     7  VAL7       -0.1231
      2  CA       218.7120 -125.8740  734.4530 C.3     7  VAL7        0.1692
      3  C        217.3230 -126.0980  735.0320 C.2     7  VAL7        0.2592
      4  O        216.6060 -127.0020  734.6070 O.2     7  VAL7       -0.2718
      5  CB       218.5950 -125.4170  732.9880 C.3     7  VAL7        0.0266
      6  CG1      218.1370 -123.9720  732.9250 C.3     7  VAL7        0.0020
      7  CG2      219.9270 -125.5780  732.2770 C.3     7  VAL7        0.0020
      8  N        216.9410 -125.2720  736.0020 N.am    8  VAL8       -0.1966
      9  CA       215.6760 -125.4660  736.6980 C.3     8  VAL8        0.1727
     10  C        215.1470 -124.1750  737.3320 C.2     8  VAL8        0.2616
     11  O        215.9110 -123.3860  737.8870 O.2     8  VAL8       -0.2715
     12  CB       215.7960 -126.5750  737.7760 C.3     8  VAL8        0.0290
     13  CG1      216.9070 -126.2440  738.7650 C.3     8  VAL8        0.0023
     14  CG2      214.4720 -126.7940  738.4940 C.3     8  VAL8        0.0023
     15  N        213.8390 -123.9670  737.2220 N.am    9  ALA9       -0.1977
     16  CA       213.1780 -122.8560  737.8980 C.3     9  ALA9        0.1597
     17  C        212.3010 -123.3980  739.0180 C.2     9  ALA9        0.2287
     18  O        211.2950 -124.0580  738.7670 O.2     9  ALA9       -0.2864
     19  CB       212.3480 -122.0510  736.9170 C.3     9  ALA9        0.0319
     20  N        203.7110 -125.6700  734.4040 N.3    23  LEU23      -0.1245
     21  CA       204.3850 -124.7290  735.2920 C.3    23  LEU23       0.1561
     22  C        203.3920 -123.9120  736.1070 C.2    23  LEU23       0.2260
     23  O        202.3390 -123.5200  735.6040 O.2    23  LEU23      -0.2867
     24  CB       205.2850 -123.7900  734.4850 C.3    23  LEU23       0.0270
     25  CG       206.3820 -124.4610  733.6580 C.3    23  LEU23       0.0019
     26  CD1      207.1770 -123.4210  732.8850 C.3    23  LEU23       0.0001
     27  CD2      207.2940 -125.2890  734.5490 C.3    23  LEU23       0.0001
     28  N        208.2320 -115.1080  730.7760 N.3    28  SER28      -0.1217
     29  CA       208.8770 -115.1350  729.4680 C.3    28  SER28       0.1889
     30  C        210.3900 -114.9730  729.5790 C.2    28  SER28       0.2288
     31  O        211.1450 -115.5800  728.8180 O.2    28  SER28      -0.2866
     32  CB       208.2960 -114.0500  728.5580 C.3    28  SER28       0.2089
     33  OG       208.5290 -112.7580  729.0890 O.3    28  SER28      -0.2183
     34  N        212.2320 -116.0500  731.9300 N.3    30  ASP30      -0.1225
     35  CA       212.7870 -117.3070  732.4220 C.3    30  ASP30       0.1805
     36  C        212.9560 -118.3220  731.2980 C.2    30  ASP30       0.2598
     37  O        213.9970 -118.9710  731.1940 O.2    30  ASP30      -0.2718
     38  CB       211.8980 -117.8940  733.5180 C.3    30  ASP30       0.1424
     39  CG       212.4030 -119.2320  734.0160 C.2    30  ASP30       0.3668
     40  OD1      213.6350 -119.4040  734.1160 O.co2  30  ASP30      -0.2456
     41  OD2      211.5670 -120.1170  734.2990 O.co2  30  ASP30      -0.2456
     42  N        211.9260 -118.4560  730.4690 N.am   31  LEU31      -0.1966
     43  CA       211.9740 -119.3620  729.3280 C.3    31  LEU31       0.1728
     44  C        213.0470 -118.9020  728.3520 C.2    31  LEU31       0.2616
     45  O        213.7740 -119.7150  727.7830 O.2    31  LEU31      -0.2715
     46  CB       210.6150 -119.4200  728.6310 C.3    31  LEU31       0.0311
     47  CG       209.6130 -120.4370  729.1790 C.3    31  LEU31       0.0022
     48  CD1      209.1930 -120.0700  730.5930 C.3    31  LEU31       0.0001
     49  CD2      208.4000 -120.5460  728.2670 C.3    31  LEU31       0.0001
     50  N        213.1410 -117.5890  728.1680 N.am   32  LYS32      -0.1963
     51  CA       214.1620 -117.0120  727.3050 C.3    32  LYS32       0.1728
     52  C        215.5430 -117.3080  727.8780 C.2    32  LYS32       0.2616
     53  O        216.4670 -117.6460  727.1400 O.2    32  LYS32      -0.2715
     54  CB       213.9510 -115.5050  727.1440 C.3    32  LYS32       0.0311
     55  CG       214.8600 -114.8650  726.1120 C.3    32  LYS32       0.0038
     56  CD       214.3630 -113.4790  725.7270 C.3    32  LYS32       0.0206
     57  CE       212.9900 -113.5450  725.0760 C.3    32  LYS32       0.1093
     58  NZ       213.0010 -114.3730  723.8390 N.3    32  LYS32      -0.1314
     59  N        215.6740 -117.1960  729.1980 N.am   33  PHE33      -0.1960
     60  CA       216.9220 -117.5270  729.8790 C.3    33  PHE33       0.1771
     61  C        217.3050 -118.9760  729.6320 C.2    33  PHE33       0.2620
     62  O        218.4700 -119.2850  729.3970 O.2    33  PHE33      -0.2715
     63  CB       216.8170 -117.2600  731.3820 C.3    33  PHE33       0.0574
     64  CG       217.9970 -117.7620  732.1680 C.ar   33  PHE33      -0.0200
     65  CD1      219.2160 -117.1080  732.1100 C.ar   33  PHE33      -0.0042
     66  CD2      217.8820 -118.8880  732.9700 C.ar   33  PHE33      -0.0042
     67  CE1      220.3020 -117.5710  732.8310 C.ar   33  PHE33      -0.0003
     68  CE2      218.9640 -119.3530  733.6960 C.ar   33  PHE33      -0.0003
     69  CZ       220.1750 -118.6930  733.6260 C.ar   33  PHE33      -0.0000
     70  N        216.3140 -119.8600  729.6910 N.am   34  PHE34      -0.1960
     71  CA       216.5140 -121.2690  729.3920 C.3    34  PHE34       0.1771
     72  C        217.0330 -121.4310  727.9680 C.2    34  PHE34       0.2620
     73  O        218.0090 -122.1490  727.7270 O.2    34  PHE34      -0.2715
     74  CB       215.1990 -122.0360  729.5710 C.3    34  PHE34       0.0574
     75  CG       215.2530 -123.4630  729.1120 C.ar   34  PHE34      -0.0200
     76  CD1      215.7560 -124.4530  729.9400 C.ar   34  PHE34      -0.0042
     77  CD2      214.7910 -123.8180  727.8550 C.ar   34  PHE34      -0.0042
     78  CE1      215.8030 -125.7670  729.5190 C.ar   34  PHE34      -0.0003
     79  CE2      214.8370 -125.1300  727.4290 C.ar   34  PHE34      -0.0003
     80  CZ       215.3430 -126.1060  728.2620 C.ar   34  PHE34      -0.0000
     81  N        216.3460 -120.7990  727.0220 N.am   35  SER35      -0.1950
     82  CA       216.6680 -120.9440  725.6070 C.3    35  SER35       0.1924
     83  C        218.0810 -120.4680  725.3010 C.2    35  SER35       0.2314
     84  O        218.7200 -120.9450  724.3640 O.2    35  SER35      -0.2863
     85  CB       215.6590 -120.1760  724.7480 C.3    35  SER35       0.2116
     86  OG       216.1120 -120.0590  723.4110 O.3    35  SER35      -0.2180
     87  N        215.5420 -134.7720  729.3290 N.3    52  MET52      -0.1245
     88  CA       214.3190 -134.4750  730.0630 C.3    52  MET52       0.1570
     89  C        213.4640 -135.7240  730.2310 C.2    52  MET52       0.2261
     90  O        213.5940 -136.6840  729.4710 O.2    52  MET52      -0.2867
     91  CB       213.5160 -133.3850  729.3480 C.3    52  MET52       0.0387
     92  CG       213.0350 -133.7820  727.9610 C.3    52  MET52       0.0595
     93  SD       212.0720 -132.4900  727.1530 S.3    52  MET52      -0.1393
     94  CE       213.2850 -131.1770  727.0410 C.3    52  MET52       0.0692
     95  N        207.8650 -134.3090  731.0530 N.3    56  THR56      -0.1218
     96  CA       208.3430 -132.9980  730.6360 C.3    56  THR56       0.1862
     97  C        208.2820 -132.8970  729.1150 C.2    56  THR56       0.2287
     98  O        207.9420 -131.8480  728.5650 O.2    56  THR56      -0.2866
     99  CB       209.7830 -132.7470  731.1170 C.3    56  THR56       0.1770
    100  OG1      209.8270 -132.8020  732.5480 O.3    56  THR56      -0.2211
    101  CG2      210.2750 -131.3800  730.6560 C.3    56  THR56       0.0375
    102  N        205.0060 -132.0970  728.3520 N.3    59  SER59      -0.1202
    103  CA       204.7110 -130.7280  728.7670 C.3    59  SER59       0.2020
    104  C        204.9800 -129.7070  727.6650 C.2    59  SER59       0.2618
    105  O        204.2480 -128.7260  727.5320 O.2    59  SER59      -0.2717
    106  CB       205.5120 -130.3700  730.0210 C.3    59  SER59       0.2103
    107  OG       205.2980 -129.0220  730.3980 O.3    59  SER59      -0.2182
    108  N        206.0250 -129.9370  726.8800 N.am   60  ILE60      -0.1979
    109  CA       206.3760 -129.0230  725.7950 C.3    60  ILE60       0.1595
    110  C        205.6100 -129.3430  724.5130 C.2    60  ILE60       0.2287
    111  O        205.9300 -128.8220  723.4450 O.2    60  ILE60      -0.2864
    112  CB       207.8940 -129.0240  725.5070 C.3    60  ILE60       0.0276
    113  CG1      208.3700 -130.4170  725.0870 C.3    60  ILE60       0.0022
    114  CG2      208.6720 -128.5550  726.7240 C.3    60  ILE60       0.0022
    115  CD1      209.8570 -130.4900  724.8110 C.3    60  ILE60       0.0001
    116  N        213.0860 -128.6640  720.1420 N.3    65  LEU65      -0.1245
    117  CA       213.6170 -127.3140  720.2810 C.3    65  LEU65       0.1561
    118  C        214.7160 -127.0950  719.2490 C.2    65  LEU65       0.2260
    119  O        215.6010 -127.9370  719.0860 O.2    65  LEU65      -0.2867
    120  CB       214.1630 -127.0920  721.6940 C.3    65  LEU65       0.0270
    121  CG       213.1550 -127.2030  722.8400 C.3    65  LEU65       0.0019
    122  CD1      213.8600 -127.2570  724.1810 C.3    65  LEU65       0.0001
    123  CD2      212.1840 -126.0360  722.7980 C.3    65  LEU65       0.0001
    124  N        219.0000 -127.6500  719.0040 N.3    68  ARG68      -0.1245
    125  CA       219.2960 -128.4910  720.1580 C.3    68  ARG68       0.1563
    126  C        218.7670 -129.9020  719.9360 C.2    68  ARG68       0.2260
    127  O        217.8520 -130.1110  719.1410 O.2    68  ARG68      -0.2867
    128  CB       218.6860 -127.8930  721.4300 C.3    68  ARG68       0.0307
    129  CG       219.4540 -126.7120  722.0000 C.3    68  ARG68       0.0489
    130  CD       218.5610 -125.8520  722.8760 C.3    68  ARG68       0.2205
    131  NE       217.5560 -125.1440  722.0870 N.pl3  68  ARG68      -0.0865
    132  CZ       216.6340 -124.3370  722.6010 C.cat  68  ARG68       0.5346
    133  NH1      216.5790 -124.1320  723.9080 N.pl3  68  ARG68       0.1354
    134  NH2      215.7630 -123.7340  721.8020 N.pl3  68  ARG68       0.1354
    135  N        217.6680 -131.2060  732.0270 N.3   111  CYS111     -0.1221
    136  CA       216.6410 -130.2230  731.7360 C.3   111  CYS111      0.1808
    137  C        215.3020 -130.3400  732.3820 C.2   111  CYS111      0.2601
    138  O        214.4680 -129.4940  732.1970 O.2   111  CYS111     -0.2717
    139  CB       216.2950 -130.3320  730.2880 C.3   111  CYS111      0.0970
    140  SG       217.2760 -129.3180  729.2510 S.3   111  CYS111     -0.0800
    141  N        215.0510 -131.4890  733.0960 N.am  112  GLY112     -0.1957
    142  CA       213.7250 -131.5330  733.6430 C.3   112  GLY112      0.1869
    143  C        213.4490 -132.7760  734.3970 C.2   112  GLY112      0.2309
    144  O        214.1590 -133.7740  734.2730 O.2   112  GLY112     -0.2863
    145  N        215.8410 -135.1750  737.8300 N.3   117  TYR117     -0.1241
    146  CA       216.7090 -134.3630  738.6790 C.3   117  TYR117      0.1605
    147  C        217.2670 -135.1670  739.8460 C.2   117  TYR117      0.2264
    148  O        218.4750 -135.1700  740.0970 O.2   117  TYR117     -0.2867
    149  CB       215.9430 -133.1590  739.2290 C.3   117  TYR117      0.0534
    150  CG       215.7490 -132.0280  738.2490 C.ar  117  TYR117     -0.0201
    151  CD1      216.6990 -131.7510  737.2750 C.ar  117  TYR117     -0.0009
    152  CD2      214.6140 -131.2280  738.3010 C.ar  117  TYR117     -0.0009
    153  CE1      216.5180 -130.7140  736.3770 C.ar  117  TYR117      0.0417
    154  CE2      214.4240 -130.1890  737.4100 C.ar  117  TYR117      0.0417
    155  CZ       215.3810 -129.9350  736.4530 C.ar  117  TYR117      0.1957
    156  OH       215.1990 -128.9010  735.5640 O.3   117  TYR117     -0.2866
    157  N        216.7170 -121.0190  739.0010 N.3   132  THR132     -0.1218
    158  CA       215.9340 -119.7940  738.9010 C.3   132  THR132      0.1862
    159  C        214.9090 -119.7620  740.0280 C.2   132  THR132      0.2287
    160  O        213.8120 -120.3040  739.8960 O.2   132  THR132     -0.2866
    161  CB       215.2110 -119.6790  737.5420 C.3   132  THR132      0.1770
    162  OG1      216.1570 -119.8400  736.4750 O.3   132  THR132     -0.2211
    163  CG2      214.5230 -118.3290  737.4110 C.3   132  THR132      0.0375
@<TRIPOS>BOND
     1   124   125    1
     2   119   118    2
     3   127   126    2
     4   118   117    1
     5   126   125    1
     6   116   117    1
     7   125   128    1
     8   117   120    1
     9   128   129    1
    10   120   121    1
    11   134   132    1
    12   129   130    1
    13   131   132    2
    14   131   130    1
    15   132   133    1
    16   123   121    1
    17   121   122    1
    18    86    85    1
    19   111   110    2
    20    58    57    1
    21    84    83    2
    22   110   109    1
    23    85    82    1
    24   115   113    1
    25    57    56    1
    26   113   112    1
    27    83    82    1
    28   112   109    1
    29   112   114    1
    30    82    81    1
    31    56    55    1
    32   109   108    1
    33    55    54    1
    34   108   104   am
    35    81    72   am
    36    94    93    1
    37    53    52    2
    38    54    51    1
    39    93    92    1
    40    51    52    1
    41    51    50    1
    42    79    77   ar
    43    79    80   ar
    44   105   104    2
    45   104   103    1
    46    73    72    2
    47    45    44    2
    48    77    75   ar
    49    52    59   am
    50    92    91    1
    51    72    71    1
    52    50    44   am
    53    80    78   ar
    54    49    47    1
    55   102   103    1
    56    44    43    1
    57    32    33    1
    58    32    29    1
    59    98    97    2
    60    46    47    1
    61    46    43    1
    62   103   106    1
    63    31    30    2
    64    75    74    1
    65    75    76   ar
    66    97    96    1
    67    47    48    1
    68    59    60    1
    69   140   139    1
    70    43    42    1
    71    87    88    1
    72    91    88    1
    73    71    74    1
    74    71    70    1
    75    62    61    2
    76    29    30    1
    77    29    28    1
    78    90    89    2
    79    78    76   ar
    80    61    70   am
    81    61    60    1
    82    60    63    1
    83   106   107    1
    84    88    89    1
    85   139   136    1
    86    42    36   am
    87    96    95    1
    88    96    99    1
    89   101    99    1
    90    99   100    1
    91    37    36    2
    92    36    35    1
    93    63    64    1
    94   136   135    1
    95   136   137    1
    96    34    35    1
    97    65    64   ar
    98    65    67   ar
    99    64    66   ar
   100   138   137    2
   101     7     5    1
   102   137   141   am
   103    35    38    1
   104    67    69   ar
   105    26    25    1
   106     6     5    1
   107    66    68   ar
   108     5     2    1
   109   141   142    1
   110    38    39    1
   111    69    68   ar
   112   142   143    1
   113    25    24    1
   114    25    27    1
   115    39    40   ar
   116    39    41   ar
   117   144   143    2
   118    20    21    1
   119     2     1    1
   120     2     3    1
   121    24    21    1
   122     4     3    2
   123     3     8   am
   124    21    22    1
   125   156   155    1
   126    23    22    2
   127     8     9    1
   128   153   155   ar
   129   153   151   ar
   130   155   154   ar
   131   162   161    1
   132     9    10    1
   133     9    12    1
   134    19    16    1
   135    15    10   am
   136    15    16    1
   137   151   150   ar
   138    10    11    2
   139   154   152   ar
   140   163   161    1
   141   161   158    1
   142    12    14    1
   143    12    13    1
   144   145   146    1
   145    16    17    1
   146   150   152   ar
   147   150   149    1
   148   146   149    1
   149   146   147    1
   150    18    17    2
   151   158   157    1
   152   158   159    1
   153   147   148    2
   154   160   159    2
