@<TRIPOS>MOLECULE
tmp/4q0kA00.pdb
 180 170 0 0 0
SMALL
GASTEIGER

@<TRIPOS>ATOM
      1  N         11.2120   24.8680   26.8780 N.3    22  GLN22      -0.1245
      2  CA        10.7830   23.8790   27.8520 C.3    22  GLN22       0.1566
      3  C         11.9020   23.4270   28.7730 C.2    22  GLN22       0.2260
      4  O         11.6660   22.7570   29.7540 O.2    22  GLN22      -0.2867
      5  CB        10.2080   22.6760   27.1140 C.3    22  GLN22       0.0367
      6  CG         9.5620   21.6650   28.0070 C.3    22  GLN22       0.0905
      7  CD         8.3790   22.2450   28.6950 C.2    22  GLN22       0.2608
      8  OE1        7.4760   22.7380   28.0680 O.2    22  GLN22      -0.2717
      9  NE2        8.3850   22.1850   29.9780 N.am   22  GLN22      -0.0878
     10  N         12.8840   27.8560   30.6430 N.3    26  ILE26      -0.1245
     11  CA        11.5660   27.6160   31.2240 C.3    26  ILE26       0.1561
     12  C         11.1570   28.6750   32.2220 C.2    26  ILE26       0.2260
     13  O          9.9960   29.0890   32.2710 O.2    26  ILE26      -0.2867
     14  CB        11.4690   26.1880   31.8160 C.3    26  ILE26       0.0252
     15  CG1       10.0340   25.7850   32.0550 C.3    26  ILE26       0.0019
     16  CG2       12.3520   26.0400   33.0670 C.3    26  ILE26       0.0019
     17  CD1        9.8500   24.3380   32.5040 C.3    26  ILE26       0.0001
     18  N          7.7360   30.5500   30.8900 N.3    30  VAL30      -0.1245
     19  CA         6.4420   30.1440   31.3980 C.3    30  VAL30       0.1561
     20  C          5.5600   31.3210   31.8440 C.2    30  VAL30       0.2260
     21  O          4.4100   31.3680   31.4660 O.2    30  VAL30      -0.2867
     22  CB         6.5490   29.0470   32.4730 C.3    30  VAL30       0.0252
     23  CG1        5.2510   28.8460   33.2160 C.3    30  VAL30       0.0019
     24  CG2        6.9710   27.7460   31.8180 C.3    30  VAL30       0.0019
     25  N          1.8890   32.0020   30.1930 N.3    34  LEU34      -0.1245
     26  CA         0.7190   31.8700   31.0700 C.3    34  LEU34       0.1561
     27  C          0.5750   33.0360   32.0340 C.2    34  LEU34       0.2260
     28  O          0.5820   32.8600   33.2540 O.2    34  LEU34      -0.2867
     29  CB         0.8200   30.5640   31.8850 C.3    34  LEU34       0.0270
     30  CG         0.9940   29.2710   31.1060 C.3    34  LEU34       0.0019
     31  CD1        1.1770   28.0670   32.0230 C.3    34  LEU34       0.0001
     32  CD2       -0.1770   29.0910   30.1810 C.3    34  LEU34       0.0001
     33  N         -1.9000   32.9360   34.9580 N.3    37  ILE37      -0.1231
     34  CA        -1.7810   31.7870   35.8260 C.3    37  ILE37       0.1692
     35  C         -0.4920   31.7820   36.6500 C.2    37  ILE37       0.2591
     36  O         -0.5210   31.6190   37.8450 O.2    37  ILE37      -0.2718
     37  CB        -1.8690   30.4930   35.0000 C.3    37  ILE37       0.0266
     38  CG1       -3.1800   30.4510   34.2380 C.3    37  ILE37       0.0019
     39  CG2       -1.7310   29.2860   35.8880 C.3    37  ILE37       0.0020
     40  CD1       -3.3100   29.2730   33.3160 C.3    37  ILE37       0.0001
     41  N          0.6340   31.9770   35.9870 N.am   38  VAL38      -0.1980
     42  CA         1.9600   31.8530   36.6290 C.3    38  VAL38       0.1595
     43  C          2.5290   33.2250   36.8710 C.2    38  VAL38       0.2287
     44  O          2.6920   33.9940   35.9200 O.2    38  VAL38      -0.2864
     45  CB         2.9480   30.9960   35.7690 C.3    38  VAL38       0.0276
     46  CG1        4.2670   30.8390   36.5110 C.3    38  VAL38       0.0022
     47  CG2        2.3750   29.6520   35.5190 C.3    38  VAL38       0.0022
     48  N          7.2850   26.9960   40.8730 N.3    56  PHE56      -0.1241
     49  CA         6.3320   27.7590   40.0640 C.3    56  PHE56       0.1605
     50  C          5.3850   28.4310   41.0320 C.2    56  PHE56       0.2264
     51  O          4.7460   27.7450   41.8300 O.2    56  PHE56      -0.2867
     52  CB         5.5220   26.8220   39.1750 C.3    56  PHE56       0.0534
     53  CG         6.3410   26.1410   38.1020 C.ar   56  PHE56      -0.0203
     54  CD1        7.2450   25.1560   38.3880 C.ar   56  PHE56      -0.0042
     55  CD2        6.2750   26.5770   36.7890 C.ar   56  PHE56      -0.0042
     56  CE1        8.0280   24.5590   37.3950 C.ar   56  PHE56      -0.0003
     57  CE2        7.0230   26.0260   35.8080 C.ar   56  PHE56      -0.0003
     58  CZ         7.9190   25.0020   36.1120 C.ar   56  PHE56      -0.0000
     59  N          2.0150   30.6230   41.4800 N.3    58  PHE58      -0.1241
     60  CA         0.7740   30.9180   40.7790 C.3    58  PHE58       0.1605
     61  C          0.0390   32.1120   41.3180 C.2    58  PHE58       0.2264
     62  O          0.1020   32.4080   42.5210 O.2    58  PHE58      -0.2867
     63  CB        -0.1770   29.7060   40.8240 C.3    58  PHE58       0.0534
     64  CG         0.4200   28.4650   40.2780 C.ar   58  PHE58      -0.0203
     65  CD1        0.9820   28.4590   38.9850 C.ar   58  PHE58      -0.0042
     66  CD2        0.4290   27.2850   41.0180 C.ar   58  PHE58      -0.0042
     67  CE1        1.5330   27.2720   38.4750 C.ar   58  PHE58      -0.0003
     68  CE2        0.9620   26.1180   40.4760 C.ar   58  PHE58      -0.0003
     69  CZ         1.5120   26.1390   39.2260 C.ar   58  PHE58      -0.0000
     70  N          3.7720   25.1940   42.9610 N.3    68  GLN68      -0.1245
     71  CA         4.2550   23.8230   42.9730 C.3    68  GLN68       0.1566
     72  C          5.7530   23.8170   42.8570 C.2    68  GLN68       0.2260
     73  O          6.3410   24.5790   42.1040 O.2    68  GLN68      -0.2867
     74  CB         3.5940   22.9840   41.8720 C.3    68  GLN68       0.0367
     75  CG         3.8130   23.4240   40.4500 C.3    68  GLN68       0.0905
     76  CD         2.7680   22.8490   39.5270 C.2    68  GLN68       0.2608
     77  OE1        1.6510   22.6110   39.9360 O.2    68  GLN68      -0.2717
     78  NE2        3.0860   22.6480   38.2960 N.am   68  GLN68      -0.0878
     79  N          8.9020   21.4490   41.7320 N.3    70  GLU70      -0.1245
     80  CA         9.1540   20.3710   40.7990 C.3    70  GLU70       0.1567
     81  C         10.6300   19.9840   40.8360 C.2    70  GLU70       0.2260
     82  O         11.4870   20.8420   41.1110 O.2    70  GLU70      -0.2867
     83  CB         8.8180   20.8390   39.3660 C.3    70  GLU70       0.0388
     84  CG         7.4150   21.3290   39.1860 C.3    70  GLU70       0.1160
     85  CD         6.4240   20.2820   39.0250 C.2    70  GLU70       0.3649
     86  OE1        6.7160   19.0920   38.7230 O.co2  70  GLU70      -0.2457
     87  OE2        5.2230   20.6570   39.2340 O.co2  70  GLU70      -0.2457
     88  N          9.3850   16.2680   34.7450 N.3    84  LEU84      -0.1245
     89  CA         9.2150   17.0880   35.9490 C.3    84  LEU84       0.1561
     90  C          8.2730   16.3910   36.9110 C.2    84  LEU84       0.2260
     91  O          7.1260   16.1190   36.5810 O.2    84  LEU84      -0.2867
     92  CB         8.6440   18.4800   35.6300 C.3    84  LEU84       0.0270
     93  CG         9.5010   19.2850   34.6600 C.3    84  LEU84       0.0019
     94  CD1        9.0410   19.1740   33.2000 C.3    84  LEU84       0.0001
     95  CD2        9.2740   20.7430   34.9950 C.3    84  LEU84       0.0001
     96  N         -0.6910   19.2130   42.3560 N.3    91  TYR91      -0.1241
     97  CA        -1.7120   18.1980   42.5090 C.3    91  TYR91       0.1605
     98  C         -1.5940   17.3520   43.7690 C.2    91  TYR91       0.2264
     99  O         -2.5290   16.6410   44.1140 O.2    91  TYR91      -0.2867
    100  CB        -1.7870   17.3000   41.2840 C.3    91  TYR91       0.0534
    101  CG        -2.1940   17.9950   39.9940 C.ar   91  TYR91      -0.0201
    102  CD1       -3.3120   18.8050   39.9390 C.ar   91  TYR91      -0.0009
    103  CD2       -1.4760   17.8460   38.8190 C.ar   91  TYR91      -0.0009
    104  CE1       -3.6980   19.4550   38.7850 C.ar   91  TYR91       0.0417
    105  CE2       -1.8420   18.4950   37.6490 C.ar   91  TYR91       0.0417
    106  CZ        -2.9650   19.3150   37.6430 C.ar   91  TYR91       0.1957
    107  OH        -3.2870   19.9640   36.4760 O.3    91  TYR91      -0.2866
    108  N          2.9030   12.6870   41.0850 N.3    99  TYR99      -0.1241
    109  CA         2.6390   13.2050   39.7670 C.3    99  TYR99       0.1605
    110  C          3.9110   13.5720   39.0810 C.2    99  TYR99       0.2264
    111  O          4.7620   14.2330   39.6410 O.2    99  TYR99      -0.2867
    112  CB         1.7200   14.4390   39.8760 C.3    99  TYR99       0.0534
    113  CG         1.0950   14.8600   38.5570 C.ar   99  TYR99      -0.0201
    114  CD1       -0.0170   14.2340   38.0820 C.ar   99  TYR99      -0.0009
    115  CD2        1.6060   15.9290   37.8240 C.ar   99  TYR99      -0.0009
    116  CE1       -0.6350   14.6020   36.8950 C.ar   99  TYR99       0.0417
    117  CE2        1.0150   16.3020   36.6450 C.ar   99  TYR99       0.0417
    118  CZ        -0.1110   15.6330   36.1720 C.ar   99  TYR99       0.1957
    119  OH        -0.7120   15.9680   34.9670 O.3    99  TYR99      -0.2866
    120  N          5.2070   14.7440   34.8640 N.3   101  THR101     -0.1218
    121  CA         4.9320   15.0290   33.4590 C.3   101  THR101      0.1862
    122  C          6.2100   14.9130   32.6890 C.2   101  THR101      0.2287
    123  O          7.1960   15.5910   33.0450 O.2   101  THR101     -0.2866
    124  CB         4.3590   16.4550   33.2740 C.3   101  THR101      0.1770
    125  OG1        3.3120   16.6770   34.2240 O.3   101  THR101     -0.2211
    126  CG2        3.8780   16.6600   31.8400 C.3   101  THR101      0.0375
    127  N          7.7620   15.3760   28.7980 N.3   103  PHE103     -0.1241
    128  CA         7.6000   15.8640   27.4110 C.3   103  PHE103      0.1605
    129  C          8.7140   15.2750   26.5940 C.2   103  PHE103      0.2264
    130  O          9.8580   15.2840   27.0010 O.2   103  PHE103     -0.2867
    131  CB         7.7290   17.3790   27.3540 C.3   103  PHE103      0.0534
    132  CG         6.7410   18.1410   28.1580 C.ar  103  PHE103     -0.0203
    133  CD1        5.5290   18.4470   27.6520 C.ar  103  PHE103     -0.0042
    134  CD2        7.0240   18.4960   29.4860 C.ar  103  PHE103     -0.0042
    135  CE1        4.6160   19.1790   28.4070 C.ar  103  PHE103     -0.0003
    136  CE2        6.0970   19.1950   30.2350 C.ar  103  PHE103     -0.0003
    137  CZ         4.8680   19.5160   29.6650 C.ar  103  PHE103     -0.0000
    138  N         -6.0550   16.5980   33.8400 N.3   137  THR137     -0.1218
    139  CA        -4.8080   17.3300   33.9990 C.3   137  THR137      0.1862
    140  C         -4.0970   17.5040   32.6580 C.2   137  THR137      0.2287
    141  O         -3.4760   18.5170   32.4000 O.2   137  THR137     -0.2866
    142  CB        -3.8720   16.6540   35.0220 C.3   137  THR137      0.1770
    143  OG1       -3.4160   15.3990   34.4900 O.3   137  THR137     -0.2211
    144  CG2       -4.5590   16.4940   36.3690 C.3   137  THR137      0.0375
    145  N         -4.9640   20.7480   30.8320 N.3   140  SER140     -0.1202
    146  CA        -4.1670   21.9040   31.1940 C.3   140  SER140      0.2020
    147  C         -2.8250   21.8910   30.5100 C.2   140  SER140      0.2619
    148  O         -2.3580   22.9430   30.0870 O.2   140  SER140     -0.2717
    149  CB        -4.0310   21.9500   32.7270 C.3   140  SER140      0.2103
    150  OG        -5.2810   22.1910   33.3120 O.3   140  SER140     -0.2182
    151  N         -2.1780   20.7500   30.4290 N.am  141  THR141     -0.1952
    152  CA        -0.9150   20.6530   29.7270 C.3   141  THR141      0.1897
    153  C         -1.0610   21.0530   28.2730 C.2   141  THR141      0.2313
    154  O         -0.2190   21.7770   27.7520 O.2   141  THR141     -0.2863
    155  CB        -0.3610   19.2290   29.8260 C.3   141  THR141      0.1794
    156  OG1       -0.2360   18.8860   31.2200 O.3   141  THR141     -0.2208
    157  CG2        1.0050   19.1260   29.1880 C.3   141  THR141      0.0378
    158  N         -3.4570   23.0040   27.0120 N.3   143  PHE143     -0.1227
    159  CA        -3.6770   24.4420   27.0220 C.3   143  PHE143      0.1736
    160  C         -2.3430   25.1710   27.0200 C.2   143  PHE143      0.2595
    161  O         -2.0790   26.0630   26.2070 O.2   143  PHE143     -0.2718
    162  CB        -4.4950   24.8620   28.2550 C.3   143  PHE143      0.0547
    163  CG        -4.5910   26.3620   28.4050 C.ar  143  PHE143     -0.0202
    164  CD1       -5.4440   27.0800   27.6350 C.ar  143  PHE143     -0.0042
    165  CD2       -3.8090   27.0740   29.3270 C.ar  143  PHE143     -0.0042
    166  CE1       -5.5080   28.4800   27.7070 C.ar  143  PHE143     -0.0003
    167  CE2       -3.9010   28.4720   29.4460 C.ar  143  PHE143     -0.0003
    168  CZ        -4.7620   29.1530   28.6490 C.ar  143  PHE143     -0.0000
    169  N         -1.4720   24.7660   27.9480 N.am  144  TYR144     -0.1976
    170  CA        -0.1390   25.3490   28.0280 C.3   144  TYR144      0.1639
    171  C          0.6490   25.2060   26.7260 C.2   144  TYR144      0.2290
    172  O          1.2250   26.1900   26.2580 O.2   144  TYR144     -0.2864
    173  CB         0.6070   24.7500   29.2310 C.3   144  TYR144      0.0560
    174  CG         2.0920   24.8640   29.1810 C.ar  144  TYR144     -0.0198
    175  CD1        2.7210   26.1150   29.1970 C.ar  144  TYR144     -0.0009
    176  CD2        2.8860   23.7310   29.0450 C.ar  144  TYR144     -0.0009
    177  CE1        4.1060   26.2000   29.1250 C.ar  144  TYR144      0.0417
    178  CE2        4.2650   23.8090   28.9450 C.ar  144  TYR144      0.0417
    179  CZ         4.8690   25.0610   28.9870 C.ar  144  TYR144      0.1957
    180  OH         6.2340   25.1550   28.9000 O.3   144  TYR144     -0.2866
@<TRIPOS>BOND
     1   161   160    2
     2   172   171    2
     3   129   130    2
     4   129   128    1
     5   171   170    1
     6     1     2    1
     7   158   159    1
     8   160   159    1
     9   160   169   am
    10   159   162    1
    11     5     2    1
    12     5     6    1
    13   131   128    1
    14   131   132    1
    15   128   127    1
    16   164   166   ar
    17   164   163   ar
    18   133   132   ar
    19   133   135   ar
    20   166   168   ar
    21   154   153    2
    22     2     3    1
    23   169   170    1
    24     6     7    1
    25   170   173    1
    26     8     7    2
    27   132   134   ar
    28   162   163    1
    29   153   152    1
    30   163   165   ar
    31   135   137   ar
    32   168   167   ar
    33     7     9   am
    34     3     4    2
    35   180   179    1
    36   178   179   ar
    37   178   176   ar
    38   179   177   ar
    39   176   174   ar
    40   177   175   ar
    41   174   175   ar
    42   174   173    1
    43   157   155    1
    44   165   167   ar
    45   134   136   ar
    46   137   136   ar
    47   152   155    1
    48   152   151    1
    49   155   156    1
    50   148   147    2
    51    32    30    1
    52    25    26    1
    53   151   147   am
    54   147   146    1
    55    10    11    1
    56   145   146    1
    57    18    19    1
    58    26    29    1
    59    26    27    1
    60    30    29    1
    61    30    31    1
    62   146   149    1
    63    11    14    1
    64    11    12    1
    65    19    20    1
    66    19    22    1
    67    21    20    2
    68    14    15    1
    69    14    16    1
    70    24    22    1
    71   126   124    1
    72    27    28    2
    73    15    17    1
    74    12    13    2
    75   141   140    2
    76    22    23    1
    77   140   139    1
    78   122   123    2
    79   122   121    1
    80   149   150    1
    81    94    93    1
    82   124   121    1
    83   124   125    1
    84    40    38    1
    85   121   120    1
    86   138   139    1
    87   139   142    1
    88    38    37    1
    89   143   142    1
    90    93    95    1
    91    93    92    1
    92    88    89    1
    93    33    34    1
    94   119   118    1
    95    37    34    1
    96    37    39    1
    97   142   144    1
    98    47    45    1
    99    92    89    1
   100    45    46    1
   101    45    42    1
   102    57    58   ar
   103    57    55   ar
   104    34    35    1
   105    44    43    2
   106    89    90    1
   107    41    42    1
   108    41    35   am
   109    58    56   ar
   110   118   117   ar
   111   118   116   ar
   112   107   106    1
   113    91    90    2
   114    42    43    1
   115   117   115   ar
   116    35    36    2
   117    55    53   ar
   118   116   114   ar
   119    56    54   ar
   120   106   105   ar
   121   106   104   ar
   122   105   103   ar
   123   115   113   ar
   124   114   113   ar
   125    53    54   ar
   126    53    52    1
   127    78    76   am
   128    67    65   ar
   129    67    69   ar
   130   113   112    1
   131    86    85   ar
   132   104   102   ar
   133   103   101   ar
   134    65    64   ar
   135    85    84    1
   136    85    87   ar
   137   110   111    2
   138   110   109    1
   139    52    49    1
   140    84    83    1
   141    69    68   ar
   142    83    80    1
   143    76    77    2
   144    76    75    1
   145   109   112    1
   146   109   108    1
   147   102   101   ar
   148   101   100    1
   149    49    48    1
   150    49    50    1
   151    64    63    1
   152    64    66   ar
   153    75    74    1
   154    68    66   ar
   155    60    63    1
   156    60    61    1
   157    60    59    1
   158    80    81    1
   159    80    79    1
   160    81    82    2
   161    50    51    2
   162   100    97    1
   163    61    62    2
   164    74    71    1
   165    73    72    2
   166    96    97    1
   167    97    98    1
   168    72    71    1
   169    70    71    1
   170    98    99    2
