@<TRIPOS>MOLECULE
tmp/4q0lB00.pdb
 191 185 0 0 0
SMALL
GASTEIGER

@<TRIPOS>ATOM
      1  N         -3.2190   10.0320  -17.5570 N.3     2  TRP2       -0.1241
      2  CA        -2.9050    9.2820  -16.3480 C.3     2  TRP2        0.1605
      3  C         -3.9170    9.6590  -15.2810 C.2     2  TRP2        0.2264
      4  O         -4.3230   10.8290  -15.1660 O.2     2  TRP2       -0.2867
      5  CB        -1.4140    9.4170  -15.9630 C.3     2  TRP2        0.0550
      6  CG        -0.9990   10.7710  -15.4200 C.ar    2  TRP2        0.0003
      7  CD1       -0.3070   11.7850  -16.0790 C.ar    2  TRP2        0.0946
      8  CD2       -1.2280   11.2730  -14.0680 C.ar    2  TRP2        0.0152
      9  NE1       -0.1010   12.8650  -15.2500 N.ar    2  TRP2       -0.2442
     10  CE2       -0.6380   12.6230  -14.0260 C.ar    2  TRP2        0.0810
     11  CE3       -1.8520   10.7630  -12.9270 C.ar    2  TRP2        0.0012
     12  CZ2       -0.6940   13.4050  -12.8900 C.ar    2  TRP2        0.0191
     13  CZ3       -1.8970   11.5640  -11.7840 C.ar    2  TRP2        0.0001
     14  CH2       -1.3380   12.8530  -11.7640 C.ar    2  TRP2        0.0015
     15  N         -6.3920   21.1980  -12.3100 N.3    62  ASN62      -0.1240
     16  CA        -5.6430   20.6530  -13.4480 C.3    62  ASN62       0.1653
     17  C         -6.1000   19.2500  -13.9070 C.2    62  ASN62       0.2266
     18  O         -5.4350   18.6000  -14.7010 O.2    62  ASN62      -0.2867
     19  CB        -4.1350   20.7100  -13.1900 C.3    62  ASN62       0.1155
     20  CG        -3.6880   19.7630  -12.0950 C.2    62  ASN62       0.2627
     21  OD1       -4.4140   18.8300  -11.7120 O.2    62  ASN62      -0.2716
     22  ND2       -2.4910   20.0060  -11.5760 N.am   62  ASN62      -0.0877
     23  N         -6.1900   16.7100  -11.9920 N.3    64  HIS64      -0.1226
     24  CA        -5.5240   15.7380  -11.0790 C.3    64  HIS64       0.1752
     25  C         -5.6150   16.1640   -9.6380 C.2    64  HIS64       0.2596
     26  O         -5.7670   15.3200   -8.7550 O.2    64  HIS64      -0.2718
     27  CB        -4.0520   15.5180  -11.4070 C.3    64  HIS64       0.0759
     28  CG        -3.7680   15.0640  -12.8430 C.ar   64  HIS64       0.0818
     29  ND1       -4.1590   13.8660  -13.3290 N.ar   64  HIS64      -0.2268
     30  CD2       -3.0480   15.6890  -13.8740 C.ar   64  HIS64       0.1154
     31  CE1       -3.7350   13.7380  -14.6090 C.ar   64  HIS64       0.1986
     32  NE2       -3.0630   14.8520  -14.9380 N.ar   64  HIS64      -0.2212
     33  N         -5.5040   17.4750   -9.3850 N.am   65  SER65      -0.1952
     34  CA        -5.6250   18.0570   -8.0500 C.3    65  SER65       0.1924
     35  C         -6.0740   19.4930   -8.2570 C.2    65  SER65       0.2314
     36  O         -6.2970   19.9200   -9.3980 O.2    65  SER65      -0.2863
     37  CB        -4.2680   18.0150   -7.2970 C.3    65  SER65       0.2116
     38  OG        -4.3200   18.6550   -6.0140 O.3    65  SER65      -0.2180
     39  N         -4.3160   23.1210   -7.6830 N.3    67  LYS67      -0.1245
     40  CA        -3.0010   23.6310   -7.3000 C.3    67  LYS67       0.1561
     41  C         -2.9980   25.1500   -7.2310 C.2    67  LYS67       0.2260
     42  O         -3.6250   25.7910   -8.0720 O.2    67  LYS67      -0.2867
     43  CB        -1.8810   23.0700   -8.2090 C.3    67  LYS67       0.0271
     44  CG        -1.7300   23.6930   -9.5920 C.3    67  LYS67       0.0035
     45  CD        -0.2450   23.8470   -9.9290 C.3    67  LYS67       0.0206
     46  CE         0.0710   23.6510  -11.4210 C.3    67  LYS67       0.1093
     47  NZ        -0.5480   24.6550  -12.3280 N.3    67  LYS67      -0.1314
     48  N          7.3640   26.6020   -6.0840 N.3    86  THR86      -0.1203
     49  CA         6.7590   26.6550   -7.4120 C.3    86  THR86       0.1994
     50  C          5.2220   26.5920   -7.3070 C.2    86  THR86       0.2617
     51  O          4.5510   27.3870   -7.9070 O.2    86  THR86      -0.2717
     52  CB         7.3470   25.6110   -8.4060 C.3    86  THR86       0.1784
     53  OG1        6.6450   25.6900   -9.6520 O.3    86  THR86      -0.2211
     54  CG2        7.2470   24.1510   -7.8450 C.3    86  THR86       0.0376
     55  N          4.7010   25.6570   -6.4920 N.am   87  GLN87      -0.1979
     56  CA         3.2530   25.4970   -6.2140 C.3    87  GLN87       0.1601
     57  C          2.9420   24.7040   -4.8990 C.2    87  GLN87       0.2287
     58  O          3.8400   24.1180   -4.2460 O.2    87  GLN87      -0.2864
     59  CB         2.5080   24.8320   -7.4080 C.3    87  GLN87       0.0394
     60  CG         3.1580   23.5690   -7.9740 C.3    87  GLN87       0.0908
     61  CD         2.4110   22.2760   -7.6360 C.2    87  GLN87       0.2608
     62  OE1        1.9880   22.0710   -6.5230 O.2    87  GLN87      -0.2717
     63  NE2        2.2480   21.4180   -8.6100 N.am   87  GLN87      -0.0878
     64  N         -0.4980   21.9780   -3.4170 N.3    89  HIS89      -0.1241
     65  CA        -1.6210   21.1970   -3.9270 C.3    89  HIS89       0.1621
     66  C         -1.9600   20.1790   -2.8930 C.2    89  HIS89       0.2264
     67  O         -1.2490   20.0900   -1.8840 O.2    89  HIS89      -0.2867
     68  CB        -1.2420   20.5120   -5.2650 C.3    89  HIS89       0.0745
     69  CG        -0.0800   19.5310   -5.1610 C.ar   89  HIS89       0.0817
     70  ND1        1.1710   19.8470   -5.5460 N.ar   89  HIS89      -0.2268
     71  CD2       -0.0290   18.2050   -4.7220 C.ar   89  HIS89       0.1154
     72  CE1        1.9870   18.7910   -5.3470 C.ar   89  HIS89       0.1986
     73  NE2        1.2490   17.7850   -4.8480 N.ar   89  HIS89      -0.2212
     74  N         -4.1040   16.2230   -1.7410 N.3    91  HIS91      -0.1241
     75  CA        -4.5530   14.8830   -2.0780 C.3    91  HIS91       0.1621
     76  C         -5.6050   14.4930   -1.0810 C.2    91  HIS91       0.2264
     77  O         -5.5590   14.9330    0.0830 O.2    91  HIS91      -0.2867
     78  CB        -3.3910   13.8990   -1.9670 C.3    91  HIS91       0.0745
     79  CG        -2.3020   14.1300   -2.9700 C.ar   91  HIS91       0.0817
     80  ND1       -2.3000   13.5490   -4.1860 N.ar   91  HIS91      -0.2268
     81  CD2       -1.1380   14.8990   -2.8960 C.ar   91  HIS91       0.1154
     82  CE1       -1.2050   13.9510   -4.8690 C.ar   91  HIS91       0.1986
     83  NE2       -0.4810   14.7520   -4.0670 N.ar   91  HIS91      -0.2212
     84  N         -1.2980   10.8700    1.3590 N.3   102  GLU102     -0.1245
     85  CA        -0.4000   10.0360    0.5830 C.3   102  GLU102      0.1567
     86  C          0.4990    9.3100    1.5510 C.2   102  GLU102      0.2260
     87  O          0.6120    8.0850    1.4810 O.2   102  GLU102     -0.2867
     88  CB         0.4490   10.7660   -0.4620 C.3   102  GLU102      0.0388
     89  CG        -0.3150   11.7000   -1.4270 C.3   102  GLU102      0.1160
     90  CD         0.3180   11.6580   -2.8060 C.2   102  GLU102      0.3649
     91  OE1        1.2230   12.5080   -3.1210 O.co2 102  GLU102     -0.2457
     92  OE2       -0.0990   10.7930   -3.5950 O.co2 102  GLU102     -0.2457
     93  N          0.8170   19.5050    0.0320 N.3   115  HIS115     -0.1241
     94  CA         2.1630   19.4730   -0.4720 C.3   115  HIS115      0.1621
     95  C          2.5040   20.8420   -0.9960 C.2   115  HIS115      0.2264
     96  O          1.6860   21.4470   -1.7000 O.2   115  HIS115     -0.2867
     97  CB         2.3180   18.4400   -1.5730 C.3   115  HIS115      0.0745
     98  CG         2.1610   16.9970   -1.0950 C.ar  115  HIS115      0.0817
     99  ND1        1.8120   16.0060   -1.9250 N.ar  115  HIS115     -0.2268
    100  CD2        2.3190   16.4260    0.1580 C.ar  115  HIS115      0.1154
    101  CE1        1.7690   14.8330   -1.2350 C.ar  115  HIS115      0.1986
    102  NE2        2.0700   15.0940    0.0310 N.ar  115  HIS115     -0.2212
    103  N          5.5490   22.3350   -3.0750 N.3   117  VAL117     -0.1245
    104  CA         6.6640   21.9610   -3.9440 C.3   117  VAL117      0.1561
    105  C          7.6850   23.1130   -4.1640 C.2   117  VAL117      0.2260
    106  O          7.2980   24.2440   -4.5370 O.2   117  VAL117     -0.2867
    107  CB         6.1310   21.5150   -5.3270 C.3   117  VAL117      0.0252
    108  CG1        7.2750   20.9780   -6.1840 C.3   117  VAL117      0.0019
    109  CG2        5.0410   20.4170   -5.1670 C.3   117  VAL117      0.0019
    110  N         11.5660   25.0020  -11.8320 N.3   127  ALA127     -0.1231
    111  CA        11.0830   23.6730  -11.3780 C.3   127  ALA127      0.1694
    112  C         11.1510   22.5540  -12.4030 C.2   127  ALA127      0.2592
    113  O         11.6680   21.4530  -12.1080 O.2   127  ALA127     -0.2718
    114  CB         9.6820   23.7860  -10.8220 C.3   127  ALA127      0.0304
    115  N         10.6320   22.8230  -13.5990 N.am  128  SER128     -0.1952
    116  CA        10.5590   21.8160  -14.6500 C.3   128  SER128      0.1924
    117  C         11.9650   21.3080  -15.0710 C.2   128  SER128      0.2314
    118  O         12.1460   20.1120  -15.3430 O.2   128  SER128     -0.2863
    119  CB         9.7580   22.3310  -15.8530 C.3   128  SER128      0.2116
    120  OG         8.6140   23.0980  -15.4650 O.3   128  SER128     -0.2180
    121  N         13.2180   19.2620  -12.2360 N.3   131  SER131     -0.1217
    122  CA        12.4000   18.0540  -11.9910 C.3   131  SER131      0.1889
    123  C         13.1200   16.7380  -12.3090 C.2   131  SER131      0.2288
    124  O         12.8120   15.6910  -11.7090 O.2   131  SER131     -0.2866
    125  CB        11.0560   18.1380  -12.7310 C.3   131  SER131      0.2089
    126  OG        11.1430   17.7470  -14.0960 O.3   131  SER131     -0.2183
    127  N         14.3920   18.6850   -6.2540 N.3   137  LEU137     -0.1245
    128  CA        13.1980   19.1370   -5.5380 C.3   137  LEU137      0.1561
    129  C         13.2190   18.8690   -4.0320 C.2   137  LEU137      0.2260
    130  O         13.8790   17.9640   -3.5300 O.2   137  LEU137     -0.2867
    131  CB        11.8990   18.5760   -6.1680 C.3   137  LEU137      0.0270
    132  CG        11.6540   18.7000   -7.6920 C.3   137  LEU137      0.0019
    133  CD1       10.6480   17.6740   -8.2620 C.3   137  LEU137      0.0001
    134  CD2       11.2700   20.1380   -8.0920 C.3   137  LEU137      0.0001
    135  N         10.0110   18.9070   -1.1910 N.3   139  VAL139     -0.1245
    136  CA         8.5940   19.0820   -0.9620 C.3   139  VAL139      0.1561
    137  C          8.2770   18.9830    0.5160 C.2   139  VAL139      0.2260
    138  O          8.8100   18.1160    1.2230 O.2   139  VAL139     -0.2867
    139  CB         7.7970   18.0540   -1.7670 C.3   139  VAL139      0.0252
    140  CG1        6.2990   18.3530   -1.6960 C.3   139  VAL139      0.0019
    141  CG2        8.2750   18.0500   -3.2180 C.3   139  VAL139      0.0019
    142  N          8.6200   12.1560   -7.0070 N.3   195  LEU195     -0.1231
    143  CA         7.3550   12.7770   -7.2590 C.3   195  LEU195      0.1693
    144  C          6.3180   11.6730   -7.0400 C.2   195  LEU195      0.2593
    145  O          6.5380   10.5610   -7.4940 O.2   195  LEU195     -0.2718
    146  CB         7.3820   13.2810   -8.6850 C.3   195  LEU195      0.0284
    147  CG         8.3090   14.5710   -8.8300 C.3   195  LEU195      0.0019
    148  CD1        8.4700   14.9860  -10.2760 C.3   195  LEU195      0.0001
    149  CD2        7.6860   15.7150   -8.0790 C.3   195  LEU195      0.0001
    150  N          5.2140   11.9780   -6.3560 N.am  196  THR196     -0.1939
    151  CA         4.1320   10.9690   -6.1980 C.3   196  THR196      0.2028
    152  C          3.2060   10.8320   -7.4180 C.2   196  THR196      0.2643
    153  O          2.4920    9.8710   -7.5350 O.2   196  THR196     -0.2714
    154  CB         3.3320   11.1380   -4.9270 C.3   196  THR196      0.1808
    155  OG1        2.4960   12.2800   -5.0140 O.3   196  THR196     -0.2208
    156  CG2        4.2870   11.2440   -3.6980 C.3   196  THR196      0.0379
    157  N          3.3010   11.7710   -8.3500 N.am  197  THR197     -0.1937
    158  CA         2.5760   11.6910   -9.5920 C.3   197  THR197      0.2013
    159  C          3.5900   11.5800  -10.6940 C.2   197  THR197      0.2484
    160  O          4.7330   11.9410  -10.4960 O.2   197  THR197     -0.2729
    161  CB         1.7890   12.9790   -9.8590 C.3   197  THR197      0.1807
    162  OG1        2.7180   14.0670   -9.8560 O.3   197  THR197     -0.2208
    163  CG2        0.7680   13.1470   -8.7520 C.3   197  THR197      0.0379
    164  N          3.1710   11.0890  -11.8690 N.am  198  PRO198     -0.2715
    165  CA         3.9450   11.1240  -13.0930 C.3   198  PRO198      0.1521
    166  C          4.4990   12.5290  -13.3330 C.2   198  PRO198      0.2440
    167  O          3.7760   13.4880  -13.0270 O.2   198  PRO198     -0.2731
    168  CB         2.8810   10.8420  -14.1550 C.3   198  PRO198      0.0310
    169  CG         2.0140    9.8410  -13.4410 C.3   198  PRO198      0.0237
    170  CD         1.8510   10.4840  -12.0970 C.3   198  PRO198      0.0939
    171  N          5.7490   12.6530  -13.8440 N.am  199  PRO199     -0.2727
    172  CA         6.6780   11.6020  -14.3000 C.3   199  PRO199      0.1402
    173  C          7.4070   10.7740  -13.1940 C.2   199  PRO199      0.2269
    174  O          8.3120   10.0230  -13.5300 O.2   199  PRO199     -0.2865
    175  CB         7.7330   12.3970  -15.0930 C.3   199  PRO199      0.0296
    176  CG         7.1010   13.7120  -15.4010 C.3   199  PRO199      0.0237
    177  CD         6.3290   13.9810  -14.1190 C.3   199  PRO199      0.0939
    178  N         12.0560   14.7870    0.5570 N.3   206  TRP206     -0.1241
    179  CA        10.8170   14.8730    1.3180 C.3   206  TRP206      0.1605
    180  C         11.0160   15.2880    2.7130 C.2   206  TRP206      0.2264
    181  O         11.9290   14.8200    3.4110 O.2   206  TRP206     -0.2867
    182  CB        10.0710   13.5180    1.3010 C.3   206  TRP206      0.0550
    183  CG         9.2990   13.3780    0.0350 C.ar  206  TRP206      0.0003
    184  CD1        9.6890   12.7410   -1.1640 C.ar  206  TRP206      0.0946
    185  CD2        7.9890   13.9670   -0.2300 C.ar  206  TRP206      0.0152
    186  NE1        8.7200   12.8820   -2.1260 N.ar  206  TRP206     -0.2442
    187  CE2        7.6530   13.6140   -1.6090 C.ar  206  TRP206      0.0810
    188  CE3        7.0680   14.6900    0.5350 C.ar  206  TRP206      0.0012
    189  CZ2        6.4560   13.9970   -2.1760 C.ar  206  TRP206      0.0191
    190  CZ3        5.8740   15.0510   -0.0520 C.ar  206  TRP206      0.0001
    191  CH2        5.5790   14.7230   -1.3870 C.ar  206  TRP206      0.0015
@<TRIPOS>BOND
     1     1     2    1
     2     2     5    1
     3     2     3    1
     4     7     6   ar
     5     7     9   ar
     6     5     6    1
     7   119   120    1
     8   119   116    1
     9     6     8   ar
    10   176   175    1
    11   176   177    1
    12   118   117    2
    13     3     4    2
    14     9    10   ar
    15   175   172    1
    16   117   116    1
    17    32    31   ar
    18    32    30   ar
    19    18    17    2
    20   116   115    1
    21    31    29   ar
    22   172   171    1
    23   172   173    1
    24   168   169    1
    25   168   165    1
    26   177   171    1
    27   126   125    1
    28     8    10   ar
    29     8    11   ar
    30    10    12   ar
    31    17    16    1
    32    30    28   ar
    33   171   166   am
    34   115   112   am
    35   174   173    2
    36    16    19    1
    37    16    15    1
    38   169   170    1
    39   166   165    1
    40   166   167    2
    41    29    28   ar
    42    19    20    1
    43   165   164    1
    44    11    13   ar
    45    12    14   ar
    46    28    27    1
    47   125   122    1
    48   112   113    2
    49   112   111    1
    50    47    46    1
    51   123   122    1
    52   123   124    2
    53   121   122    1
    54   170   164    1
    55    20    21    2
    56    20    22   am
    57    23    24    1
    58   164   159   am
    59   110   111    1
    60    13    14   ar
    61    46    45    1
    62    27    24    1
    63   111   114    1
    64    24    25    1
    65   159   160    2
    66   159   158    1
    67   148   147    1
    68    45    44    1
    69   161   162    1
    70   161   158    1
    71   161   163    1
    72    53    52    1
    73    25    33   am
    74    25    26    2
    75   158   157    1
    76    44    43    1
    77    36    35    2
    78    33    34    1
    79   147   146    1
    80   147   149    1
    81   146   143    1
    82    63    61   am
    83    52    54    1
    84    52    49    1
    85   157   152   am
    86   133   132    1
    87    35    34    1
    88    43    40    1
    89   134   132    1
    90    42    41    2
    91    34    37    1
    92    60    61    1
    93    60    59    1
    94    51    50    2
    95   132   131    1
    96    39    40    1
    97    61    62    2
    98   153   152    2
    99   145   144    2
   100   152   151    1
   101    49    50    1
   102    49    48    1
   103    59    56    1
   104    50    55   am
   105    40    41    1
   106    37    38    1
   107   143   144    1
   108   143   142    1
   109   144   150   am
   110    55    56    1
   111   150   151    1
   112   127   128    1
   113    56    57    1
   114   151   154    1
   115   108   107    1
   116   131   128    1
   117    70    72   ar
   118    70    69   ar
   119   128   129    1
   120    72    73   ar
   121   107   109    1
   122   107   104    1
   123    68    69    1
   124    68    65    1
   125    69    71   ar
   126   155   154    1
   127   154   156    1
   128    57    58    2
   129    82    80   ar
   130    82    83   ar
   131    73    71   ar
   132   106   105    2
   133    80    79   ar
   134   105   104    1
   135    83    81   ar
   136   129   130    2
   137   104   103    1
   138    65    64    1
   139    65    66    1
   140    92    90   ar
   141   141   139    1
   142    91    90   ar
   143    79    81   ar
   144    79    78    1
   145    66    67    2
   146    90    89    1
   147   189   187   ar
   148   189   191   ar
   149   186   187   ar
   150   186   184   ar
   151    75    78    1
   152    75    74    1
   153    75    76    1
   154    99   101   ar
   155    99    98   ar
   156   139   140    1
   157   139   136    1
   158    96    95    2
   159   187   185   ar
   160    97    98    1
   161    97    94    1
   162    89    88    1
   163   191   190   ar
   164   101   102   ar
   165   135   136    1
   166   184   183   ar
   167    98   100   ar
   168    76    77    2
   169    95    94    1
   170   136   137    1
   171    94    93    1
   172    88    85    1
   173   185   183   ar
   174   185   188   ar
   175   190   188   ar
   176   102   100   ar
   177   183   182    1
   178   137   138    2
   179   178   179    1
   180    85    84    1
   181    85    86    1
   182   182   179    1
   183   179   180    1
   184    87    86    2
   185   180   181    2
