@<TRIPOS>MOLECULE
tmp/4q0nA00.pdb
 119 114 0 0 0
SMALL
GASTEIGER

@<TRIPOS>ATOM
      1  N          4.5820   56.6330   44.6680 N.3    32  ILE32      -0.1231
      2  CA         4.9810   57.9560   45.1700 C.3    32  ILE32       0.1692
      3  C          5.5060   57.8960   46.6070 C.2    32  ILE32       0.2592
      4  O          6.3710   58.6680   47.0210 O.2    32  ILE32      -0.2718
      5  CB         3.7680   58.9260   45.0710 C.3    32  ILE32       0.0266
      6  CG1        3.7020   59.5670   43.6820 C.3    32  ILE32       0.0019
      7  CG2        3.8120   60.0060   46.1550 C.3    32  ILE32       0.0020
      8  CD1        4.8400   60.4990   43.3270 C.3    32  ILE32       0.0001
      9  N          4.9760   56.9490   47.3920 N.am   33  PHE33      -0.1976
     10  CA         5.2920   56.8440   48.8200 C.3    33  PHE33       0.1639
     11  C          6.5840   56.0780   49.1340 C.2    33  PHE33       0.2290
     12  O          7.0030   56.0140   50.3110 O.2    33  PHE33      -0.2864
     13  CB         4.1310   56.1590   49.5720 C.3    33  PHE33       0.0560
     14  CG         2.8090   56.8620   49.4200 C.ar   33  PHE33      -0.0200
     15  CD1        2.5710   58.0600   50.0590 C.ar   33  PHE33      -0.0042
     16  CD2        1.8290   56.3740   48.5740 C.ar   33  PHE33      -0.0042
     17  CE1        1.4000   58.7660   49.8330 C.ar   33  PHE33      -0.0003
     18  CE2        0.6210   57.0580   48.3910 C.ar   33  PHE33      -0.0003
     19  CZ         0.4100   58.2320   49.0510 C.ar   33  PHE33      -0.0000
     20  N         10.5200   59.7540   49.6720 N.3    36  LEU36      -0.1231
     21  CA        10.2010   61.1730   49.7360 C.3    36  LEU36       0.1678
     22  C         11.1160   61.9700   48.7670 C.2    36  LEU36       0.2434
     23  O         12.2790   61.6000   48.5520 O.2    36  LEU36      -0.2733
     24  CB        10.4140   61.7200   51.1650 C.3    36  LEU36       0.0284
     25  CG         9.3510   61.6150   52.2380 C.3    36  LEU36       0.0019
     26  CD1        9.9660   61.7120   53.6070 C.3    36  LEU36       0.0001
     27  CD2        8.2830   62.6790   52.0310 C.3    36  LEU36       0.0001
     28  N         10.6190   63.0980   48.2560 N.am   37  PRO37      -0.2729
     29  CA        11.4760   64.0580   47.6040 C.3    37  PRO37       0.1401
     30  C         12.5700   64.4540   48.5680 C.2    37  PRO37       0.2269
     31  O         12.3470   64.4770   49.7910 O.2    37  PRO37      -0.2865
     32  CB        10.5410   65.2360   47.3140 C.3    37  PRO37       0.0296
     33  CG         9.1860   64.6740   47.3260 C.3    37  PRO37       0.0237
     34  CD         9.2110   63.5100   48.2530 C.3    37  PRO37       0.0939
     35  N         12.6190   69.8110   48.0330 N.3    42  LEU42      -0.1245
     36  CA        11.3380   70.2200   48.5670 C.3    42  LEU42       0.1561
     37  C         11.4590   70.7070   49.9620 C.2    42  LEU42       0.2260
     38  O         10.9480   70.1010   50.8760 O.2    42  LEU42      -0.2867
     39  CB        10.3240   69.0630   48.4140 C.3    42  LEU42       0.0270
     40  CG         8.8850   69.5060   48.1580 C.3    42  LEU42       0.0019
     41  CD1        8.7320   70.1990   46.8000 C.3    42  LEU42       0.0001
     42  CD2        7.9160   68.3290   48.2710 C.3    42  LEU42       0.0001
     43  N          8.3650   71.0400   52.2540 N.3    45  TYR45      -0.1241
     44  CA         7.8860   69.7810   52.8750 C.3    45  TYR45       0.1605
     45  C          8.4330   69.6260   54.2900 C.2    45  TYR45       0.2264
     46  O          7.7060   69.4230   55.2560 O.2    45  TYR45      -0.2867
     47  CB         8.2840   68.5270   52.0620 C.3    45  TYR45       0.0534
     48  CG         7.5500   67.2850   52.5350 C.ar   45  TYR45      -0.0201
     49  CD1        8.0300   66.5010   53.5700 C.ar   45  TYR45      -0.0009
     50  CD2        6.3340   66.9100   51.9550 C.ar   45  TYR45      -0.0009
     51  CE1        7.3120   65.3940   54.0440 C.ar   45  TYR45       0.0417
     52  CE2        5.6360   65.7760   52.3640 C.ar   45  TYR45       0.0417
     53  CZ         6.1300   65.0240   53.4260 C.ar   45  TYR45       0.1957
     54  OH         5.4740   63.8830   53.8270 O.3    45  TYR45      -0.2866
     55  N          8.3300   60.5160   56.9320 N.3    53  MET53      -0.1230
     56  CA         8.3020   59.0380   56.8300 C.3    53  MET53       0.1702
     57  C          8.0190   58.6380   55.4010 C.2    53  MET53       0.2592
     58  O          7.1930   59.2810   54.7140 O.2    53  MET53      -0.2718
     59  CB         7.2090   58.4820   57.7430 C.3    53  MET53       0.0401
     60  CG         7.1190   56.9710   57.7830 C.3    53  MET53       0.0596
     61  SD         8.6280   56.2180   58.4860 S.3    53  MET53      -0.1393
     62  CE         8.7580   56.8370   60.1170 C.3    53  MET53       0.0692
     63  N          8.7160   57.5690   54.9330 N.am   54  ASP54      -0.1974
     64  CA         8.4470   56.9680   53.6240 C.3    54  ASP54       0.1709
     65  C          8.6270   55.4440   53.7540 C.2    54  ASP54       0.2293
     66  O          9.0100   54.9450   54.8320 O.2    54  ASP54      -0.2864
     67  CB         9.2380   57.6300   52.4700 C.3    54  ASP54       0.1436
     68  CG        10.7740   57.5090   52.6120 C.2    54  ASP54       0.3671
     69  OD1       11.2340   56.6710   53.3950 O.co2  54  ASP54      -0.2456
     70  OD2       11.4830   58.2620   51.9060 O.co2  54  ASP54      -0.2456
     71  N          2.9140   58.3590   57.8320 N.3    80  MET80      -0.1245
     72  CA         3.1990   58.6690   56.4430 C.3    80  MET80       0.1570
     73  C          1.9670   59.1680   55.6630 C.2    80  MET80       0.2261
     74  O          2.0260   60.1720   54.9640 O.2    80  MET80      -0.2867
     75  CB         3.8120   57.4450   55.7540 C.3    80  MET80       0.0387
     76  CG         4.2290   57.6740   54.3300 C.3    80  MET80       0.0595
     77  SD         4.8530   56.1660   53.5380 S.3    80  MET80      -0.1393
     78  CE         3.2970   55.3310   53.2800 C.3    80  MET80       0.0692
     79  N          0.8630   62.5710   57.0460 N.3    83  ASN83      -0.1225
     80  CA         1.7320   63.5780   56.4740 C.3    83  ASN83       0.1785
     81  C          1.4090   63.9280   55.0230 C.2    83  ASN83       0.2597
     82  O          1.3330   65.1010   54.6620 O.2    83  ASN83      -0.2718
     83  CB         3.2460   63.1640   56.4970 C.3    83  ASN83       0.1169
     84  CG         3.8420   63.0300   57.8930 C.2    83  ASN83       0.2627
     85  OD1        3.3090   63.5710   58.9090 O.2    83  ASN83      -0.2716
     86  ND2        5.0150   62.3520   57.9620 N.am   83  ASN83      -0.0877
     87  N          1.2250   62.9350   54.1900 N.am   84  ALA84      -0.1979
     88  CA         0.8300   63.1300   52.7970 C.3    84  ALA84       0.1597
     89  C         -0.4560   63.9230   52.6990 C.2    84  ALA84       0.2287
     90  O         -0.5680   64.8480   51.8300 O.2    84  ALA84      -0.2864
     91  CB         0.6730   61.7870   52.1230 C.3    84  ALA84       0.0319
     92  N          0.3030   67.7360   53.7630 N.3    87  TYR87      -0.1227
     93  CA         1.0540   68.4790   52.8130 C.3    87  TYR87       0.1736
     94  C          0.2960   68.7130   51.5000 C.2    87  TYR87       0.2595
     95  O          0.3430   69.8180   50.9350 O.2    87  TYR87      -0.2718
     96  CB         2.3950   67.8000   52.5680 C.3    87  TYR87       0.0548
     97  CG         3.2630   68.5540   51.5960 C.ar   87  TYR87      -0.0200
     98  CD1        3.9850   69.6810   52.0050 C.ar   87  TYR87      -0.0009
     99  CD2        3.2770   68.2120   50.2300 C.ar   87  TYR87      -0.0009
    100  CE1        4.7570   70.4130   51.0930 C.ar   87  TYR87       0.0417
    101  CE2        4.0250   68.9530   49.3200 C.ar   87  TYR87       0.0417
    102  CZ         4.7750   70.0300   49.7660 C.ar   87  TYR87       0.1957
    103  OH         5.5000   70.7430   48.8600 O.3    87  TYR87      -0.2866
    104  N         -0.3650   67.6810   50.9940 N.am   88  ASN88      -0.1974
    105  CA        -1.0410   67.7420   49.6790 C.3    88  ASN88       0.1688
    106  C         -2.5000   68.0970   49.9010 C.2    88  ASN88       0.2292
    107  O         -3.0650   67.7960   50.9350 O.2    88  ASN88      -0.2864
    108  CB        -0.9020   66.4010   48.9810 C.3    88  ASN88       0.1181
    109  CG         0.5390   66.0170   48.7160 C.2    88  ASN88       0.2629
    110  OD1        1.1230   66.5190   47.7590 O.2    88  ASN88      -0.2716
    111  ND2        1.1240   65.1030   49.5480 N.am   88  ASN88      -0.0877
    112  N         -2.2950   62.3570   45.1970 N.3    94  ILE94      -0.1245
    113  CA        -1.4900   61.7770   46.2690 C.3    94  ILE94       0.1561
    114  C         -2.3460   61.6920   47.5450 C.2    94  ILE94       0.2260
    115  O         -2.3600   60.6840   48.2020 O.2    94  ILE94      -0.2867
    116  CB        -0.2620   62.6400   46.5920 C.3    94  ILE94       0.0252
    117  CG1        0.6870   62.6750   45.3570 C.3    94  ILE94       0.0019
    118  CG2        0.4440   62.0890   47.8130 C.3    94  ILE94       0.0019
    119  CD1        1.9610   63.5350   45.4410 C.3    94  ILE94       0.0001
@<TRIPOS>BOND
     1     8     6    1
     2     6     5    1
     3     1     2    1
     4     5     2    1
     5     5     7    1
     6     2     3    1
     7   112   113    1
     8   117   119    1
     9   117   116    1
    10   113   116    1
    11   113   114    1
    12   116   118    1
    13     3     4    2
    14     3     9   am
    15    41    40    1
    16    32    33    1
    17    32    29    1
    18    33    34    1
    19     9    10    1
    20   114   115    2
    21    29    28    1
    22    29    30    1
    23   110   109    2
    24    35    36    1
    25    40    42    1
    26    40    39    1
    27    34    28    1
    28    28    22   am
    29    18    16   ar
    30    18    19   ar
    31    39    36    1
    32    23    22    2
    33    36    37    1
    34    30    31    2
    35    16    14   ar
    36   109   108    1
    37   109   111   am
    38    22    21    1
    39    10    11    1
    40    10    13    1
    41   103   102    1
    42   108   105    1
    43    19    17   ar
    44    11    12    2
    45   101   102   ar
    46   101    99   ar
    47    14    13    1
    48    14    15   ar
    49    20    21    1
    50   105   106    1
    51   105   104    1
    52    21    24    1
    53   102   100   ar
    54    17    15   ar
    55   106   107    2
    56    37    38    2
    57    99    97   ar
    58    95    94    2
    59   104    94   am
    60   100    98   ar
    61    24    25    1
    62    94    93    1
    63    97    98   ar
    64    97    96    1
    65    90    89    2
    66    70    68   ar
    67    50    52   ar
    68    50    48   ar
    69    27    25    1
    70    47    48    1
    71    47    44    1
    72    91    88    1
    73    25    26    1
    74    43    44    1
    75    52    53   ar
    76    67    68    1
    77    67    64    1
    78    48    49   ar
    79    96    93    1
    80    68    69   ar
    81    89    88    1
    82    88    87    1
    83    93    92    1
    84    44    45    1
    85    78    77    1
    86    53    54    1
    87    53    51   ar
    88    77    76    1
    89    49    51   ar
    90    64    65    1
    91    64    63    1
    92    65    66    2
    93    87    81   am
    94    45    46    2
    95    76    75    1
    96    82    81    2
    97    58    57    2
    98    63    57   am
    99    74    73    2
   100    81    80    1
   101    57    56    1
   102    73    72    1
   103    75    72    1
   104    72    71    1
   105    80    83    1
   106    80    79    1
   107    83    84    1
   108    56    55    1
   109    56    59    1
   110    59    60    1
   111    60    61    1
   112    84    86   am
   113    84    85    2
   114    61    62    1
