@<TRIPOS>MOLECULE
tmp/4q0nG00.pdb
 130 125 0 0 0
SMALL
GASTEIGER

@<TRIPOS>ATOM
      1  N         11.5830   10.0550  103.6900 N.3    31  ILE31      -0.1231
      2  CA        11.1230    8.7590  104.1740 C.3    31  ILE31       0.1692
      3  C         10.6040    8.8490  105.6200 C.2    31  ILE31       0.2592
      4  O          9.7880    8.0030  106.0340 O.2    31  ILE31      -0.2718
      5  CB        12.2390    7.6800  104.0430 C.3    31  ILE31       0.0266
      6  CG1       11.6270    6.2750  104.0390 C.3    31  ILE31       0.0019
      7  CG2       13.3290    7.8430  105.0960 C.3    31  ILE31       0.0020
      8  CD1       11.0240    5.9210  102.6980 C.3    31  ILE31       0.0001
      9  N         11.0690    9.8520  106.3890 N.am   32  PHE32      -0.1976
     10  CA        10.7470    9.9140  107.8250 C.3    32  PHE32       0.1639
     11  C          9.4720   10.6850  108.1270 C.2    32  PHE32       0.2290
     12  O          8.9800   10.6730  109.2580 O.2    32  PHE32      -0.2864
     13  CB        11.9430   10.4980  108.6170 C.3    32  PHE32       0.0560
     14  CG        13.1910    9.6760  108.5030 C.ar   32  PHE32      -0.0200
     15  CD1       13.2240    8.3830  109.0170 C.ar   32  PHE32      -0.0042
     16  CD2       14.2980   10.1460  107.8150 C.ar   32  PHE32      -0.0042
     17  CE1       14.3570    7.5910  108.8900 C.ar   32  PHE32      -0.0003
     18  CE2       15.4340    9.3600  107.6560 C.ar   32  PHE32      -0.0003
     19  CZ        15.4700    8.0800  108.2020 C.ar   32  PHE32      -0.0000
     20  N          6.3700   10.1520  107.3810 N.3    34  ARG34      -0.1231
     21  CA         5.3060    9.3550  107.9050 C.3    34  ARG34       0.1694
     22  C          5.6480    7.9050  107.7210 C.2    34  ARG34       0.2592
     23  O          5.9990    7.4780  106.6340 O.2    34  ARG34      -0.2718
     24  CB         3.9760    9.6980  107.2140 C.3    34  ARG34       0.0321
     25  CG         2.7650    9.1530  107.9200 C.3    34  ARG34       0.0489
     26  CD         2.3200   10.0640  109.0560 C.3    34  ARG34       0.2205
     27  NE         1.0230    9.6180  109.5730 N.pl3  34  ARG34      -0.0865
     28  CZ         0.8580    8.7370  110.5410 C.cat  34  ARG34       0.5346
     29  NH1        1.9060    8.1750  111.1120 N.pl3  34  ARG34       0.1354
     30  NH2       -0.3580    8.3940  110.9320 N.pl3  34  ARG34       0.1354
     31  N          5.5640    7.1440  108.7910 N.am   35  LEU35      -0.1966
     32  CA         5.6630    5.6910  108.6810 C.3    35  LEU35       0.1713
     33  C          4.5440    5.1530  107.7880 C.2    35  LEU35       0.2458
     34  O          3.4430    5.6860  107.8390 O.2    35  LEU35      -0.2730
     35  CB         5.5130    5.0600  110.0600 C.3    35  LEU35       0.0310
     36  CG         6.7290    4.9730  110.9410 C.3    35  LEU35       0.0022
     37  CD1        6.2870    4.7140  112.3940 C.3    35  LEU35       0.0001
     38  CD2        7.7240    3.9000  110.4380 C.3    35  LEU35       0.0001
     39  N          4.8010    4.0340  107.0320 N.am   36  PRO36      -0.2727
     40  CA         3.6980    3.3230  106.4090 C.3    36  PRO36       0.1402
     41  C          2.7180    2.8590  107.5000 C.2    36  PRO36       0.2269
     42  O          3.1220    2.6950  108.6590 O.2    36  PRO36      -0.2865
     43  CB         4.3730    2.1520  105.7130 C.3    36  PRO36       0.0296
     44  CG         5.8240    2.5620  105.5710 C.3    36  PRO36       0.0237
     45  CD         6.0780    3.3380  106.8050 C.3    36  PRO36       0.0939
     46  N          2.9920   -1.9950  106.2730 N.3    41  LEU41      -0.1245
     47  CA         4.3000   -2.5890  106.6330 C.3    41  LEU41       0.1561
     48  C          4.1890   -3.2390  107.9930 C.2    41  LEU41       0.2260
     49  O          4.7130   -2.6990  108.9910 O.2    41  LEU41      -0.2867
     50  CB         5.3690   -1.4720  106.6190 C.3    41  LEU41       0.0270
     51  CG         6.8480   -1.8740  106.5890 C.3    41  LEU41       0.0019
     52  CD1        7.2120   -2.5140  105.2450 C.3    41  LEU41       0.0001
     53  CD2        7.7250   -0.6900  106.9300 C.3    41  LEU41       0.0001
     54  N          7.1610   -3.9580  110.5660 N.3    44  TYR44      -0.1241
     55  CA         7.7780   -2.8360  111.3120 C.3    44  TYR44       0.1605
     56  C          7.2610   -2.7630  112.7380 C.2    44  TYR44       0.2264
     57  O          8.0040   -2.5680  113.6880 O.2    44  TYR44      -0.2867
     58  CB         7.4640   -1.5080  110.6130 C.3    44  TYR44       0.0534
     59  CG         8.2220   -0.3530  111.1750 C.ar   44  TYR44      -0.0201
     60  CD1        7.7350    0.3830  112.2370 C.ar   44  TYR44      -0.0009
     61  CD2        9.4680    0.0100  110.6340 C.ar   44  TYR44      -0.0009
     62  CE1        8.4570    1.4200  112.7620 C.ar   44  TYR44       0.0417
     63  CE2       10.1920    1.0640  111.1590 C.ar   44  TYR44       0.0417
     64  CZ         9.7090    1.7250  112.2520 C.ar   44  TYR44       0.1957
     65  OH        10.4060    2.8120  112.7610 O.3    44  TYR44      -0.2866
     66  N          7.4770    6.1360  115.9070 N.3    52  MET52      -0.1230
     67  CA         7.5890    7.5970  115.8610 C.3    52  MET52       0.1702
     68  C          7.8660    8.0330  114.4500 C.2    52  MET52       0.2592
     69  O          8.6700    7.3910  113.7720 O.2    52  MET52      -0.2718
     70  CB         8.7690    8.0300  116.7340 C.3    52  MET52       0.0401
     71  CG         8.9820    9.5180  116.9680 C.3    52  MET52       0.0596
     72  SD         7.5330   10.3890  117.6740 S.3    52  MET52      -0.1393
     73  CE         7.4500    9.5810  119.2670 C.3    52  MET52       0.0692
     74  N          7.2400    9.1370  113.9970 N.am   53  ASP53      -0.1974
     75  CA         7.6160    9.7290  112.6900 C.3    53  ASP53       0.1709
     76  C          7.5340   11.2440  112.8190 C.2    53  ASP53       0.2293
     77  O          7.1410   11.7610  113.8530 O.2    53  ASP53      -0.2864
     78  CB         6.7950    9.1380  111.5360 C.3    53  ASP53       0.1436
     79  CG         5.3210    9.3050  111.7200 C.2    53  ASP53       0.3671
     80  OD1        4.9290   10.2710  112.3840 O.co2  53  ASP53      -0.2456
     81  OD2        4.5600    8.4590  111.2130 O.co2  53  ASP53      -0.2456
     82  N         13.0800    8.0830  116.9450 N.3    79  MET79      -0.1245
     83  CA        12.7870    7.8130  115.5300 C.3    79  MET79       0.1570
     84  C         14.0090    7.3140  114.7600 C.2    79  MET79       0.2261
     85  O         13.9490    6.2790  114.0860 O.2    79  MET79      -0.2867
     86  CB        12.2380    9.0390  114.8480 C.3    79  MET79       0.0387
     87  CG        11.7450    8.8280  113.4440 C.3    79  MET79       0.0595
     88  SD        11.2630   10.4060  112.6660 S.3    79  MET79      -0.1393
     89  CE        12.8350   11.1740  112.4350 C.3    79  MET79       0.0692
     90  N         14.9710    3.8370  115.9940 N.3    82  ASN82      -0.1225
     91  CA        14.0680    2.9030  115.4200 C.3    82  ASN82       0.1785
     92  C         14.4420    2.5720  113.9880 C.2    82  ASN82       0.2597
     93  O         14.4430    1.3890  113.5820 O.2    82  ASN82      -0.2718
     94  CB        12.5880    3.4300  115.4420 C.3    82  ASN82       0.1169
     95  CG        11.9890    3.4630  116.8320 C.2    82  ASN82       0.2627
     96  OD1       12.4720    2.8000  117.7850 O.2    82  ASN82      -0.2716
     97  ND2       10.9340    4.1770  116.9600 N.am   82  ASN82      -0.0877
     98  N         14.6710    3.6160  113.1840 N.am   83  ALA83      -0.1979
     99  CA        15.0600    3.3660  111.7880 C.3    83  ALA83       0.1597
    100  C         16.3470    2.5250  111.6490 C.2    83  ALA83       0.2287
    101  O         16.4670    1.6640  110.7600 O.2    83  ALA83      -0.2864
    102  CB        15.1960    4.6850  111.0750 C.3    83  ALA83       0.0319
    103  N         15.4000   -1.2420  112.4970 N.3    86  TYR86      -0.1227
    104  CA        14.5650   -1.9240  111.5360 C.3    86  TYR86       0.1736
    105  C         15.3460   -2.1650  110.2700 C.2    86  TYR86       0.2595
    106  O         15.2530   -3.2460  109.7030 O.2    86  TYR86      -0.2718
    107  CB        13.3240   -1.0950  111.2340 C.3    86  TYR86       0.0548
    108  CG        12.4430   -1.7540  110.1960 C.ar   86  TYR86      -0.0200
    109  CD1       11.6830   -2.8760  110.5290 C.ar   86  TYR86      -0.0009
    110  CD2       12.4440   -1.3230  108.8870 C.ar   86  TYR86      -0.0009
    111  CE1       10.8530   -3.4860  109.5840 C.ar   86  TYR86       0.0417
    112  CE2       11.6670   -1.9390  107.9340 C.ar   86  TYR86       0.0417
    113  CZ        10.8590   -3.0070  108.2780 C.ar   86  TYR86       0.1957
    114  OH        10.0590   -3.6360  107.2810 O.3    86  TYR86      -0.2866
    115  N         16.0470   -1.1430  109.7850 N.am   87  ASN87      -0.1974
    116  CA        16.7720   -1.2060  108.4890 C.3    87  ASN87       0.1688
    117  C         18.2050   -1.6270  108.6810 C.2    87  ASN87       0.2292
    118  O         18.7830   -1.4160  109.7770 O.2    87  ASN87      -0.2864
    119  CB        16.7790    0.1530  107.8040 C.3    87  ASN87       0.1181
    120  CG        15.3680    0.6530  107.5610 C.2    87  ASN87       0.2629
    121  OD1       14.6810    0.1860  106.6230 O.2    87  ASN87      -0.2716
    122  ND2       14.9040    1.5730  108.4180 N.am   87  ASN87      -0.0877
    123  N         18.2650    4.3180  104.0420 N.3    93  ILE93      -0.1245
    124  CA        17.4560    4.8150  105.1690 C.3    93  ILE93       0.1561
    125  C         18.2730    4.8660  106.4640 C.2    93  ILE93       0.2260
    126  O         18.2730    5.8850  107.1690 O.2    93  ILE93      -0.2867
    127  CB        16.1770    3.9830  105.3980 C.3    93  ILE93       0.0252
    128  CG1       15.2480    4.0240  104.1470 C.3    93  ILE93       0.0019
    129  CG2       15.3840    4.5320  106.5810 C.3    93  ILE93       0.0019
    130  CD1       14.2100    2.9130  104.1090 C.3    93  ILE93       0.0001
@<TRIPOS>BOND
     1     8     6    1
     2     1     2    1
     3     6     5    1
     4   123   124    1
     5     5     2    1
     6     5     7    1
     7   130   128    1
     8   128   127    1
     9     2     3    1
    10   124   127    1
    11   124   125    1
    12    52    51    1
    13   127   129    1
    14    44    43    1
    15    44    45    1
    16     3     4    2
    17     3     9   am
    18    43    40    1
    19    46    47    1
    20     9    10    1
    21    40    39    1
    22    40    41    1
    23   125   126    2
    24    51    50    1
    25    51    53    1
    26    50    47    1
    27   121   120    2
    28    47    48    1
    29    23    22    2
    30    45    39    1
    31    39    33   am
    32    24    21    1
    33    24    25    1
    34   114   113    1
    35    20    21    1
    36    41    42    2
    37   120   119    1
    38   120   122   am
    39    18    16   ar
    40    18    19   ar
    41    22    21    1
    42    22    31   am
    43    33    34    2
    44    33    32    1
    45   119   116    1
    46    16    14   ar
    47    10    11    1
    48    10    13    1
    49    25    26    1
    50   112   113   ar
    51   112   110   ar
    52    48    49    2
    53    11    12    2
    54    19    17   ar
    55   113   111   ar
    56   116   117    1
    57   116   115    1
    58    14    13    1
    59    14    15   ar
    60    32    31    1
    61    32    35    1
    62   117   118    2
    63   110   108   ar
    64    17    15   ar
    65    26    27    1
    66    27    28    2
    67   111   109   ar
    68   106   105    2
    69   115   105   am
    70    35    36    1
    71   108   109   ar
    72   108   107    1
    73   105   104    1
    74    38    36    1
    75    28    30    1
    76    28    29    1
    77    54    55    1
    78    58    59    1
    79    58    55    1
    80    61    63   ar
    81    61    59   ar
    82   101   100    2
    83    36    37    1
    84   102    99    1
    85    63    64   ar
    86    59    60   ar
    87    81    79   ar
    88   107   104    1
    89    55    56    1
    90    78    79    1
    91    78    75    1
    92   104   103    1
    93   100    99    1
    94    79    80   ar
    95    99    98    1
    96    60    62   ar
    97    64    65    1
    98    64    62   ar
    99    89    88    1
   100    88    87    1
   101    75    76    1
   102    75    74    1
   103    56    57    2
   104    76    77    2
   105    98    92   am
   106    87    86    1
   107    93    92    2
   108    69    68    2
   109    92    91    1
   110    74    68   am
   111    85    84    2
   112    68    67    1
   113    84    83    1
   114    86    83    1
   115    91    94    1
   116    91    90    1
   117    94    95    1
   118    83    82    1
   119    67    66    1
   120    67    70    1
   121    70    71    1
   122    95    97   am
   123    95    96    2
   124    71    72    1
   125    72    73    1
