@<TRIPOS>MOLECULE
tmp/4q0oA00.pdb
 122 117 0 0 0
SMALL
GASTEIGER

@<TRIPOS>ATOM
      1  N         -2.6510  -23.9160   -9.0530 N.3    32  ILE32      -0.1231
      2  CA        -3.1590  -25.0340   -9.8690 C.3    32  ILE32       0.1692
      3  C         -4.6840  -25.0080   -9.9580 C.2    32  ILE32       0.2592
      4  O         -5.2850  -25.6260  -10.8320 O.2    32  ILE32      -0.2718
      5  CB        -2.6380  -26.4080   -9.3030 C.3    32  ILE32       0.0266
      6  CG1       -2.5370  -27.4510  -10.4230 C.3    32  ILE32       0.0019
      7  CG2       -3.4920  -26.9360   -8.1440 C.3    32  ILE32       0.0020
      8  CD1       -1.6070  -28.5990  -10.1000 C.3    32  ILE32       0.0001
      9  N         -5.2990  -24.2250   -9.0880 N.am   33  PHE33      -0.1976
     10  CA        -6.7730  -24.1540   -8.9440 C.3    33  PHE33       0.1639
     11  C         -7.3730  -23.0230   -9.7560 C.2    33  PHE33       0.2290
     12  O         -8.6080  -22.9360   -9.9030 O.2    33  PHE33      -0.2864
     13  CB        -7.2250  -24.0250   -7.4760 C.3    33  PHE33       0.0560
     14  CG        -6.9040  -25.2250   -6.6460 C.ar   33  PHE33      -0.0200
     15  CD1       -7.6260  -26.3920   -6.7590 C.ar   33  PHE33      -0.0042
     16  CD2       -5.8610  -25.1850   -5.7260 C.ar   33  PHE33      -0.0042
     17  CE1       -7.3080  -27.4720   -5.9930 C.ar   33  PHE33      -0.0003
     18  CE2       -5.5030  -26.2920   -4.9850 C.ar   33  PHE33      -0.0003
     19  CZ        -6.2460  -27.4310   -5.1150 C.ar   33  PHE33      -0.0000
     20  N         -7.2730  -22.3060  -13.0770 N.3    35  ARG35      -0.1231
     21  CA        -7.8720  -22.7430  -14.3190 C.3    35  ARG35       0.1694
     22  C         -7.7100  -24.2590  -14.5170 C.2    35  ARG35       0.2592
     23  O         -6.5950  -24.8070  -14.6060 O.2    35  ARG35      -0.2718
     24  CB        -7.2280  -21.9700  -15.4840 C.3    35  ARG35       0.0321
     25  CG        -7.9910  -22.0760  -16.7740 C.3    35  ARG35       0.0489
     26  CD        -9.3550  -21.3560  -16.7760 C.3    35  ARG35       0.2205
     27  NE       -10.0140  -21.5790  -18.0590 N.pl3  35  ARG35      -0.0865
     28  CZ       -10.9920  -22.4420  -18.3400 C.cat  35  ARG35       0.5346
     29  NH1      -11.5370  -23.2500  -17.4260 N.pl3  35  ARG35       0.1354
     30  NH2      -11.4490  -22.4880  -19.5940 N.pl3  35  ARG35       0.1354
     31  N         -8.8370  -24.9560  -14.5350 N.am   36  LEU36      -0.1966
     32  CA        -8.8570  -26.3580  -14.7150 C.3    36  LEU36       0.1713
     33  C         -8.4080  -26.6310  -16.1600 C.2    36  LEU36       0.2458
     34  O         -8.7630  -25.8620  -17.0690 O.2    36  LEU36      -0.2730
     35  CB       -10.2730  -26.8580  -14.5090 C.3    36  LEU36       0.0310
     36  CG       -10.5250  -28.3560  -14.5310 C.3    36  LEU36       0.0022
     37  CD1       -9.8250  -29.0550  -13.3660 C.3    36  LEU36       0.0001
     38  CD2      -12.0330  -28.5630  -14.4160 C.3    36  LEU36       0.0001
     39  N         -7.5710  -27.6680  -16.3540 N.am   37  PRO37      -0.2727
     40  CA        -7.2510  -28.0880  -17.7100 C.3    37  PRO37       0.1402
     41  C         -8.4740  -28.5300  -18.5080 C.2    37  PRO37       0.2269
     42  O         -9.5780  -28.7460  -17.9430 O.2    37  PRO37      -0.2865
     43  CB        -6.2710  -29.2710  -17.4870 C.3    37  PRO37       0.0296
     44  CG        -5.6390  -28.9770  -16.1680 C.3    37  PRO37       0.0237
     45  CD        -6.7830  -28.4200  -15.3510 C.3    37  PRO37       0.0939
     46  N         -7.5390  -33.5840  -19.5850 N.3    42  LEU42      -0.1245
     47  CA        -7.8430  -34.4470  -18.4600 C.3    42  LEU42       0.1561
     48  C         -9.2220  -35.0880  -18.7350 C.2    42  LEU42       0.2260
     49  O        -10.2000  -34.7200  -18.0910 O.2    42  LEU42      -0.2867
     50  CB        -7.9150  -33.6490  -17.1240 C.3    42  LEU42       0.0270
     51  CG        -6.6840  -33.0400  -16.4540 C.3    42  LEU42       0.0019
     52  CD1       -7.1620  -32.2460  -15.2130 C.3    42  LEU42       0.0001
     53  CD2       -5.6660  -34.0970  -16.0940 C.3    42  LEU42       0.0001
     54  N        -11.2580  -36.5700  -15.7770 N.3    45  TYR45      -0.1241
     55  CA       -11.7710  -35.5740  -14.8500 C.3    45  TYR45       0.1605
     56  C        -13.1830  -35.2190  -15.1710 C.2    45  TYR45       0.2264
     57  O        -14.0480  -35.2470  -14.3350 O.2    45  TYR45      -0.2867
     58  CB       -10.8770  -34.3010  -14.8560 C.3    45  TYR45       0.0534
     59  CG       -11.1180  -33.4080  -13.7150 C.ar   45  TYR45      -0.0201
     60  CD1      -10.2690  -33.4060  -12.6210 C.ar   45  TYR45      -0.0009
     61  CD2      -12.2130  -32.5490  -13.7030 C.ar   45  TYR45      -0.0009
     62  CE1      -10.5020  -32.5840  -11.5250 C.ar   45  TYR45       0.0417
     63  CE2      -12.4710  -31.7380  -12.6290 C.ar   45  TYR45       0.0417
     64  CZ       -11.6310  -31.7620  -11.5290 C.ar   45  TYR45       0.1957
     65  OH       -11.9510  -30.9160  -10.5270 O.3    45  TYR45      -0.2866
     66  N        -15.2390  -26.9200  -11.5860 N.3    53  MET53      -0.1230
     67  CA       -15.1750  -25.5740  -11.0330 C.3    53  MET53       0.1702
     68  C        -13.7110  -25.1600  -10.8960 C.2    53  MET53       0.2592
     69  O        -12.8810  -25.9610  -10.5270 O.2    53  MET53      -0.2718
     70  CB       -15.8070  -25.5650   -9.6420 C.3    53  MET53       0.0401
     71  CG       -15.9150  -24.1950   -8.9540 C.3    53  MET53       0.0596
     72  SD       -16.8820  -22.9630   -9.8490 S.3    53  MET53      -0.1393
     73  CE       -18.4710  -23.8600   -9.9720 C.3    53  MET53       0.0692
     74  N        -13.4190  -23.9150  -11.2200 N.am   54  ASP54      -0.1974
     75  CA       -12.0870  -23.3720  -10.9630 C.3    54  ASP54       0.1709
     76  C        -12.2050  -21.9640  -10.4430 C.2    54  ASP54       0.2293
     77  O        -13.3150  -21.3580  -10.4150 O.2    54  ASP54      -0.2864
     78  CB       -11.1360  -23.5570  -12.1560 C.3    54  ASP54       0.1436
     79  CG       -11.5800  -22.8810  -13.4120 C.2    54  ASP54       0.3671
     80  OD1      -12.2820  -21.8490  -13.3160 O.co2  54  ASP54      -0.2456
     81  OD2      -11.1920  -23.3780  -14.5200 O.co2  54  ASP54      -0.2456
     82  N        -15.3510  -26.8670   -5.6130 N.3    80  MET80      -0.1245
     83  CA       -14.0420  -27.0570   -6.2070 C.3    80  MET80       0.1570
     84  C        -13.1370  -27.9540   -5.3450 C.2    80  MET80       0.2261
     85  O        -12.4250  -28.7920   -5.8770 O.2    80  MET80      -0.2867
     86  CB       -13.3830  -25.6690   -6.4460 C.3    80  MET80       0.0387
     87  CG       -12.0480  -25.6960   -7.1860 C.3    80  MET80       0.0595
     88  SD       -11.3170  -24.0270   -7.3230 S.3    80  MET80      -0.1393
     89  CE       -10.8100  -23.8030   -5.6280 C.3    80  MET80       0.0692
     90  N        -11.5400  -31.5440   -6.1110 N.3    84  ALA84      -0.1245
     91  CA       -10.1480  -31.8920   -6.0750 C.3    84  ALA84       0.1562
     92  C         -9.8760  -33.1310   -5.1870 C.2    84  ALA84       0.2260
     93  O         -9.0270  -33.9630   -5.5100 O.2    84  ALA84      -0.2867
     94  CB        -9.3400  -30.6940   -5.5820 C.3    84  ALA84       0.0290
     95  N        -11.1320  -36.3210   -7.1880 N.3    87  TYR87      -0.1227
     96  CA       -10.3130  -36.7840   -8.2870 C.3    87  TYR87       0.1736
     97  C         -8.9430  -37.2950   -7.8760 C.2    87  TYR87       0.2595
     98  O         -8.4430  -38.2910   -8.4060 O.2    87  TYR87      -0.2718
     99  CB       -10.1180  -35.5940   -9.2620 C.3    87  TYR87       0.0548
    100  CG        -9.3610  -35.9850  -10.4960 C.ar   87  TYR87      -0.0200
    101  CD1       -9.9680  -36.7700  -11.4770 C.ar   87  TYR87      -0.0009
    102  CD2       -8.0370  -35.6190  -10.6810 C.ar   87  TYR87      -0.0009
    103  CE1       -9.2970  -37.1150  -12.6070 C.ar   87  TYR87       0.0417
    104  CE2       -7.3410  -35.9820  -11.8200 C.ar   87  TYR87       0.0417
    105  CZ        -7.9900  -36.7330  -12.7750 C.ar   87  TYR87       0.1957
    106  OH        -7.3440  -37.0980  -13.9020 O.3    87  TYR87      -0.2866
    107  N         -8.2880  -36.5640   -6.9620 N.am   88  ASN88      -0.1974
    108  CA        -6.9210  -36.8330   -6.5880 C.3    88  ASN88       0.1688
    109  C         -6.9250  -37.7180   -5.3250 C.2    88  ASN88       0.2292
    110  O         -7.8800  -37.6380   -4.5050 O.2    88  ASN88      -0.2864
    111  CB        -6.1910  -35.5140   -6.3150 C.3    88  ASN88       0.1181
    112  CG        -6.2250  -34.5920   -7.5210 C.2    88  ASN88       0.2629
    113  OD1       -5.5040  -34.8280   -8.4880 O.2    88  ASN88      -0.2716
    114  ND2       -7.1500  -33.6320   -7.5370 N.am   88  ASN88      -0.0877
    115  N         -1.9420  -32.0010   -4.2200 N.3    94  ILE94      -0.1245
    116  CA        -3.1280  -31.2350   -4.6090 C.3    94  ILE94       0.1561
    117  C         -4.2770  -31.4310   -3.6020 C.2    94  ILE94       0.2260
    118  O         -4.9750  -30.4870   -3.2700 O.2    94  ILE94      -0.2867
    119  CB        -3.5560  -31.4730   -6.0620 C.3    94  ILE94       0.0252
    120  CG1       -4.6380  -30.4820   -6.4820 C.3    94  ILE94       0.0019
    121  CG2       -4.0460  -32.8880   -6.2870 C.3    94  ILE94       0.0019
    122  CD1       -4.9910  -30.5530   -7.9670 C.3    94  ILE94       0.0001
@<TRIPOS>BOND
     1    30    28    1
     2    46    47    1
     3    48    47    1
     4    48    49    2
     5    41    42    2
     6    41    40    1
     7    47    50    1
     8    28    27    2
     9    28    29    1
    10    27    26    1
    11    40    43    1
    12    40    39    1
    13    43    44    1
    14    50    51    1
    15    34    33    2
    16    26    25    1
    17    25    24    1
    18    51    53    1
    19    51    52    1
    20    39    33   am
    21    39    45    1
    22    44    45    1
    23    33    32    1
    24    54    55    1
    25    24    21    1
    26    56    55    1
    27    56    57    2
    28    58    55    1
    29    58    59    1
    30    32    31    1
    31    32    35    1
    32    23    22    2
    33    31    22   am
    34    36    35    1
    35    36    38    1
    36    36    37    1
    37    81    79   ar
    38    22    21    1
    39    21    20    1
    40   106   105    1
    41    59    61   ar
    42    59    60   ar
    43    61    63   ar
    44    79    80   ar
    45    79    78    1
    46   105   103   ar
    47   105   104   ar
    48    63    64   ar
    49    60    62   ar
    50   103   101   ar
    51    78    75    1
    52   104   102   ar
    53    66    67    1
    54    64    62   ar
    55    64    65    1
    56   101   100   ar
    57    74    75    1
    58    74    68   am
    59    67    68    1
    60    67    70    1
    61    75    76    1
    62    68    69    2
    63     4     3    2
    64   102   100   ar
    65   100    99    1
    66    76    77    2
    67     6     8    1
    68     6     5    1
    69    73    72    1
    70     3     2    1
    71     3     9   am
    72    12    11    2
    73     2     5    1
    74     2     1    1
    75    72    71    1
    76    11    10    1
    77    70    71    1
    78     5     7    1
    79    99    96    1
    80     9    10    1
    81    10    13    1
    82   113   112    2
    83    98    97    2
    84    96    97    1
    85    96    95    1
    86   122   120    1
    87    97   107   am
    88   114   112   am
    89   112   111    1
    90    13    14    1
    91    88    87    1
    92    88    89    1
    93    87    86    1
    94   107   108    1
    95    15    14   ar
    96    15    17   ar
    97    14    16   ar
    98   108   111    1
    99   108   109    1
   100   120   119    1
   101    86    83    1
   102   121   119    1
   103    83    82    1
   104    83    84    1
   105    90    91    1
   106    91    94    1
   107    91    92    1
   108   119   116    1
   109    17    19   ar
   110    85    84    2
   111    16    18   ar
   112    93    92    2
   113   109   110    2
   114    19    18   ar
   115   116   115    1
   116   116   117    1
   117   117   118    2
