@<TRIPOS>MOLECULE
tmp/4q0pA00.pdb
 168 154 0 0 0
SMALL
GASTEIGER

@<TRIPOS>ATOM
      1  N         18.8890    9.5380    5.3680 N.3    42  PHE42      -0.1241
      2  CA        18.3870    8.1730    5.1990 C.3    42  PHE42       0.1605
      3  C         17.8010    7.8410    3.8300 C.2    42  PHE42       0.2264
      4  O         16.5890    7.6970    3.6880 O.2    42  PHE42      -0.2867
      5  CB        17.3410    7.8560    6.2770 C.3    42  PHE42       0.0534
      6  CG        17.8300    8.0620    7.6880 C.ar   42  PHE42      -0.0203
      7  CD1       17.7490    9.3150    8.2910 C.ar   42  PHE42      -0.0042
      8  CD2       18.3780    7.0080    8.4090 C.ar   42  PHE42      -0.0042
      9  CE1       18.2070    9.5120    9.5940 C.ar   42  PHE42      -0.0003
     10  CE2       18.8400    7.1950    9.7130 C.ar   42  PHE42      -0.0003
     11  CZ        18.7530    8.4470   10.3030 C.ar   42  PHE42      -0.0000
     12  N         19.3380   13.6360    9.9760 N.3    63  MET63      -0.1245
     13  CA        19.6750   14.1220   11.3030 C.3    63  MET63       0.1570
     14  C         21.1740   14.1240   11.5100 C.2    63  MET63       0.2261
     15  O         21.9340   13.6010   10.6940 O.2    63  MET63      -0.2867
     16  CB        19.0480   13.2250   12.3670 C.3    63  MET63       0.0387
     17  CG        19.7770   11.8990   12.5340 C.3    63  MET63       0.0595
     18  SD        18.8560   10.7500   13.5640 S.3    63  MET63      -0.1393
     19  CE        18.9470   11.5840   15.1440 C.3    63  MET63       0.0692
     20  N         24.2000   13.3070   14.4700 N.3    65  ILE65      -0.1245
     21  CA        24.4660   12.6120   15.7130 C.3    65  ILE65       0.1561
     22  C         25.9330   12.7740   16.0970 C.2    65  ILE65       0.2260
     23  O         26.8260   12.5050   15.2910 O.2    65  ILE65      -0.2867
     24  CB        24.1580   11.1030   15.6060 C.3    65  ILE65       0.0252
     25  CG1       22.6580   10.8920   15.3620 C.3    65  ILE65       0.0019
     26  CG2       24.6130   10.3910   16.8760 C.3    65  ILE65       0.0019
     27  CD1       22.2300    9.4290   15.3010 C.3    65  ILE65       0.0001
     28  N         28.3370   11.3500   18.8260 N.3    67  GLU67      -0.1245
     29  CA        28.4780   10.3060   19.8270 C.3    67  GLU67       0.1567
     30  C         29.7050   10.5050   20.7080 C.2    67  GLU67       0.2260
     31  O         30.8360   10.4570   20.2220 O.2    67  GLU67      -0.2867
     32  CB        28.5450    8.9570   19.1070 C.3    67  GLU67       0.0388
     33  CG        28.7780    7.7520   19.9740 C.3    67  GLU67       0.1160
     34  CD        28.9090    6.4880   19.1390 C.2    67  GLU67       0.3649
     35  OE1       27.8830    6.0390   18.5840 O.co2  67  GLU67      -0.2457
     36  OE2       30.0390    5.9580   19.0280 O.co2  67  GLU67      -0.2457
     37  N         25.9820    3.9270   25.5370 N.3    91  CYS91      -0.1235
     38  CA        26.1490    4.8230   24.4010 C.3    91  CYS91       0.1677
     39  C         25.4870    6.1690   24.7070 C.2    91  CYS91       0.2270
     40  O         24.2820    6.2380   24.9680 O.2    91  CYS91      -0.2867
     41  CB        25.5440    4.1920   23.1450 C.3    91  CYS91       0.0956
     42  SG        25.6790    5.1940   21.6450 S.3    91  CYS91      -0.0801
     43  N         24.9930   10.0820   23.2520 N.3    93  LYS93      -0.1245
     44  CA        25.1250   10.8890   22.0490 C.3    93  LYS93       0.1561
     45  C         24.1590   12.0510   22.0700 C.2    93  LYS93       0.2260
     46  O         23.1440   12.0250   22.7740 O.2    93  LYS93      -0.2867
     47  CB        24.8480   10.0490   20.8050 C.3    93  LYS93       0.0271
     48  CG        23.3660    9.7010   20.6010 C.3    93  LYS93       0.0035
     49  CD        23.1460    8.1850   20.5500 C.3    93  LYS93       0.0206
     50  CE        23.4090    7.5300   21.9000 C.3    93  LYS93       0.1093
     51  NZ        23.0760    6.0680   21.8880 N.3    93  LYS93      -0.1314
     52  N         21.7850   14.3130   19.5950 N.3    95  MET95      -0.1245
     53  CA        21.1740   14.2200   18.2720 C.3    95  MET95       0.1570
     54  C         20.4990   15.5390   17.9330 C.2    95  MET95       0.2261
     55  O         19.8170   16.1290   18.7680 O.2    95  MET95      -0.2867
     56  CB        20.1590   13.0630   18.2320 C.3    95  MET95       0.0387
     57  CG        20.7720   11.7050   18.5740 C.3    95  MET95       0.0595
     58  SD        19.6190   10.2930   18.5230 S.3    95  MET95      -0.1393
     59  CE        18.3500   10.8710   19.6460 C.3    95  MET95       0.0692
     60  N         13.8640   11.2340   12.4040 N.3   103  CYS103     -0.1235
     61  CA        14.8010   10.1430   12.6180 C.3   103  CYS103      0.1677
     62  C         13.6960    9.1260   12.2700 C.2   103  CYS103      0.2270
     63  O         12.7650    8.9280   13.0600 O.2   103  CYS103     -0.2867
     64  CB        15.1960    9.9890   14.0840 C.3   103  CYS103      0.0956
     65  SG        16.1610    8.4740   14.3760 S.3   103  CYS103     -0.0801
     66  N         12.0350    2.8070   12.9170 N.3   106  HIS106     -0.1241
     67  CA        13.0060    1.7320   13.0230 C.3   106  HIS106      0.1621
     68  C         12.9110    1.0850   14.3960 C.2   106  HIS106      0.2264
     69  O         12.1910    1.5690   15.2680 O.2   106  HIS106     -0.2867
     70  CB        14.4250    2.2820   12.8290 C.3   106  HIS106      0.0745
     71  CG        14.8770    3.1900   13.9340 C.ar  106  HIS106      0.0817
     72  ND1       14.4090    4.4790   14.0820 N.ar  106  HIS106     -0.2268
     73  CD2       15.7320    2.9830   14.9630 C.ar  106  HIS106      0.1154
     74  CE1       14.9550    5.0250   15.1540 C.ar  106  HIS106      0.1986
     75  NE2       15.7630    4.1390   15.7060 N.ar  106  HIS106     -0.2212
     76  N         15.3080   -1.7140   17.2890 N.3   108  HIS108     -0.1241
     77  CA        16.5560   -2.3920   17.5920 C.3   108  HIS108      0.1621
     78  C         16.2210   -3.6650   18.3470 C.2   108  HIS108      0.2264
     79  O         15.3140   -3.6820   19.1780 O.2   108  HIS108     -0.2867
     80  CB        17.4400   -1.5110   18.4770 C.3   108  HIS108      0.0745
     81  CG        17.5230   -0.0890   18.0190 C.ar  108  HIS108      0.0817
     82  ND1       18.2190    0.2930   16.8910 N.ar  108  HIS108     -0.2268
     83  CD2       16.9670    1.0400   18.5180 C.ar  108  HIS108      0.1154
     84  CE1       18.0880    1.5950   16.7160 C.ar  108  HIS108      0.1986
     85  NE2       17.3330    2.0740   17.6900 N.ar  108  HIS108     -0.2212
     86  N         19.3840   -2.7630   21.4280 N.3   111  LYS111     -0.1245
     87  CA        19.4580   -1.4490   22.0570 C.3   111  LYS111      0.1561
     88  C         18.1970   -0.8430   22.6570 C.2   111  LYS111      0.2260
     89  O         17.1690   -0.7010   21.9860 O.2   111  LYS111     -0.2867
     90  CB        20.0620   -0.4440   21.0730 C.3   111  LYS111      0.0271
     91  CG        20.2870    0.9370   21.6610 C.3   111  LYS111      0.0035
     92  CD        21.1350    1.7980   20.7390 C.3   111  LYS111      0.0206
     93  CE        20.4150    2.0800   19.4370 C.3   111  LYS111      0.1093
     94  NZ        21.2960    2.7920   18.4760 N.3   111  LYS111     -0.1314
     95  N         16.9320    2.5960   24.5230 N.3   113  GLU113     -0.1245
     96  CA        17.3160    4.0080   24.5890 C.3   113  GLU113      0.1567
     97  C         16.5120    4.8130   25.6060 C.2   113  GLU113      0.2260
     98  O         15.4770    4.3680   26.1030 O.2   113  GLU113     -0.2867
     99  CB        17.1160    4.6750   23.2190 C.3   113  GLU113      0.0388
    100  CG        17.3690    3.7800   22.0180 C.3   113  GLU113      0.1160
    101  CD        16.9340    4.4020   20.6860 C.2   113  GLU113      0.3649
    102  OE1       16.0020    5.2400   20.6640 O.co2 113  GLU113     -0.2457
    103  OE2       17.5210    4.0300   19.6510 O.co2 113  GLU113     -0.2457
    104  N         10.9470    9.8460   15.4840 N.3   190  PHE190     -0.1241
    105  CA        10.7270   11.1340   16.1170 C.3   190  PHE190      0.1605
    106  C         11.1100   12.2760   15.1920 C.2   190  PHE190      0.2264
    107  O         11.8950   12.1050   14.2580 O.2   190  PHE190     -0.2867
    108  CB        11.4700   11.2220   17.4650 C.3   190  PHE190      0.0534
    109  CG        12.9730   11.0750   17.3710 C.ar  190  PHE190     -0.0203
    110  CD1       13.7800   12.1800   17.1050 C.ar  190  PHE190     -0.0042
    111  CD2       13.5830    9.8400   17.5920 C.ar  190  PHE190     -0.0042
    112  CE1       15.1690   12.0570   17.0650 C.ar  190  PHE190     -0.0003
    113  CE2       14.9730    9.7080   17.5520 C.ar  190  PHE190     -0.0003
    114  CZ        15.7680   10.8210   17.2880 C.ar  190  PHE190     -0.0000
    115  N         20.7590   11.2680   24.0420 N.3   204  GLU204     -0.1245
    116  CA        20.3140    9.8970   24.1590 C.3   204  GLU204      0.1567
    117  C         21.3110    9.0820   24.9570 C.2   204  GLU204      0.2260
    118  O         22.5180    9.1280   24.7070 O.2   204  GLU204     -0.2867
    119  CB        20.1390    9.2490   22.7900 C.3   204  GLU204      0.0388
    120  CG        19.8120    7.7590   22.8890 C.3   204  GLU204      0.1160
    121  CD        19.6760    7.1040   21.5380 C.2   204  GLU204      0.3649
    122  OE1       18.7530    7.4860   20.7900 O.co2 204  GLU204     -0.2457
    123  OE2       20.4930    6.2110   21.2200 O.co2 204  GLU204     -0.2457
    124  N         25.5470    0.6540   20.8730 N.3   209  SER209     -0.1217
    125  CA        24.9790    0.8470   19.5500 C.3   209  SER209      0.1889
    126  C         25.7960    0.0820   18.5130 C.2   209  SER209      0.2288
    127  O         26.8880    0.5040   18.1310 O.2   209  SER209     -0.2866
    128  CB        24.9480    2.3390   19.2080 C.3   209  SER209      0.2089
    129  OG        24.3450    2.5630   17.9440 O.3   209  SER209     -0.2183
    130  N         26.7500   -0.7030   15.1340 N.3   211  GLU211     -0.1245
    131  CA        26.6540   -0.1060   13.8100 C.3   211  GLU211      0.1567
    132  C         27.9380   -0.2480   13.0010 C.2   211  GLU211      0.2260
    133  O         28.9000    0.4910   13.2090 O.2   211  GLU211     -0.2867
    134  CB        26.2930    1.3780   13.9310 C.3   211  GLU211      0.0388
    135  CG        24.9660    1.6350   14.6220 C.3   211  GLU211      0.1160
    136  CD        24.6830    3.1150   14.8310 C.2   211  GLU211      0.3649
    137  OE1       25.3970    3.7560   15.6350 O.co2 211  GLU211     -0.2457
    138  OE2       23.7460    3.6370   14.1880 O.co2 211  GLU211     -0.2457
    139  N         20.2720   -1.7490   13.9090 N.3   232  ASN232     -0.1240
    140  CA        19.3710   -0.6610   13.5390 C.3   232  ASN232      0.1653
    141  C         18.5170   -1.1190   12.3600 C.2   232  ASN232      0.2266
    142  O         18.9530   -1.0700   11.2130 O.2   232  ASN232     -0.2867
    143  CB        20.1470    0.6020   13.1550 C.3   232  ASN232      0.1155
    144  CG        21.0160    1.1260   14.2830 C.2   232  ASN232      0.2627
    145  OD1       20.6820    0.9920   15.4610 O.2   232  ASN232     -0.2716
    146  ND2       22.1330    1.7440   13.9240 N.am  232  ASN232     -0.0877
    147  N         15.5530   -0.3820   10.0750 N.3   234  PHE234     -0.1241
    148  CA        14.6260    0.6400    9.6050 C.3   234  PHE234      0.1605
    149  C         13.4730    0.0110    8.8300 C.2   234  PHE234      0.2264
    150  O         13.6740   -0.9250    8.0550 O.2   234  PHE234     -0.2867
    151  CB        15.3750    1.6640    8.7440 C.3   234  PHE234      0.0534
    152  CG        16.2850    2.5610    9.5390 C.ar  234  PHE234     -0.0203
    153  CD1       15.7860    3.6950   10.1690 C.ar  234  PHE234     -0.0042
    154  CD2       17.6270    2.2340    9.7140 C.ar  234  PHE234     -0.0042
    155  CE1       16.6080    4.4920   10.9700 C.ar  234  PHE234     -0.0003
    156  CE2       18.4580    3.0220   10.5130 C.ar  234  PHE234     -0.0003
    157  CZ        17.9470    4.1520   11.1420 C.ar  234  PHE234     -0.0000
    158  N         22.1280    4.9670    5.1020 N.3   243  ARG243     -0.1245
    159  CA        22.3820    5.3590    6.4820 C.3   243  ARG243      0.1563
    160  C         23.8630    5.2150    6.8440 C.2   243  ARG243      0.2260
    161  O         24.4130    6.0300    7.5880 O.2   243  ARG243     -0.2867
    162  CB        21.5230    4.5000    7.4190 C.3   243  ARG243      0.0307
    163  CG        21.3930    5.0180    8.8460 C.3   243  ARG243      0.0489
    164  CD        22.6840    4.8760    9.6390 C.3   243  ARG243      0.2205
    165  NE        22.5410    5.3860   11.0000 N.pl3 243  ARG243     -0.0865
    166  CZ        23.5310    5.4450   11.8840 C.cat 243  ARG243      0.5346
    167  NH1       23.3050    5.9260   13.0990 N.pl3 243  ARG243      0.1354
    168  NH2       24.7460    5.0280   11.5530 N.pl3 243  ARG243      0.1354
@<TRIPOS>BOND
     1     4     3    2
     2     3     2    1
     3   158   159    1
     4     2     1    1
     5     2     5    1
     6     5     6    1
     7   159   160    1
     8   159   162    1
     9   160   161    2
    10   162   163    1
    11     6     7   ar
    12     6     8   ar
    13   150   149    2
    14     7     9   ar
    15     8    10   ar
    16   151   152    1
    17   151   148    1
    18   149   148    1
    19   163   164    1
    20   152   154   ar
    21   152   153   ar
    22     9    11   ar
    23   148   147    1
    24   164   165    1
    25    10    11   ar
    26   154   156   ar
    27    12    13    1
    28   153   155   ar
    29   156   157   ar
    30    15    14    2
    31   155   157   ar
    32   165   166    2
    33   142   141    2
    34    13    14    1
    35    13    16    1
    36   168   166    1
    37   166   167    1
    38    62    61    1
    39    62    63    2
    40   141   140    1
    41    16    17    1
    42    60    61    1
    43    17    18    1
    44    61    64    1
    45    70    67    1
    46    70    71    1
    47    66    67    1
    48   132   133    2
    49   132   131    1
    50    67    68    1
    51   143   140    1
    52   143   144    1
    53   140   139    1
    54    18    19    1
    55   131   134    1
    56   131   130    1
    57   146   144   am
    58   134   135    1
    59    71    72   ar
    60    71    73   ar
    61    72    74   ar
    62    64    65    1
    63   138   136   ar
    64   107   106    2
    65   144   145    2
    66    68    69    2
    67    20    21    1
    68   135   136    1
    69   136   137   ar
    70    73    75   ar
    71    74    75   ar
    72   106   105    1
    73    23    22    2
    74    27    25    1
    75    25    24    1
    76   104   105    1
    77    24    21    1
    78    24    26    1
    79    21    22    1
    80   105   108    1
    81    84    82   ar
    82    84    85   ar
    83    82    81   ar
    84   112   110   ar
    85   112   114   ar
    86   110   109   ar
    87   114   113   ar
    88    76    77    1
    89   109   108    1
    90   109   111   ar
    91   113   111   ar
    92    77    78    1
    93    77    80    1
    94    85    83   ar
    95    54    53    1
    96    54    55    2
    97   129   128    1
    98    81    80    1
    99    81    83   ar
   100   127   126    2
   101    56    53    1
   102    56    57    1
   103    53    52    1
   104    78    79    2
   105    94    93    1
   106   126   125    1
   107    58    57    1
   108    58    59    1
   109    35    34   ar
   110    28    29    1
   111    36    34   ar
   112    32    29    1
   113    32    33    1
   114    34    33    1
   115   128   125    1
   116    93    92    1
   117   125   124    1
   118   103   101   ar
   119    29    30    1
   120    31    30    2
   121    49    48    1
   122    49    50    1
   123    48    47    1
   124   102   101   ar
   125   101   100    1
   126    92    91    1
   127   122   121   ar
   128    47    44    1
   129    90    91    1
   130    90    87    1
   131   123   121   ar
   132    86    87    1
   133   121   120    1
   134    42    41    1
   135    51    50    1
   136    89    88    2
   137   100    99    1
   138    44    45    1
   139    44    43    1
   140    87    88    1
   141    45    46    2
   142   119   120    1
   143   119   116    1
   144    41    38    1
   145    99    96    1
   146   115   116    1
   147   116   117    1
   148    38    39    1
   149    38    37    1
   150    95    96    1
   151    96    97    1
   152    39    40    2
   153   118   117    2
   154    97    98    2
