@<TRIPOS>MOLECULE
tmp/4q0qA01.pdb
 100 92 0 0 0
SMALL
GASTEIGER

@<TRIPOS>ATOM
      1  N         34.5340   13.5090   16.6330 N.3    33  MET33      -0.1245
      2  CA        33.0880   13.3270   16.5510 C.3    33  MET33       0.1570
      3  C         32.5020   14.1250   15.3870 C.2    33  MET33       0.2261
      4  O         31.4360   13.8020   14.8690 O.2    33  MET33      -0.2867
      5  CB        32.4350   13.7490   17.8770 C.3    33  MET33       0.0387
      6  CG        32.7250   12.7880   19.0260 C.3    33  MET33       0.0595
      7  SD        32.3160   13.4330   20.6710 S.3    33  MET33      -0.1393
      8  CE        30.6150   13.9000   20.4530 C.3    33  MET33       0.0692
      9  N         32.7450   14.4310   12.0420 N.3    35  ASN35      -0.1240
     10  CA        33.2530   13.7600   10.8470 C.3    35  ASN35       0.1653
     11  C         32.2190   13.6190    9.7300 C.2    35  ASN35       0.2266
     12  O         31.0960   14.1080    9.8380 O.2    35  ASN35      -0.2867
     13  CB        33.7630   12.3780   11.2350 C.3    35  ASN35       0.1155
     14  CG        32.7350   11.5870   12.0170 C.2    35  ASN35       0.2627
     15  OD1       31.6170   11.3660   11.5490 O.2    35  ASN35      -0.2716
     16  ND2       33.1040   11.1620   13.2180 N.am   35  ASN35      -0.0877
     17  N         30.4670   11.2360    8.9730 N.3    37  SER37      -0.1202
     18  CA        29.4150   10.2770    9.2900 C.3    37  SER37       0.2020
     19  C         28.3480   10.8780   10.2040 C.2    37  SER37       0.2618
     20  O         27.2910   10.2780   10.4050 O.2    37  SER37      -0.2717
     21  CB        30.0010    9.0360    9.9650 C.3    37  SER37       0.2103
     22  OG        30.8040    8.2940    9.0710 O.3    37  SER37      -0.2182
     23  N         28.6290   12.0600   10.7490 N.am   38  ALA38      -0.1979
     24  CA        27.7080   12.7390   11.6600 C.3    38  ALA38       0.1597
     25  C         26.3940   13.1500   11.0100 C.2    38  ALA38       0.2287
     26  O         25.3300   13.0290   11.6120 O.2    38  ALA38      -0.2864
     27  CB        28.3950   13.9700   12.2710 C.3    38  ALA38       0.0319
     28  N         23.5040   12.4630    8.7330 N.3    40  ILE40      -0.1245
     29  CA        22.8470   11.3020    8.1470 C.3    40  ILE40       0.1561
     30  C         21.6290   11.6500    7.2970 C.2    40  ILE40       0.2260
     31  O         20.7360   12.3720    7.7360 O.2    40  ILE40      -0.2867
     32  CB        22.3930   10.3370    9.2570 C.3    40  ILE40       0.0252
     33  CG1       23.5810    9.9980   10.1600 C.3    40  ILE40       0.0019
     34  CG2       21.7970    9.0670    8.6480 C.3    40  ILE40       0.0019
     35  CD1       23.1790    9.3070   11.4570 C.3    40  ILE40       0.0001
     36  N         24.0380   13.2400   14.3130 N.3    65  ILE65      -0.1231
     37  CA        24.2950   12.4960   15.5310 C.3    65  ILE65       0.1692
     38  C         25.7730   12.5870   15.8910 C.2    65  ILE65       0.2592
     39  O         26.6450   12.2470   15.0890 O.2    65  ILE65      -0.2718
     40  CB        23.9290   11.0050   15.3870 C.3    65  ILE65       0.0266
     41  CG1       22.4290   10.8540   15.1150 C.3    65  ILE65       0.0019
     42  CG2       24.3360   10.2500   16.6520 C.3    65  ILE65       0.0020
     43  CD1       21.9730    9.4200   14.9030 C.3    65  ILE65       0.0001
     44  N         26.0440   13.0600   17.1010 N.am   66  PHE66      -0.1962
     45  CA        27.4030   13.1670   17.6040 C.3    66  PHE66       0.1771
     46  C         27.5070   12.1470   18.7250 C.2    66  PHE66       0.2619
     47  O         26.9150   12.3230   19.7860 O.2    66  PHE66      -0.2715
     48  CB        27.6690   14.5700   18.1470 C.3    66  PHE66       0.0574
     49  CG        27.7020   15.6370   17.0850 C.ar   66  PHE66      -0.0200
     50  CD1       28.6400   15.5810   16.0560 C.ar   66  PHE66      -0.0042
     51  CD2       26.8210   16.7110   17.1310 C.ar   66  PHE66      -0.0042
     52  CE1       28.7010   16.5880   15.0870 C.ar   66  PHE66      -0.0003
     53  CE2       26.8720   17.7210   16.1710 C.ar   66  PHE66      -0.0003
     54  CZ        27.8170   17.6580   15.1460 C.ar   66  PHE66      -0.0000
     55  N         28.2500   11.0750   18.4700 N.am   67  GLU67      -0.1977
     56  CA        28.4250   10.0030   19.4400 C.3    67  GLU67       0.1602
     57  C         29.6330   10.2400   20.3450 C.2    67  GLU67       0.2287
     58  O         30.7780   10.2010   19.8870 O.2    67  GLU67      -0.2864
     59  CB        28.5670    8.6810   18.6830 C.3    67  GLU67       0.0415
     60  CG        28.7490    7.4470   19.5290 C.3    67  GLU67       0.1163
     61  CD        28.8070    6.1850   18.6850 C.2    67  GLU67       0.3649
     62  OE1       27.7400    5.6000   18.3960 O.co2  67  GLU67      -0.2457
     63  OE2       29.9260    5.7850   18.2980 O.co2  67  GLU67      -0.2457
     64  N         26.4710   -0.4640   14.7580 N.3   211  GLU211     -0.1245
     65  CA        26.2640    0.1920   13.4690 C.3   211  GLU211      0.1567
     66  C         27.5360    0.2700   12.6300 C.2   211  GLU211      0.2260
     67  O         28.4130    1.0920   12.8930 O.2   211  GLU211     -0.2867
     68  CB        25.7280    1.6120   13.6830 C.3   211  GLU211      0.0388
     69  CG        24.4240    1.6920   14.4630 C.3   211  GLU211      0.1160
     70  CD        23.9720    3.1270   14.7030 C.2   211  GLU211      0.3649
     71  OE1       24.6910    3.8730   15.4070 O.co2 211  GLU211     -0.2457
     72  OE2       22.8980    3.5110   14.1880 O.co2 211  GLU211     -0.2457
     73  N         29.0290    1.8250   10.4040 N.3   213  THR213     -0.1218
     74  CA        29.0680    3.0590    9.6250 C.3   213  THR213      0.1862
     75  C         30.4390    3.2930    9.0050 C.2   213  THR213      0.2287
     76  O         31.3990    2.5730    9.2890 O.2   213  THR213     -0.2866
     77  CB        28.7170    4.2910   10.4900 C.3   213  THR213      0.1770
     78  OG1       29.7300    4.4800   11.4850 O.3   213  THR213     -0.2211
     79  CG2       27.3660    4.1030   11.1710 C.3   213  THR213      0.0375
     80  N         32.4660    5.9190    9.4420 N.3   215  ALA215     -0.1231
     81  CA        33.3880    6.3540   10.4880 C.3   215  ALA215      0.1694
     82  C         33.6520    5.2440   11.4950 C.2   215  ALA215      0.2591
     83  O         34.4840    5.3920   12.3910 O.2   215  ALA215     -0.2718
     84  CB        32.8350    7.5780   11.2010 C.3   215  ALA215      0.0304
     85  N         32.9400    4.1330   11.3410 N.am  216  ALA216     -0.1980
     86  CA        33.0910    2.9900   12.2320 C.3   216  ALA216      0.1597
     87  C         33.9500    1.9120   11.5780 C.2   216  ALA216      0.2287
     88  O         34.5460    1.0780   12.2620 O.2   216  ALA216     -0.2864
     89  CB        31.7200    2.4220   12.5850 C.3   216  ALA216      0.0319
     90  N         21.6740    5.0660    6.0800 N.3   243  ARG243     -0.1245
     91  CA        22.1830    5.2530    7.4330 C.3   243  ARG243      0.1563
     92  C         23.6950    5.0440    7.5220 C.2   243  ARG243      0.2260
     93  O         24.3930    5.7820    8.2200 O.2   243  ARG243     -0.2867
     94  CB        21.4830    4.2720    8.3850 C.3   243  ARG243      0.0307
     95  CG        21.5040    4.6560    9.8720 C.3   243  ARG243      0.0489
     96  CD        22.9110    4.8540   10.4110 C.3   243  ARG243      0.2205
     97  NE        22.9280    5.1950   11.8310 N.pl3 243  ARG243     -0.0865
     98  CZ        23.9620    5.7590   12.4480 C.cat 243  ARG243      0.5346
     99  NH1       23.9000    6.0360   13.7450 N.pl3 243  ARG243      0.1354
    100  NH2       25.0560    6.0630   11.7620 N.pl3 243  ARG243      0.1354
@<TRIPOS>BOND
     1    90    91    1
     2    30    31    2
     3    30    29    1
     4    91    92    1
     5    91    94    1
     6    92    93    2
     7    29    28    1
     8    29    32    1
     9    94    95    1
    10    34    32    1
    11    17    18    1
    12    75    76    2
    13    75    74    1
    14    22    21    1
    15    32    33    1
    16    18    21    1
    17    18    19    1
    18    80    81    1
    19    74    73    1
    20    74    77    1
    21    11    12    2
    22    11    10    1
    23    95    96    1
    24    33    35    1
    25    19    20    2
    26    19    23   am
    27    96    97    1
    28    81    84    1
    29    81    82    1
    30    77    79    1
    31    77    78    1
    32    23    24    1
    33    10    13    1
    34    10     9    1
    35    25    26    2
    36    25    24    1
    37    13    14    1
    38    85    82   am
    39    85    86    1
    40    82    83    2
    41    15    14    2
    42    87    86    1
    43    87    88    2
    44    24    27    1
    45   100    98    1
    46    97    98    2
    47    14    16   am
    48    86    89    1
    49    98    99    1
    50    66    67    2
    51    66    65    1
    52    65    68    1
    53    65    64    1
    54    68    69    1
    55    72    70   ar
    56    36    37    1
    57    69    70    1
    58    70    71   ar
    59     4     3    2
    60    43    41    1
    61    52    54   ar
    62    52    50   ar
    63    39    38    2
    64    41    40    1
    65    54    53   ar
    66    40    37    1
    67    40    42    1
    68     3     2    1
    69    37    38    1
    70    38    44   am
    71    50    49   ar
    72    53    51   ar
    73     2     1    1
    74     2     5    1
    75    49    51   ar
    76    49    48    1
    77    44    45    1
    78    45    48    1
    79    45    46    1
    80     5     6    1
    81    63    61   ar
    82    62    61   ar
    83    55    46   am
    84    55    56    1
    85    59    56    1
    86    59    60    1
    87    61    60    1
    88    46    47    2
    89     6     7    1
    90    56    57    1
    91    58    57    2
    92     8     7    1
