@<TRIPOS>MOLECULE
tmp/4q0qA00.pdb
 163 151 0 0 0
SMALL
GASTEIGER

@<TRIPOS>ATOM
      1  N         18.7990    9.5580    5.2120 N.3    42  PHE42      -0.1241
      2  CA        18.3010    8.1930    5.0390 C.3    42  PHE42       0.1605
      3  C         17.7530    7.8240    3.6560 C.2    42  PHE42       0.2264
      4  O         16.5490    7.6170    3.4840 O.2    42  PHE42      -0.2867
      5  CB        17.2450    7.8870    6.1130 C.3    42  PHE42       0.0534
      6  CG        17.7540    8.0260    7.5360 C.ar   42  PHE42      -0.0203
      7  CD1       17.7270    9.2570    8.1840 C.ar   42  PHE42      -0.0042
      8  CD2       18.2610    6.9240    8.2180 C.ar   42  PHE42      -0.0042
      9  CE1       18.1960    9.3890    9.4960 C.ar   42  PHE42      -0.0003
     10  CE2       18.7360    7.0430    9.5330 C.ar   42  PHE42      -0.0003
     11  CZ        18.7010    8.2760   10.1710 C.ar   42  PHE42      -0.0000
     12  N         19.2750   13.6820    9.7530 N.3    63  MET63      -0.1245
     13  CA        19.5730   14.1410   11.1020 C.3    63  MET63       0.1570
     14  C         21.0640   14.1210   11.3550 C.2    63  MET63       0.2261
     15  O         21.8410   13.5670   10.5770 O.2    63  MET63      -0.2867
     16  CB        18.9050   13.2260   12.1250 C.3    63  MET63       0.0387
     17  CG        19.6320   11.8980   12.2960 C.3    63  MET63       0.0595
     18  SD        18.6710   10.6530   13.1720 S.3    63  MET63      -0.1393
     19  CE        18.7440   11.2920   14.8490 C.3    63  MET63       0.0692
     20  N         24.0380   13.2400   14.3130 N.3    65  ILE65      -0.1245
     21  CA        24.2950   12.4960   15.5310 C.3    65  ILE65       0.1561
     22  C         25.7730   12.5870   15.8910 C.2    65  ILE65       0.2260
     23  O         26.6450   12.2470   15.0890 O.2    65  ILE65      -0.2867
     24  CB        23.9290   11.0050   15.3870 C.3    65  ILE65       0.0252
     25  CG1       22.4290   10.8540   15.1150 C.3    65  ILE65       0.0019
     26  CG2       24.3360   10.2500   16.6520 C.3    65  ILE65       0.0019
     27  CD1       21.9730    9.4200   14.9030 C.3    65  ILE65       0.0001
     28  N         24.9190    9.9410   22.9390 N.3    93  LYS93      -0.1245
     29  CA        25.0570   10.7410   21.7390 C.3    93  LYS93       0.1561
     30  C         24.0800   11.9010   21.7330 C.2    93  LYS93       0.2260
     31  O         23.0420   11.8610   22.3910 O.2    93  LYS93      -0.2867
     32  CB        24.8480    9.8790   20.4880 C.3    93  LYS93       0.0271
     33  CG        23.4040    9.4810   20.2210 C.3    93  LYS93       0.0035
     34  CD        23.2230    7.9630   20.2580 C.3    93  LYS93       0.0206
     35  CE        23.4850    7.4090   21.6530 C.3    93  LYS93       0.1093
     36  NZ        23.2600    5.9330   21.7490 N.3    93  LYS93      -0.1314
     37  N         21.6480   14.1680   19.4170 N.3    95  MET95      -0.1245
     38  CA        20.9610   14.0990   18.1400 C.3    95  MET95       0.1570
     39  C         20.3310   15.4450   17.8210 C.2    95  MET95       0.2261
     40  O         19.6860   16.0600   18.6680 O.2    95  MET95      -0.2867
     41  CB        19.9020   12.9880   18.1760 C.3    95  MET95       0.0387
     42  CG        20.4930   11.6170   18.5300 C.3    95  MET95       0.0595
     43  SD        19.3290   10.2250   18.3930 S.3    95  MET95      -0.1393
     44  CE        18.1980   10.6070   19.7080 C.3    95  MET95       0.0692
     45  N         13.7790   11.2330   12.2310 N.3   103  CYS103     -0.1235
     46  CA        14.6960   10.1360   12.4710 C.3   103  CYS103      0.1677
     47  C         13.5970    9.1190   12.1060 C.2   103  CYS103      0.2270
     48  O         12.6250    8.9600   12.8500 O.2   103  CYS103     -0.2867
     49  CB        15.0610    9.9840   13.9420 C.3   103  CYS103      0.0956
     50  SG        16.0270    8.4850   14.2270 S.3   103  CYS103     -0.0801
     51  N         12.0600    2.6140   12.6960 N.3   106  HIS106     -0.1241
     52  CA        12.9990    1.5090   12.8090 C.3   106  HIS106      0.1621
     53  C         12.8940    0.9060   14.1970 C.2   106  HIS106      0.2264
     54  O         12.2470    1.4690   15.0760 O.2   106  HIS106     -0.2867
     55  CB        14.4410    1.9940   12.5900 C.3   106  HIS106      0.0745
     56  CG        14.9520    2.8930   13.6790 C.ar  106  HIS106      0.0817
     57  ND1       14.5740    4.2130   13.7980 N.ar  106  HIS106     -0.2268
     58  CD2       15.7900    2.6490   14.7150 C.ar  106  HIS106      0.1154
     59  CE1       15.1570    4.7440   14.8590 C.ar  106  HIS106      0.1986
     60  NE2       15.9000    3.8150   15.4330 N.ar  106  HIS106     -0.2212
     61  N         15.2100   -1.8790   17.1110 N.3   108  HIS108     -0.1241
     62  CA        16.4670   -2.5310   17.4110 C.3   108  HIS108      0.1621
     63  C         16.1540   -3.8520   18.1030 C.2   108  HIS108      0.2264
     64  O         15.2350   -3.9310   18.9210 O.2   108  HIS108     -0.2867
     65  CB        17.3090   -1.6590   18.3450 C.3   108  HIS108      0.0745
     66  CG        17.5200   -0.2670   17.8450 C.ar  108  HIS108      0.0817
     67  ND1       18.2570    0.0150   16.7150 N.ar  108  HIS108     -0.2268
     68  CD2       17.0800    0.9240   18.3130 C.ar  108  HIS108      0.1154
     69  CE1       18.2640    1.3190   16.5100 C.ar  108  HIS108      0.1986
     70  NE2       17.5570    1.8950   17.4650 N.ar  108  HIS108     -0.2212
     71  N         19.3530   -3.1130   21.1880 N.3   111  LYS111     -0.1245
     72  CA        19.4630   -1.7960   21.8140 C.3   111  LYS111      0.1561
     73  C         18.2230   -1.1310   22.4090 C.2   111  LYS111      0.2260
     74  O         17.2230   -0.9140   21.7240 O.2   111  LYS111     -0.2867
     75  CB        20.0970   -0.8170   20.8170 C.3   111  LYS111      0.0271
     76  CG        20.3620    0.5760   21.3820 C.3   111  LYS111      0.0035
     77  CD        21.1060    1.4700   20.3900 C.3   111  LYS111      0.0206
     78  CE        20.1560    2.3780   19.6170 C.3   111  LYS111      0.1093
     79  NZ        20.8770    3.1670   18.5670 N.3   111  LYS111     -0.1314
     80  N         16.9610    2.3570   24.2720 N.3   113  GLU113     -0.1245
     81  CA        17.3810    3.7500   24.3760 C.3   113  GLU113      0.1567
     82  C         16.4940    4.5880   25.2910 C.2   113  GLU113      0.2260
     83  O         15.4160    4.1560   25.6990 O.2   113  GLU113     -0.2867
     84  CB        17.4460    4.4020   22.9760 C.3   113  GLU113      0.0388
     85  CG        16.5250    3.7830   21.9290 C.3   113  GLU113      0.1160
     86  CD        16.6370    4.4160   20.5360 C.2   113  GLU113      0.3649
     87  OE1       16.0660    5.5030   20.3060 O.co2 113  GLU113     -0.2457
     88  OE2       17.2970    3.8200   19.6650 O.co2 113  GLU113     -0.2457
     89  N         10.1230    2.7220   16.4290 N.3   188  HIS188     -0.1241
     90  CA        10.0880    4.1130   16.8410 C.3   188  HIS188      0.1621
     91  C         10.6490    5.0590   15.7890 C.2   188  HIS188      0.2264
     92  O         11.4290    4.6680   14.9230 O.2   188  HIS188     -0.2867
     93  CB        10.8250    4.3280   18.1750 C.3   188  HIS188      0.0745
     94  CG        12.2790    3.9720   18.1440 C.ar  188  HIS188      0.0817
     95  ND1       12.7270    2.6690   18.1240 N.ar  188  HIS188     -0.2268
     96  CD2       13.3860    4.7510   18.1310 C.ar  188  HIS188      0.1154
     97  CE1       14.0470    2.6600   18.0970 C.ar  188  HIS188      0.1986
     98  NE2       14.4730    3.9100   18.1000 N.ar  188  HIS188     -0.2212
     99  N         10.9240    9.7670   15.2440 N.3   190  PHE190     -0.1241
    100  CA        10.6830   11.0610   15.8540 C.3   190  PHE190      0.1605
    101  C         11.0590   12.2090   14.9330 C.2   190  PHE190      0.2264
    102  O         11.8320   12.0420   13.9940 O.2   190  PHE190     -0.2867
    103  CB        11.4110   11.1730   17.2070 C.3   190  PHE190      0.0534
    104  CG        12.9090   11.0320   17.1330 C.ar  190  PHE190     -0.0203
    105  CD1       13.7160   12.1420   16.8970 C.ar  190  PHE190     -0.0042
    106  CD2       13.5190    9.7990   17.3690 C.ar  190  PHE190     -0.0042
    107  CE1       15.1060   12.0310   16.9040 C.ar  190  PHE190     -0.0003
    108  CE2       14.9130    9.6760   17.3760 C.ar  190  PHE190     -0.0003
    109  CZ        15.7070   10.7950   17.1440 C.ar  190  PHE190     -0.0000
    110  N         20.6210   11.0340   23.7320 N.3   204  GLU204     -0.1245
    111  CA        20.1860    9.6600   23.8620 C.3   204  GLU204      0.1567
    112  C         21.1920    8.9050   24.7190 C.2   204  GLU204      0.2260
    113  O         22.4040    9.0060   24.5130 O.2   204  GLU204     -0.2867
    114  CB        20.0930    8.9790   22.5000 C.3   204  GLU204      0.0388
    115  CG        19.7590    7.5050   22.6050 C.3   204  GLU204      0.1160
    116  CD        19.7350    6.8170   21.2630 C.2   204  GLU204      0.3649
    117  OE1       18.8200    7.1170   20.4680 O.co2 204  GLU204     -0.2457
    118  OE2       20.6300    5.9840   21.0000 O.co2 204  GLU204     -0.2457
    119  N         25.4890    0.5040   20.5390 N.3   209  SER209     -0.1217
    120  CA        24.9730    0.6930   19.1910 C.3   209  SER209      0.1889
    121  C         25.8110   -0.0740   18.1570 C.2   209  SER209      0.2288
    122  O         26.9560    0.2780   17.8840 O.2   209  SER209     -0.2866
    123  CB        24.9500    2.1870   18.8680 C.3   209  SER209      0.2089
    124  OG        24.3520    2.4250   17.6090 O.3   209  SER209     -0.2183
    125  N         26.4710   -0.4640   14.7580 N.3   211  GLU211     -0.1245
    126  CA        26.2640    0.1920   13.4690 C.3   211  GLU211      0.1567
    127  C         27.5360    0.2700   12.6300 C.2   211  GLU211      0.2260
    128  O         28.4130    1.0920   12.8930 O.2   211  GLU211     -0.2867
    129  CB        25.7280    1.6120   13.6830 C.3   211  GLU211      0.0388
    130  CG        24.4240    1.6920   14.4630 C.3   211  GLU211      0.1160
    131  CD        23.9720    3.1270   14.7030 C.2   211  GLU211      0.3649
    132  OE1       24.6910    3.8730   15.4070 O.co2 211  GLU211     -0.2457
    133  OE2       22.8980    3.5110   14.1880 O.co2 211  GLU211     -0.2457
    134  N         20.2500   -2.2660   13.4610 N.3   232  ASN232     -0.1240
    135  CA        19.2390   -1.3130   13.0200 C.3   232  ASN232      0.1653
    136  C         18.3750   -1.9590   11.9550 C.2   232  ASN232      0.2266
    137  O         18.8850   -2.5770   11.0200 O.2   232  ASN232     -0.2867
    138  CB        19.8690   -0.0530   12.4310 C.3   232  ASN232      0.1155
    139  CG        20.6780    0.7220   13.4410 C.2   232  ASN232      0.2627
    140  OD1       20.4770    0.5860   14.6460 O.2   232  ASN232     -0.2716
    141  ND2       21.5930    1.5550   12.9540 N.am  232  ASN232     -0.0877
    142  N         15.4230   -0.5620    9.7050 N.3   234  PHE234     -0.1241
    143  CA        14.5310    0.4960    9.2560 C.3   234  PHE234      0.1605
    144  C         13.4020   -0.0720    8.3990 C.2   234  PHE234      0.2264
    145  O         13.6310   -0.9410    7.5490 O.2   234  PHE234     -0.2867
    146  CB        15.3260    1.5410    8.4680 C.3   234  PHE234      0.0534
    147  CG        16.2380    2.3740    9.3240 C.ar  234  PHE234     -0.0203
    148  CD1       15.7850    3.5590    9.8990 C.ar  234  PHE234     -0.0042
    149  CD2       17.5370    1.9490    9.5960 C.ar  234  PHE234     -0.0042
    150  CE1       16.6150    4.3120   10.7400 C.ar  234  PHE234     -0.0003
    151  CE2       18.3740    2.6920   10.4340 C.ar  234  PHE234     -0.0003
    152  CZ        17.9100    3.8750   11.0070 C.ar  234  PHE234     -0.0000
    153  N         21.6740    5.0660    6.0800 N.3   243  ARG243     -0.1245
    154  CA        22.1830    5.2530    7.4330 C.3   243  ARG243      0.1563
    155  C         23.6950    5.0440    7.5220 C.2   243  ARG243      0.2260
    156  O         24.3930    5.7820    8.2200 O.2   243  ARG243     -0.2867
    157  CB        21.4830    4.2720    8.3850 C.3   243  ARG243      0.0307
    158  CG        21.5040    4.6560    9.8720 C.3   243  ARG243      0.0489
    159  CD        22.9110    4.8540   10.4110 C.3   243  ARG243      0.2205
    160  NE        22.9280    5.1950   11.8310 N.pl3 243  ARG243     -0.0865
    161  CZ        23.9620    5.7590   12.4480 C.cat 243  ARG243      0.5346
    162  NH1       23.9000    6.0360   13.7450 N.pl3 243  ARG243      0.1354
    163  NH2       25.0560    6.0630   11.7620 N.pl3 243  ARG243      0.1354
@<TRIPOS>BOND
     1     4     3    2
     2     3     2    1
     3     2     1    1
     4     2     5    1
     5   153   154    1
     6     5     6    1
     7   154   155    1
     8   154   157    1
     9   155   156    2
    10     6     7   ar
    11     6     8   ar
    12   145   144    2
    13     7     9   ar
    14     8    10   ar
    15   157   158    1
    16   144   143    1
    17   146   143    1
    18   146   147    1
    19   143   142    1
    20   147   149   ar
    21   147   148   ar
    22     9    11   ar
    23    10    11   ar
    24   149   151   ar
    25    12    13    1
    26   158   159    1
    27   148   150   ar
    28   159   160    1
    29   151   152   ar
    30    15    14    2
    31   150   152   ar
    32   137   136    2
    33    13    14    1
    34    13    16    1
    35   163   161    1
    36   160   161    2
    37   136   135    1
    38    47    46    1
    39    47    48    2
    40    16    17    1
    41    45    46    1
    42    17    18    1
    43   138   135    1
    44   138   139    1
    45   161   162    1
    46    46    49    1
    47    55    52    1
    48    55    56    1
    49   127   128    2
    50   127   126    1
    51    51    52    1
    52    52    53    1
    53   141   139   am
    54   135   134    1
    55    18    19    1
    56   139   140    2
    57   126   129    1
    58   126   125    1
    59    56    57   ar
    60    56    58   ar
    61   129   130    1
    62    57    59   ar
    63    49    50    1
    64   102   101    2
    65   133   131   ar
    66    53    54    2
    67    20    21    1
    68   130   131    1
    69   131   132   ar
    70    58    60   ar
    71    59    60   ar
    72    27    25    1
    73    92    91    2
    74   101   100    1
    75    23    22    2
    76    25    24    1
    77    99   100    1
    78    24    21    1
    79    24    26    1
    80    21    22    1
    81    91    90    1
    82   100   103    1
    83    89    90    1
    84    69    67   ar
    85    69    70   ar
    86    67    66   ar
    87    90    93    1
    88   105   107   ar
    89   105   104   ar
    90   107   109   ar
    91    61    62    1
    92   104   103    1
    93   104   106   ar
    94   109   108   ar
    95   106   108   ar
    96    62    63    1
    97    62    65    1
    98    70    68   ar
    99   124   123    1
   100    39    38    1
   101    39    40    2
   102    66    68   ar
   103    66    65    1
   104   122   121    2
   105    97    98   ar
   106    97    95   ar
   107    98    96   ar
   108    63    64    2
   109    95    94   ar
   110    96    94   ar
   111    38    41    1
   112    38    37    1
   113    94    93    1
   114   121   120    1
   115    41    42    1
   116    43    42    1
   117    43    44    1
   118    79    78    1
   119   123   120    1
   120   120   119    1
   121    78    77    1
   122    88    86   ar
   123    33    34    1
   124    33    32    1
   125    34    35    1
   126    87    86   ar
   127    77    76    1
   128   117   116   ar
   129    32    29    1
   130    86    85    1
   131    75    76    1
   132    75    72    1
   133   118   116   ar
   134    71    72    1
   135   116   115    1
   136    35    36    1
   137    74    73    2
   138    30    29    1
   139    30    31    2
   140    29    28    1
   141    72    73    1
   142    85    84    1
   143   114   115    1
   144   114   111    1
   145    84    81    1
   146   110   111    1
   147   111   112    1
   148    80    81    1
   149    81    82    1
   150   113   112    2
   151    82    83    2
