@<TRIPOS>MOLECULE
tmp/4q0vA00.pdb
 157 146 0 0 0
SMALL
GASTEIGER

@<TRIPOS>ATOM
      1  N         18.8640    9.5360    5.2550 N.3    42  PHE42      -0.1241
      2  CA        18.3890    8.1690    5.0790 C.3    42  PHE42       0.1605
      3  C         17.8570    7.7990    3.6920 C.2    42  PHE42       0.2264
      4  O         16.6540    7.6190    3.5050 O.2    42  PHE42      -0.2867
      5  CB        17.3270    7.8510    6.1430 C.3    42  PHE42       0.0534
      6  CG        17.8130    8.0230    7.5680 C.ar   42  PHE42      -0.0203
      7  CD1       17.7580    9.2650    8.1940 C.ar   42  PHE42      -0.0042
      8  CD2       18.3280    6.9400    8.2760 C.ar   42  PHE42      -0.0042
      9  CE1       18.2080    9.4260    9.5120 C.ar   42  PHE42      -0.0003
     10  CE2       18.7820    7.0870    9.5910 C.ar   42  PHE42      -0.0003
     11  CZ        18.7200    8.3330   10.2090 C.ar   42  PHE42      -0.0000
     12  N         19.3170   13.6470    9.7740 N.3    63  MET63      -0.1245
     13  CA        19.6230   14.1060   11.1220 C.3    63  MET63       0.1570
     14  C         21.1150   14.0790   11.3850 C.2    63  MET63       0.2261
     15  O         21.8910   13.5260   10.6110 O.2    63  MET63      -0.2867
     16  CB        18.9490   13.1950   12.1460 C.3    63  MET63       0.0387
     17  CG        19.6180   11.8250   12.2430 C.3    63  MET63       0.0595
     18  SD        18.6710   10.6510   13.2320 S.3    63  MET63      -0.1393
     19  CE        18.9870   11.2760   14.8860 C.3    63  MET63       0.0692
     20  N         24.0800   13.2150   14.3730 N.3    65  ILE65      -0.1245
     21  CA        24.3400   12.4840   15.5920 C.3    65  ILE65       0.1561
     22  C         25.8230   12.5850   15.9110 C.2    65  ILE65       0.2260
     23  O         26.6680   12.2810   15.0740 O.2    65  ILE65      -0.2867
     24  CB        23.9780   10.9860   15.4600 C.3    65  ILE65       0.0252
     25  CG1       22.4640   10.8190   15.2930 C.3    65  ILE65       0.0019
     26  CG2       24.4750   10.2290   16.6800 C.3    65  ILE65       0.0019
     27  CD1       22.0110    9.3700   15.1420 C.3    65  ILE65       0.0001
     28  N         24.9900    9.8670   22.9020 N.3    93  LYS93      -0.1245
     29  CA        25.0080   10.6150   21.6460 C.3    93  LYS93       0.1561
     30  C         24.1040   11.8280   21.7170 C.2    93  LYS93       0.2260
     31  O         23.1000   11.8280   22.4300 O.2    93  LYS93      -0.2867
     32  CB        24.5140    9.7330   20.4950 C.3    93  LYS93       0.0271
     33  CG        25.1600    8.3710   20.4510 C.3    93  LYS93       0.0035
     34  CD        24.2310    7.3200   19.8520 C.3    93  LYS93       0.0206
     35  CE        24.3620    7.2310   18.3430 C.3    93  LYS93       0.1093
     36  NZ        23.7290    5.9730   17.8380 N.3    93  LYS93      -0.1314
     37  N         21.6820   14.1550   19.4690 N.3    95  MET95      -0.1245
     38  CA        20.9710   14.1010   18.2020 C.3    95  MET95       0.1570
     39  C         20.3820   15.4640   17.8780 C.2    95  MET95       0.2261
     40  O         19.7730   16.1120   18.7320 O.2    95  MET95      -0.2867
     41  CB        19.8580   13.0440   18.2570 C.3    95  MET95       0.0387
     42  CG        20.3450   11.6710   18.7030 C.3    95  MET95       0.0595
     43  SD        19.0660   10.3920   18.6290 S.3    95  MET95      -0.1393
     44  CE        17.8950   11.0110   19.8560 C.3    95  MET95       0.0692
     45  N         13.7780   11.2130   12.2050 N.3   103  CYS103     -0.1235
     46  CA        14.7070   10.1200   12.4190 C.3   103  CYS103      0.1677
     47  C         13.6110    9.1130   12.0200 C.2   103  CYS103      0.2270
     48  O         12.6030    8.9800   12.7210 O.2   103  CYS103     -0.2867
     49  CB        15.0590    9.9440   13.8900 C.3   103  CYS103      0.0956
     50  SG        16.0060    8.4360   14.1790 S.3   103  CYS103     -0.0801
     51  N         12.0940    2.6880   12.6920 N.3   106  HIS106     -0.1241
     52  CA        13.0410    1.5900   12.7760 C.3   106  HIS106      0.1621
     53  C         12.9460    0.9800   14.1650 C.2   106  HIS106      0.2264
     54  O         12.2860    1.5300   15.0490 O.2   106  HIS106     -0.2867
     55  CB        14.4730    2.0940   12.5530 C.3   106  HIS106      0.0745
     56  CG        14.9880    2.9630   13.6630 C.ar  106  HIS106      0.0817
     57  ND1       14.6760    4.3020   13.7690 N.ar  106  HIS106     -0.2268
     58  CD2       15.7570    2.6700   14.7400 C.ar  106  HIS106      0.1154
     59  CE1       15.2300    4.7950   14.8640 C.ar  106  HIS106      0.1986
     60  NE2       15.8910    3.8260   15.4700 N.ar  106  HIS106     -0.2212
     61  N         15.3060   -1.7930   17.0640 N.3   108  HIS108     -0.1241
     62  CA        16.5680   -2.4390   17.3830 C.3   108  HIS108      0.1621
     63  C         16.2510   -3.7510   18.0790 C.2   108  HIS108      0.2264
     64  O         15.3290   -3.8220   18.8890 O.2   108  HIS108     -0.2867
     65  CB        17.3880   -1.5590   18.3300 C.3   108  HIS108      0.0745
     66  CG        17.5980   -0.1650   17.8290 C.ar  108  HIS108      0.0817
     67  ND1       18.4510    0.1310   16.7880 N.ar  108  HIS108     -0.2268
     68  CD2       17.0590    1.0120   18.2210 C.ar  108  HIS108      0.1154
     69  CE1       18.4310    1.4320   16.5610 C.ar  108  HIS108      0.1986
     70  NE2       17.5940    1.9900   17.4180 N.ar  108  HIS108     -0.2212
     71  N         19.4070   -3.0680   21.2400 N.3   111  LYS111     -0.1245
     72  CA        19.5230   -1.7730   21.9040 C.3   111  LYS111      0.1561
     73  C         18.2740   -1.1050   22.4660 C.2   111  LYS111      0.2260
     74  O         17.2720   -0.9190   21.7680 O.2   111  LYS111     -0.2867
     75  CB        20.2180   -0.7760   20.9690 C.3   111  LYS111      0.0271
     76  CG        20.4700    0.5880   21.5980 C.3   111  LYS111      0.0035
     77  CD        21.1520    1.5490   20.6240 C.3   111  LYS111      0.0206
     78  CE        20.2080    1.9700   19.5040 C.3   111  LYS111      0.1093
     79  NZ        20.8060    2.9990   18.6020 N.3   111  LYS111     -0.1314
     80  N         16.9480    2.3790   24.2330 N.3   113  GLU113     -0.1245
     81  CA        17.2550    3.8120   24.2120 C.3   113  GLU113      0.1567
     82  C         16.5020    4.6050   25.2610 C.2   113  GLU113      0.2260
     83  O         15.5120    4.1440   25.8100 O.2   113  GLU113     -0.2867
     84  CB        16.8460    4.4150   22.8690 C.3   113  GLU113      0.0388
     85  CG        17.6560    4.0050   21.7070 C.3   113  GLU113      0.1160
     86  CD        16.9930    4.3780   20.3910 C.2   113  GLU113      0.3649
     87  OE1       16.2310    5.3650   20.3130 O.co2 113  GLU113     -0.2457
     88  OE2       17.2560    3.6760   19.4230 O.co2 113  GLU113     -0.2457
     89  N         10.1270    2.8000   16.4770 N.3   188  HIS188     -0.1241
     90  CA        10.0910    4.1840   16.9070 C.3   188  HIS188      0.1621
     91  C         10.6270    5.1330   15.8470 C.2   188  HIS188      0.2264
     92  O         11.3820    4.7430   14.9600 O.2   188  HIS188     -0.2867
     93  CB        10.8780    4.3760   18.2110 C.3   188  HIS188      0.0745
     94  CG        12.3220    3.9850   18.1200 C.ar  188  HIS188      0.0817
     95  ND1       12.7400    2.6710   18.1300 N.ar  188  HIS188     -0.2268
     96  CD2       13.4450    4.7360   18.0240 C.ar  188  HIS188      0.1154
     97  CE1       14.0580    2.6290   18.0450 C.ar  188  HIS188      0.1986
     98  NE2       14.5120    3.8680   17.9800 N.ar  188  HIS188     -0.2212
     99  N         10.9460    9.8240   15.2710 N.3   190  PHE190     -0.1241
    100  CA        10.7230   11.1140   15.8790 C.3   190  PHE190      0.1605
    101  C         11.0810   12.2520   14.9450 C.2   190  PHE190      0.2264
    102  O         11.8230   12.0810   13.9830 O.2   190  PHE190     -0.2867
    103  CB        11.4770   11.2250   17.2210 C.3   190  PHE190      0.0534
    104  CG        12.9660   11.0060   17.1270 C.ar  190  PHE190     -0.0203
    105  CD1       13.8310   12.0770   16.9260 C.ar  190  PHE190     -0.0042
    106  CD2       13.5070    9.7310   17.2930 C.ar  190  PHE190     -0.0042
    107  CE1       15.2150   11.8820   16.8970 C.ar  190  PHE190     -0.0003
    108  CE2       14.8880    9.5260   17.2650 C.ar  190  PHE190     -0.0003
    109  CZ        15.7440   10.6040   17.0670 C.ar  190  PHE190     -0.0000
    110  N         20.8020   11.1290   23.7840 N.3   204  GLN204     -0.1245
    111  CA        20.3820    9.7400   23.8330 C.3   204  GLN204      0.1566
    112  C         21.3810    8.9050   24.6260 C.2   204  GLN204      0.2260
    113  O         22.5800    8.9130   24.3400 O.2   204  GLN204     -0.2867
    114  CB        20.2660    9.1530   22.4260 C.3   204  GLN204      0.0367
    115  CG        19.7210    7.7270   22.4010 C.3   204  GLN204      0.0905
    116  CD        20.0770    6.9920   21.1250 C.2   204  GLN204      0.2608
    117  OE1       19.9380    7.5290   20.0300 O.2   204  GLN204     -0.2717
    118  NE2       20.5420    5.7580   21.2600 N.am  204  GLN204     -0.0878
    119  N         26.5850   -0.3500   14.8520 N.3   211  GLU211     -0.1245
    120  CA        26.3410    0.3260   13.5820 C.3   211  GLU211      0.1567
    121  C         27.5910    0.4320   12.7110 C.2   211  GLU211      0.2260
    122  O         28.3690    1.3740   12.8470 O.2   211  GLU211     -0.2867
    123  CB        25.7930    1.7340   13.8390 C.3   211  GLU211      0.0388
    124  CG        24.5280    1.7820   14.6890 C.3   211  GLU211      0.1160
    125  CD        24.0250    3.2020   14.9060 C.2   211  GLU211      0.3649
    126  OE1       24.7460    4.0010   15.5450 O.co2 211  GLU211     -0.2457
    127  OE2       22.9120    3.5210   14.4330 O.co2 211  GLU211     -0.2457
    128  N         20.2750   -2.1830   13.4590 N.3   232  ASN232     -0.1240
    129  CA        19.2600   -1.2240   13.0450 C.3   232  ASN232      0.1653
    130  C         18.3790   -1.8150   11.9550 C.2   232  ASN232      0.2266
    131  O         18.8710   -2.2520   10.9180 O.2   232  ASN232     -0.2867
    132  CB        19.9050    0.0660   12.5280 C.3   232  ASN232      0.1155
    133  CG        20.8410    0.7030   13.5410 C.2   232  ASN232      0.2627
    134  OD1       20.6160    0.6220   14.7470 O.2   232  ASN232     -0.2716
    135  ND2       21.8900    1.3580   13.0500 N.am  232  ASN232     -0.0877
    136  N         15.3680   -0.5930    9.7610 N.3   234  PHE234     -0.1241
    137  CA        14.4770    0.4660    9.3160 C.3   234  PHE234      0.1605
    138  C         13.3170   -0.1090    8.5060 C.2   234  PHE234      0.2264
    139  O         13.5140   -0.9840    7.6520 O.2   234  PHE234     -0.2867
    140  CB        15.2600    1.4800    8.4760 C.3   234  PHE234      0.0534
    141  CG        16.2120    2.3260    9.2800 C.ar  234  PHE234     -0.0203
    142  CD1       15.7840    3.5180    9.8600 C.ar  234  PHE234     -0.0042
    143  CD2       17.5290    1.9200    9.4790 C.ar  234  PHE234     -0.0042
    144  CE1       16.6540    4.2940   10.6300 C.ar  234  PHE234     -0.0003
    145  CE2       18.4100    2.6870   10.2480 C.ar  234  PHE234     -0.0003
    146  CZ        17.9720    3.8770   10.8250 C.ar  234  PHE234     -0.0000
    147  N         21.8020    4.9180    5.6950 N.3   243  ARG243     -0.1245
    148  CA        22.1250    5.1270    7.1000 C.3   243  ARG243      0.1563
    149  C         23.6310    5.0440    7.3340 C.2   243  ARG243      0.2260
    150  O         24.2030    5.8470    8.0740 O.2   243  ARG243     -0.2867
    151  CB        21.4190    4.0680    7.9560 C.3   243  ARG243      0.0307
    152  CG        21.2370    4.4360    9.4280 C.3   243  ARG243      0.0489
    153  CD        22.5510    4.7340   10.1270 C.3   243  ARG243      0.2205
    154  NE        22.3540    5.1870   11.5000 N.pl3 243  ARG243     -0.0865
    155  CZ        23.3160    5.7050   12.2580 C.cat 243  ARG243      0.5346
    156  NH1       23.0500    6.0900   13.5000 N.pl3 243  ARG243      0.1354
    157  NH2       24.5420    5.8460   11.7710 N.pl3 243  ARG243      0.1354
@<TRIPOS>BOND
     1     4     3    2
     2     3     2    1
     3     2     1    1
     4     2     5    1
     5   147   148    1
     6     5     6    1
     7   148   149    1
     8   148   151    1
     9   149   150    2
    10     6     7   ar
    11     6     8   ar
    12   139   138    2
    13   151   152    1
    14     7     9   ar
    15     8    10   ar
    16   140   141    1
    17   140   137    1
    18   138   137    1
    19   141   143   ar
    20   141   142   ar
    21   137   136    1
    22   152   153    1
    23   143   145   ar
    24     9    11   ar
    25    10    11   ar
    26    12    13    1
    27   142   144   ar
    28   153   154    1
    29   145   146   ar
    30    15    14    2
    31   144   146   ar
    32   131   130    2
    33    13    14    1
    34    13    16    1
    35   154   155    2
    36   157   155    1
    37   130   129    1
    38    47    46    1
    39    47    48    2
    40    16    17    1
    41    45    46    1
    42    17    18    1
    43   155   156    1
    44    46    49    1
    45   132   129    1
    46   132   133    1
    47    55    52    1
    48    55    56    1
    49    51    52    1
    50   121   122    2
    51   121   120    1
    52    52    53    1
    53   129   128    1
    54   135   133   am
    55    18    19    1
    56   133   134    2
    57   120   123    1
    58   120   119    1
    59    56    57   ar
    60    56    58   ar
    61    57    59   ar
    62   123   124    1
    63    49    50    1
    64   102   101    2
    65    53    54    2
    66    20    21    1
    67   127   125   ar
    68   124   125    1
    69    58    60   ar
    70    59    60   ar
    71   125   126   ar
    72   101   100    1
    73    92    91    2
    74    23    22    2
    75    27    25    1
    76    99   100    1
    77    25    24    1
    78    24    21    1
    79    24    26    1
    80    21    22    1
    81    91    90    1
    82   100   103    1
    83    89    90    1
    84    69    67   ar
    85    69    70   ar
    86    67    66   ar
    87   107   105   ar
    88   107   109   ar
    89    90    93    1
    90   105   104   ar
    91    61    62    1
    92   109   108   ar
    93   104   103    1
    94   104   106   ar
    95   108   106   ar
    96    62    63    1
    97    62    65    1
    98    70    68   ar
    99    66    68   ar
   100    66    65    1
   101    36    35    1
   102    39    38    1
   103    39    40    2
   104    98    96   ar
   105    98    97   ar
   106    96    94   ar
   107    97    95   ar
   108    63    64    2
   109    94    95   ar
   110    94    93    1
   111    38    41    1
   112    38    37    1
   113    41    42    1
   114    35    34    1
   115    79    78    1
   116    43    42    1
   117    43    44    1
   118    88    86   ar
   119    78    77    1
   120    34    33    1
   121   117   116    2
   122    87    86   ar
   123    86    85    1
   124    33    32    1
   125    32    29    1
   126    77    76    1
   127    75    76    1
   128    75    72    1
   129   116   118   am
   130   116   115    1
   131    71    72    1
   132    29    30    1
   133    29    28    1
   134    85    84    1
   135    30    31    2
   136    74    73    2
   137    72    73    1
   138   115   114    1
   139   114   111    1
   140    84    81    1
   141   110   111    1
   142   111   112    1
   143    81    80    1
   144    81    82    1
   145   113   112    2
   146    82    83    2
