@<TRIPOS>MOLECULE
tmp/4q0xA00.pdb
 143 142 0 0 0
SMALL
GASTEIGER

@<TRIPOS>ATOM
      1  N         10.6880   23.7670    1.8320 N.3    30  THR30      -0.1218
      2  CA         9.9350   25.0130    1.9570 C.3    30  THR30       0.1862
      3  C          8.4240   24.8570    1.7290 C.2    30  THR30       0.2287
      4  O          7.6690   25.8220    1.8650 O.2    30  THR30      -0.2866
      5  CB        10.5140   26.1040    1.0240 C.3    30  THR30       0.1770
      6  OG1        9.9330   27.3730    1.3440 O.3    30  THR30      -0.2211
      7  CG2       10.2500   25.7820   -0.4490 C.3    30  THR30       0.0375
      8  N          5.3140   22.2180    6.8520 N.3    33  TYR33      -0.1241
      9  CA         5.5480   22.6080    8.2390 C.3    33  TYR33       0.1605
     10  C          6.5620   21.6840    8.9050 C.2    33  TYR33       0.2264
     11  O          6.7140   20.5250    8.5110 O.2    33  TYR33      -0.2867
     12  CB         4.2460   22.5330    9.0370 C.3    33  TYR33       0.0534
     13  CG         3.2660   23.6490    8.7780 C.ar   33  TYR33      -0.0201
     14  CD1        3.3760   24.8660    9.4500 C.ar   33  TYR33      -0.0009
     15  CD2        2.2150   23.4850    7.8770 C.ar   33  TYR33      -0.0009
     16  CE1        2.4740   25.8910    9.2240 C.ar   33  TYR33       0.0417
     17  CE2        1.3050   24.5060    7.6470 C.ar   33  TYR33       0.0417
     18  CZ         1.4430   25.7050    8.3230 C.ar   33  TYR33       0.1957
     19  OH         0.5520   26.7250    8.1070 O.3    33  TYR33      -0.2866
     20  N          7.0340   20.6070   12.8740 N.3    35  HIS35      -0.1241
     21  CA         6.5680   20.6850   14.2520 C.3    35  HIS35       0.1621
     22  C          7.6060   20.1130   15.2040 C.2    35  HIS35       0.2264
     23  O          8.5220   19.4030   14.7870 O.2    35  HIS35      -0.2867
     24  CB         5.2600   19.9190   14.4220 C.3    35  HIS35       0.0745
     25  CG         4.1930   20.3240   13.4590 C.ar   35  HIS35       0.0817
     26  ND1        3.2980   21.3370   13.7240 N.ar   35  HIS35      -0.2268
     27  CD2        3.8750   19.8510   12.2320 C.ar   35  HIS35       0.1154
     28  CE1        2.4770   21.4740   12.6990 C.ar   35  HIS35       0.1986
     29  NE2        2.8040   20.5830   11.7810 N.ar   35  HIS35      -0.2212
     30  N          5.1640   24.9380   15.8220 N.3    50  TRP50      -0.1241
     31  CA         5.5030   24.7020   14.4210 C.3    50  TRP50       0.1605
     32  C          6.3490   25.8210   13.8190 C.2    50  TRP50       0.2264
     33  O          6.4100   26.9320   14.3520 O.2    50  TRP50      -0.2867
     34  CB         4.2470   24.4350   13.5650 C.3    50  TRP50       0.0550
     35  CG         3.4810   25.6540   13.0650 C.ar   50  TRP50       0.0003
     36  CD1        3.9990   26.7730   12.4680 C.ar   50  TRP50       0.0946
     37  CD2        2.0580   25.8340   13.0720 C.ar   50  TRP50       0.0152
     38  NE1        2.9940   27.6470   12.1360 N.ar   50  TRP50      -0.2442
     39  CE2        1.7920   27.0960   12.4910 C.ar   50  TRP50       0.0810
     40  CE3        0.9820   25.0580   13.5250 C.ar   50  TRP50       0.0012
     41  CZ2        0.4940   27.5990   12.3510 C.ar   50  TRP50       0.0191
     42  CZ3       -0.3100   25.5610   13.3840 C.ar   50  TRP50       0.0001
     43  CH2       -0.5400   26.8190   12.8010 C.ar   50  TRP50       0.0015
     44  N          7.1320   27.2060    9.5980 N.3    52  TYR52      -0.1241
     45  CA         6.9100   27.0340    8.1700 C.3    52  TYR52       0.1605
     46  C          7.9710   27.8170    7.4040 C.2    52  TYR52       0.2264
     47  O          7.8440   29.0320    7.2350 O.2    52  TYR52      -0.2867
     48  CB         5.5000   27.4810    7.7740 C.3    52  TYR52       0.0534
     49  CG         5.0820   27.0260    6.3940 C.ar   52  TYR52      -0.0201
     50  CD1        4.6010   25.7330    6.1820 C.ar   52  TYR52      -0.0009
     51  CD2        5.1640   27.8850    5.3010 C.ar   52  TYR52      -0.0009
     52  CE1        4.2170   25.3080    4.9200 C.ar   52  TYR52       0.0417
     53  CE2        4.7820   27.4690    4.0350 C.ar   52  TYR52       0.0417
     54  CZ         4.3100   26.1810    3.8510 C.ar   52  TYR52       0.1957
     55  OH         3.9280   25.7610    2.5980 O.3    52  TYR52      -0.2866
     56  N          8.6390   28.3230    4.4390 N.3    54  GLY54      -0.1210
     57  CA         8.1280   29.0900    3.2950 C.3    54  GLY54       0.1956
     58  C          8.0140   30.5870    3.5300 C.2    54  GLY54       0.2611
     59  O          8.3680   31.3870    2.6610 O.2    54  GLY54      -0.2717
     60  N          7.5130   30.9600    4.7040 N.am   55  ASN55      -0.1974
     61  CA         7.4380   32.3620    5.1100 C.3    55  ASN55       0.1688
     62  C          7.9440   32.5850    6.5390 C.2    55  ASN55       0.2292
     63  O          7.5050   33.5120    7.2270 O.2    55  ASN55      -0.2864
     64  CB         6.0170   32.9190    4.9170 C.3    55  ASN55       0.1181
     65  CG         4.9450   32.0710    5.5900 C.2    55  ASN55       0.2629
     66  OD1        5.2350   31.1810    6.3900 O.2    55  ASN55      -0.2716
     67  ND2        3.6910   32.3530    5.2630 N.am   55  ASN55      -0.0877
     68  N          7.2750   31.6350    9.2320 N.3    57  ASN57      -0.1240
     69  CA         6.2230   31.7200   10.2500 C.3    57  ASN57       0.1653
     70  C          6.3510   30.6890   11.3740 C.2    57  ASN57       0.2266
     71  O          6.6550   29.5220   11.1250 O.2    57  ASN57      -0.2867
     72  CB         4.8410   31.6100    9.5920 C.3    57  ASN57       0.1155
     73  CG         3.7020   31.8340   10.5710 C.2    57  ASN57       0.2627
     74  OD1        3.6170   32.8800   11.2180 O.2    57  ASN57      -0.2716
     75  ND2        2.8140   30.8510   10.6780 N.am   57  ASN57      -0.0877
     76  N          4.4310   29.3010   15.1760 N.3    59  LYS59      -0.1245
     77  CA         3.3690   29.3220   16.1760 C.3    59  LYS59       0.1561
     78  C          3.7810   28.4500   17.3520 C.2    59  LYS59       0.2260
     79  O          4.2770   27.3380   17.1660 O.2    59  LYS59      -0.2867
     80  CB         2.0420   28.8420   15.5910 C.3    59  LYS59       0.0271
     81  CG         0.8260   29.3370   16.3580 C.3    59  LYS59       0.0035
     82  CD        -0.4530   28.6920   15.8520 C.3    59  LYS59       0.0206
     83  CE        -1.6810   29.5080   16.2300 C.3    59  LYS59       0.1093
     84  NZ        -1.8410   30.7210   15.3800 N.3    59  LYS59      -0.1314
     85  N          4.2310   17.2800    8.3680 N.3    99  ASP99      -0.1225
     86  CA         2.8260   16.9740    8.1250 C.3    99  ASP99       0.1805
     87  C          2.5710   16.3420    6.7610 C.2    99  ASP99       0.2598
     88  O          3.4720   16.2510    5.9290 O.2    99  ASP99      -0.2718
     89  CB         2.0190   18.2710    8.2110 C.3    99  ASP99       0.1424
     90  CG         2.4280   19.2810    7.1540 C.2    99  ASP99       0.3668
     91  OD1        3.5700   19.7840    7.2200 O.co2  99  ASP99      -0.2456
     92  OD2        1.6090   19.5680    6.2560 O.co2  99  ASP99      -0.2456
     93  N          1.3320   15.9040    6.5520 N.am  100  ASP100     -0.1960
     94  CA         0.8120   15.6430    5.2130 C.3   100  ASP100      0.1840
     95  C         -0.1720   16.7440    4.8600 C.2   100  ASP100      0.2622
     96  O         -1.0620   17.0640    5.6520 O.2   100  ASP100     -0.2715
     97  CB         0.1240   14.2790    5.1290 C.3   100  ASP100      0.1450
     98  CG         0.9570   13.2440    4.3910 C.2   100  ASP100      0.3671
     99  OD1        1.7590   13.6220    3.5090 O.co2 100  ASP100     -0.2456
    100  OD2        0.7970   12.0430    4.6860 O.co2 100  ASP100     -0.2456
    101  N         -0.0000   17.3180    3.6720 N.am  101  TYR101     -0.1960
    102  CA        -0.8350   18.4160    3.1970 C.3   101  TYR101      0.1771
    103  C         -2.3080   18.0180    3.1660 C.2   101  TYR101      0.2620
    104  O         -2.6720   17.0130    2.5500 O.2   101  TYR101     -0.2715
    105  CB        -0.3690   18.8550    1.8100 C.3   101  TYR101      0.0574
    106  CG        -1.0360   20.1010    1.2730 C.ar  101  TYR101     -0.0198
    107  CD1       -0.5710   21.3670    1.6200 C.ar  101  TYR101     -0.0009
    108  CD2       -2.1210   20.0130    0.4000 C.ar  101  TYR101     -0.0009
    109  CE1       -1.1740   22.5120    1.1210 C.ar  101  TYR101      0.0417
    110  CE2       -2.7290   21.1510   -0.1050 C.ar  101  TYR101      0.0417
    111  CZ        -2.2510   22.3970    0.2580 C.ar  101  TYR101      0.1957
    112  OH        -2.8530   23.5290   -0.2390 O.3   101  TYR101     -0.2866
    113  N         -3.1340   18.8100    3.8510 N.am  102  ASP102     -0.1957
    114  CA        -4.5840   18.5890    3.9600 C.3   102  ASP102      0.1840
    115  C         -4.9470   17.2250    4.5750 C.2   102  ASP102      0.2623
    116  O         -6.0800   16.7510    4.4530 O.2   102  ASP102     -0.2715
    117  CB        -5.2670   18.7970    2.5970 C.3   102  ASP102      0.1450
    118  CG        -6.7780   18.9030    2.7030 C.2   102  ASP102      0.3671
    119  OD1       -7.2790   19.4010    3.7320 O.co2 102  ASP102     -0.2456
    120  OD2       -7.4680   18.4870    1.7500 O.co2 102  ASP102     -0.2456
    121  N         -3.9810   16.6100    5.2530 N.am  103  GLY103     -0.1940
    122  CA        -4.1610   15.2780    5.8150 C.3   103  GLY103      0.2014
    123  C         -4.0180   15.2350    7.3210 C.2   103  GLY103      0.2639
    124  O         -5.0070   15.0680    8.0400 O.2   103  GLY103     -0.2714
    125  N         -2.7850   15.3880    7.8000 N.am  104  ALA104     -0.1963
    126  CA        -2.4820   15.2460    9.2250 C.3   104  ALA104      0.1728
    127  C         -1.3610   16.1730    9.6850 C.2   104  ALA104      0.2616
    128  O         -0.4890   16.5410    8.8970 O.2   104  ALA104     -0.2715
    129  CB        -2.1350   13.7990    9.5440 C.3   104  ALA104      0.0334
    130  N         -1.4000   16.5360   10.9690 N.am  105  TRP105     -0.1974
    131  CA        -0.3890   17.3910   11.5980 C.3   105  TRP105      0.1640
    132  C          0.9990   16.7600   11.5800 C.2   105  TRP105      0.2290
    133  O          1.9960   17.4360   11.3260 O.2   105  TRP105     -0.2864
    134  CB        -0.7750   17.6810   13.0510 C.3   105  TRP105      0.0576
    135  CG        -1.6980   18.8520   13.2500 C.ar  105  TRP105      0.0006
    136  CD1       -3.0160   18.9300   12.8980 C.ar  105  TRP105      0.0946
    137  CD2       -1.3750   20.1000   13.8770 C.ar  105  TRP105      0.0152
    138  NE1       -3.5300   20.1550   13.2540 N.ar  105  TRP105     -0.2442
    139  CE2       -2.5460   20.8910   13.8590 C.ar  105  TRP105      0.0810
    140  CE3       -0.2100   20.6290   14.4480 C.ar  105  TRP105      0.0012
    141  CZ2       -2.5850   22.1850   14.3870 C.ar  105  TRP105      0.0191
    142  CZ3       -0.2490   21.9160   14.9740 C.ar  105  TRP105      0.0001
    143  CH2       -1.4300   22.6780   14.9400 C.ar  105  TRP105      0.0015
@<TRIPOS>BOND
     1     7     5    1
     2   112   111    1
     3   110   111   ar
     4   110   108   ar
     5   111   109   ar
     6   108   106   ar
     7     5     6    1
     8     5     2    1
     9   109   107   ar
    10   106   107   ar
    11   106   105    1
    12     3     4    2
    13     3     2    1
    14   120   118   ar
    15   105   102    1
    16     1     2    1
    17   104   103    2
    18   117   118    1
    19   117   114    1
    20    55    54    1
    21    59    58    2
    22   118   119   ar
    23   103   102    1
    24   103   113   am
    25   102   101    1
    26    57    58    1
    27    57    56    1
    28    99    98   ar
    29    58    60   am
    30   101    95   am
    31    54    53   ar
    32    54    52   ar
    33   113   114    1
    34   114   115    1
    35    53    51   ar
    36    98   100   ar
    37    98    97    1
    38   116   115    2
    39   115   121   am
    40    60    61    1
    41    95    94    1
    42    95    96    2
    43    64    61    1
    44    64    65    1
    45    52    50   ar
    46    61    62    1
    47    97    94    1
    48    94    93    1
    49   121   122    1
    50    67    65   am
    51    51    49   ar
    52    65    66    2
    53   122   123    1
    54    88    87    2
    55    50    49   ar
    56    92    90   ar
    57    49    48    1
    58    62    63    2
    59    93    87   am
    60    87    86    1
    61     8     9    1
    62    90    91   ar
    63    90    89    1
    64    47    46    2
    65   123   125   am
    66   123   124    2
    67    46    45    1
    68    17    15   ar
    69    17    18   ar
    70    48    45    1
    71   125   126    1
    72    15    13   ar
    73    19    18    1
    74    86    89    1
    75    86    85    1
    76    45    44    1
    77     9    10    1
    78     9    12    1
    79    18    16   ar
    80    11    10    2
    81    13    12    1
    82    13    14   ar
    83   128   127    2
    84    16    14   ar
    85   126   129    1
    86   126   127    1
    87    68    69    1
    88    72    69    1
    89    72    73    1
    90   127   130   am
    91    69    70    1
    92    73    75   am
    93    73    74    2
    94   130   131    1
    95    71    70    2
    96   133   132    2
    97   132   131    1
    98   131   134    1
    99    29    27   ar
   100    29    28   ar
   101    38    36   ar
   102    38    39   ar
   103    27    25   ar
   104    41    39   ar
   105    41    43   ar
   106    36    35   ar
   107    39    37   ar
   108    28    26   ar
   109    43    42   ar
   110    20    21    1
   111   136   135   ar
   112   136   138   ar
   113   134   135    1
   114    35    37   ar
   115    35    34    1
   116    37    40   ar
   117   135   137   ar
   118   138   139   ar
   119    42    40   ar
   120    25    26   ar
   121    25    24    1
   122    34    31    1
   123    32    33    2
   124    32    31    1
   125   139   137   ar
   126   139   141   ar
   127   137   140   ar
   128    21    24    1
   129    21    22    1
   130   141   143   ar
   131    31    30    1
   132   140   142   ar
   133    23    22    2
   134   143   142   ar
   135    76    77    1
   136    84    83    1
   137    80    77    1
   138    80    81    1
   139    82    83    1
   140    82    81    1
   141    77    78    1
   142    79    78    2
