@<TRIPOS>MOLECULE
tmp/4q12A00.pdb
 175 174 0 0 0
SMALL
GASTEIGER

@<TRIPOS>ATOM
      1  N         46.1290   36.6240  -44.8600 N.3    11  ASN11      -0.1225
      2  CA        46.7370   35.3430  -44.5210 C.3    11  ASN11       0.1785
      3  C         48.1810   35.4910  -44.0450 C.2    11  ASN11       0.2597
      4  O         48.9690   36.1950  -44.6760 O.2    11  ASN11      -0.2718
      5  CB        46.6370   34.3670  -45.6930 C.3    11  ASN11       0.1169
      6  CG        47.2360   33.0120  -45.3680 C.2    11  ASN11       0.2627
      7  OD1       48.4570   32.8240  -45.4680 O.2    11  ASN11      -0.2716
      8  ND2       46.3820   32.0620  -44.9510 N.am   11  ASN11      -0.0877
      9  N         48.5290   34.8240  -42.9450 N.am   12  VAL12      -0.1966
     10  CA        49.8660   34.9980  -42.3520 C.3    12  VAL12       0.1727
     11  C         51.0040   34.5200  -43.2650 C.2    12  VAL12       0.2616
     12  O         52.0210   35.2010  -43.3730 O.2    12  VAL12      -0.2715
     13  CB        49.9770   34.5250  -40.8580 C.3    12  VAL12       0.0290
     14  CG1       49.0770   33.3340  -40.5680 C.3    12  VAL12       0.0023
     15  CG2       51.4160   34.2180  -40.4620 C.3    12  VAL12       0.0023
     16  N         50.8160   33.4010  -43.9640 N.am   13  HIS13      -0.1973
     17  CA        51.8350   32.9170  -44.9130 C.3    13  HIS13       0.1656
     18  C         51.9760   33.7890  -46.1490 C.2    13  HIS13       0.2291
     19  O         53.0930   34.0730  -46.5880 O.2    13  HIS13      -0.2864
     20  CB        51.5340   31.5020  -45.3520 C.3    13  HIS13       0.0771
     21  CG        51.4520   30.5430  -44.2160 C.ar   13  HIS13       0.0820
     22  ND1       50.2490   30.1190  -43.6850 N.ar   13  HIS13      -0.2267
     23  CD2       52.4220   29.9490  -43.4820 C.ar   13  HIS13       0.1154
     24  CE1       50.4810   29.2850  -42.6870 C.ar   13  HIS13       0.1986
     25  NE2       51.7910   29.1670  -42.5430 N.ar   13  HIS13      -0.2212
     26  N         44.2880   34.8970  -51.2160 N.3    64  HIS64      -0.1241
     27  CA        43.3170   34.2050  -50.3590 C.3    64  HIS64       0.1621
     28  C         42.1200   35.1050  -50.0410 C.2    64  HIS64       0.2264
     29  O         41.4640   34.9290  -49.0140 O.2    64  HIS64      -0.2867
     30  CB        43.9430   33.7480  -49.0300 C.3    64  HIS64       0.0745
     31  CG        45.1550   32.8670  -49.1610 C.ar   64  HIS64       0.0817
     32  ND1       45.5920   32.0620  -48.1280 N.ar   64  HIS64      -0.2268
     33  CD2       46.0360   32.6840  -50.1730 C.ar   64  HIS64       0.1154
     34  CE1       46.6820   31.4190  -48.4990 C.ar   64  HIS64       0.1986
     35  NE2       46.9730   31.7780  -49.7350 N.ar   64  HIS64      -0.2212
     36  N         38.5020   36.6900  -49.6820 N.3    66  LYS66      -0.1245
     37  CA        37.1970   36.0680  -49.4580 C.3    66  LYS66       0.1561
     38  C         35.9930   36.9360  -49.7980 C.2    66  LYS66       0.2260
     39  O         34.9510   36.4180  -50.1570 O.2    66  LYS66      -0.2867
     40  CB        37.1320   35.4300  -48.0750 C.3    66  LYS66       0.0271
     41  CG        37.8570   34.0820  -48.1270 C.3    66  LYS66       0.0035
     42  CD        38.1890   33.5090  -46.7690 C.3    66  LYS66       0.0206
     43  CE        39.2390   32.4350  -46.8910 C.3    66  LYS66       0.1093
     44  NZ        40.5730   33.0240  -47.2020 N.3    66  LYS66      -0.1314
     45  N         44.2430   29.4580  -52.8000 N.3    84  PRO84      -0.2116
     46  CA        44.8740   28.1630  -52.5510 C.3    84  PRO84       0.1372
     47  C         43.8940   26.9940  -52.7450 C.2    84  PRO84       0.2244
     48  O         43.7490   26.1380  -51.8690 O.2    84  PRO84      -0.2868
     49  CB        45.3640   28.2860  -51.1070 C.3    84  PRO84       0.0268
     50  CG        44.4120   29.2390  -50.4750 C.3    84  PRO84       0.0207
     51  CD        43.7850   30.0910  -51.5530 C.3    84  PRO84       0.0892
     52  N         36.1130   28.7540  -49.4870 N.3    93  TRP93      -0.1227
     53  CA        36.7570   28.5200  -48.2010 C.3    93  TRP93       0.1737
     54  C         37.4700   27.1870  -48.1070 C.2    93  TRP93       0.2595
     55  O         36.9150   26.1490  -48.4880 O.2    93  TRP93      -0.2718
     56  CB        35.7410   28.6810  -47.0760 C.3    93  TRP93       0.0564
     57  CG        35.3990   30.1330  -46.8380 C.ar   93  TRP93       0.0003
     58  CD1       34.7160   30.9910  -47.6920 C.ar   93  TRP93       0.0946
     59  CD2       35.7310   30.9060  -45.6850 C.ar   93  TRP93       0.0152
     60  NE1       34.6220   32.2420  -47.1290 N.ar   93  TRP93      -0.2442
     61  CE2       35.2220   32.2190  -45.8970 C.ar   93  TRP93       0.0810
     62  CE3       36.4070   30.6210  -44.4880 C.ar   93  TRP93       0.0012
     63  CZ2       35.3670   33.2420  -44.9500 C.ar   93  TRP93       0.0191
     64  CZ3       36.5650   31.6490  -43.5450 C.ar   93  TRP93       0.0001
     65  CH2       36.0420   32.9420  -43.7840 C.ar   93  TRP93       0.0015
     66  N         38.7120   27.2360  -47.6180 N.am   94  PHE94      -0.1963
     67  CA        39.4720   26.0420  -47.2600 C.3    94  PHE94       0.1756
     68  C         39.3520   24.8920  -48.2930 C.2    94  PHE94       0.2461
     69  O         38.8410   23.7990  -47.9640 O.2    94  PHE94      -0.2730
     70  CB        39.0190   25.5250  -45.8850 C.3    94  PHE94       0.0574
     71  CG        38.9490   26.5720  -44.8030 C.ar   94  PHE94      -0.0200
     72  CD1       39.7230   27.7330  -44.8520 C.ar   94  PHE94      -0.0042
     73  CD2       38.1240   26.3710  -43.6950 C.ar   94  PHE94      -0.0042
     74  CE1       39.6560   28.6740  -43.8250 C.ar   94  PHE94      -0.0003
     75  CE2       38.0580   27.3070  -42.6660 C.ar   94  PHE94      -0.0003
     76  CZ        38.8220   28.4590  -42.7330 C.ar   94  PHE94      -0.0000
     77  N         39.8220   25.1160  -49.5380 N.am   95  PRO95      -0.2716
     78  CA        39.6180   24.1220  -50.5900 C.3    95  PRO95       0.1536
     79  C         40.0440   22.6880  -50.2450 C.2    95  PRO95       0.2598
     80  O         39.2900   21.7450  -50.5310 O.2    95  PRO95      -0.2715
     81  CB        40.4450   24.6760  -51.7430 C.3    95  PRO95       0.0310
     82  CG        40.3250   26.1330  -51.5520 C.3    95  PRO95       0.0237
     83  CD        40.4750   26.3210  -50.0710 C.3    95  PRO95       0.0939
     84  N         41.2160   22.5040  -49.6400 N.am   96  GLN96      -0.1964
     85  CA        41.6840   21.1480  -49.3970 C.3    96  GLN96       0.1733
     86  C         40.8040   20.3700  -48.4110 C.2    96  GLN96       0.2616
     87  O         40.7700   19.1560  -48.4640 O.2    96  GLN96      -0.2715
     88  CB        43.1490   21.1140  -48.9830 C.3    96  GLN96       0.0408
     89  CG        43.3880   21.3380  -47.5060 C.3    96  GLN96       0.0908
     90  CD        43.2210   22.7860  -47.1260 C.2    96  GLN96       0.2608
     91  OE1       43.1060   23.6500  -47.9940 O.2    96  GLN96      -0.2717
     92  NE2       43.2180   23.0660  -45.8280 N.am   96  GLN96      -0.0878
     93  N         40.0750   21.0530  -47.5310 N.am   97  VAL97      -0.1977
     94  CA        39.1400   20.3440  -46.6480 C.3    97  VAL97       0.1596
     95  C         38.1040   19.6200  -47.5080 C.2    97  VAL97       0.2287
     96  O         37.8820   18.4120  -47.3650 O.2    97  VAL97      -0.2864
     97  CB        38.4580   21.2600  -45.5870 C.3    97  VAL97       0.0276
     98  CG1       37.4280   20.4900  -44.7960 C.3    97  VAL97       0.0022
     99  CG2       39.4810   21.8290  -44.6280 C.3    97  VAL97       0.0022
    100  N         44.1070   17.6150  -43.7370 N.3   136  SER136     -0.1217
    101  CA        44.0200   19.0070  -44.1480 C.3   136  SER136      0.1889
    102  C         45.3260   19.7690  -43.8440 C.2   136  SER136      0.2288
    103  O         45.8540   20.4890  -44.7020 O.2   136  SER136     -0.2866
    104  CB        42.8430   19.6750  -43.4390 C.3   136  SER136      0.2089
    105  OG        42.8560   21.0770  -43.6220 O.3   136  SER136     -0.2183
    106  N         47.6990   21.5190  -46.5440 N.3   140  TYR140     -0.1241
    107  CA        47.7880   22.9710  -46.5230 C.3   140  TYR140      0.1605
    108  C         49.2320   23.4710  -46.5340 C.2   140  TYR140      0.2264
    109  O         49.5700   24.4090  -47.2650 O.2   140  TYR140     -0.2867
    110  CB        47.0530   23.5520  -45.3310 C.3   140  TYR140      0.0534
    111  CG        46.8860   25.0480  -45.4220 C.ar  140  TYR140     -0.0201
    112  CD1       45.9530   25.6130  -46.3120 C.ar  140  TYR140     -0.0009
    113  CD2       47.6630   25.9080  -44.6260 C.ar  140  TYR140     -0.0009
    114  CE1       45.7900   26.9950  -46.3940 C.ar  140  TYR140      0.0417
    115  CE2       47.5100   27.2890  -44.6930 C.ar  140  TYR140      0.0417
    116  CZ        46.5720   27.8350  -45.5720 C.ar  140  TYR140      0.1957
    117  OH        46.4100   29.2030  -45.6320 O.3   140  TYR140     -0.2866
    118  N         32.1190   29.7780  -45.5420 N.3   177  LYS177     -0.1245
    119  CA        32.4470   29.5340  -44.1430 C.3   177  LYS177      0.1561
    120  C         31.3980   28.6230  -43.4320 C.2   177  LYS177      0.2260
    121  O         31.7900   27.7040  -42.7090 O.2   177  LYS177     -0.2867
    122  CB        32.6820   30.8840  -43.4480 C.3   177  LYS177      0.0271
    123  CG        32.7710   30.8830  -41.9260 C.3   177  LYS177      0.0035
    124  CD        34.1350   30.4400  -41.4150 C.3   177  LYS177      0.0206
    125  CE        34.2780   30.6860  -39.9150 C.3   177  LYS177      0.1093
    126  NZ        35.0790   29.5700  -39.3260 N.3   177  LYS177     -0.1314
    127  N         32.0780   24.9040  -44.0750 N.3   180  PHE180     -0.1227
    128  CA        33.0630   24.3210  -43.1900 C.3   180  PHE180      0.1736
    129  C         32.4580   24.0780  -41.8060 C.2   180  PHE180      0.2595
    130  O         32.6280   23.0010  -41.2410 O.2   180  PHE180     -0.2718
    131  CB        34.3050   25.1980  -43.0890 C.3   180  PHE180      0.0547
    132  CG        35.3190   24.6840  -42.1250 C.ar  180  PHE180     -0.0202
    133  CD1       36.1310   23.6110  -42.4610 C.ar  180  PHE180     -0.0042
    134  CD2       35.4650   25.2710  -40.8820 C.ar  180  PHE180     -0.0042
    135  CE1       37.0740   23.1210  -41.5690 C.ar  180  PHE180     -0.0003
    136  CE2       36.4150   24.7970  -39.9810 C.ar  180  PHE180     -0.0003
    137  CZ        37.2250   23.7180  -40.3220 C.ar  180  PHE180     -0.0000
    138  N         31.7450   25.0630  -41.2680 N.am  181  GLU181     -0.1979
    139  CA        31.1730   24.9190  -39.9430 C.3   181  GLU181      0.1602
    140  C         30.2650   23.7180  -39.8360 C.2   181  GLU181      0.2287
    141  O         30.3200   23.0060  -38.8490 O.2   181  GLU181     -0.2864
    142  CB        30.4400   26.1780  -39.5140 C.3   181  GLU181      0.0415
    143  CG        31.3670   27.3220  -39.1270 C.3   181  GLU181      0.1163
    144  CD        32.3640   26.9590  -38.0230 C.2   181  GLU181      0.3649
    145  OE1       31.9410   26.4110  -36.9590 O.co2 181  GLU181     -0.2457
    146  OE2       33.5780   27.2410  -38.2300 O.co2 181  GLU181     -0.2457
    147  N         43.8490   19.5650  -38.6850 N.3   206  HIS206     -0.1241
    148  CA        44.8000   20.5660  -39.1430 C.3   206  HIS206      0.1621
    149  C         45.5980   20.9830  -37.9240 C.2   206  HIS206      0.2264
    150  O         45.1610   21.8440  -37.1720 O.2   206  HIS206     -0.2867
    151  CB        44.0590   21.7610  -39.7560 C.3   206  HIS206      0.0745
    152  CG        44.9520   22.7440  -40.4470 C.ar  206  HIS206      0.0817
    153  ND1       44.7580   23.1270  -41.7570 N.ar  206  HIS206     -0.2268
    154  CD2       46.0490   23.4160  -40.0150 C.ar  206  HIS206      0.1154
    155  CE1       45.7020   23.9890  -42.1030 C.ar  206  HIS206      0.1986
    156  NE2       46.4930   24.1860  -41.0620 N.ar  206  HIS206     -0.2212
    157  N         44.0700   22.6150  -34.3590 N.3   209  PHE209     -0.1241
    158  CA        42.6980   23.1040  -34.4350 C.3   209  PHE209      0.1605
    159  C         41.7300   22.0630  -33.9320 C.2   209  PHE209      0.2264
    160  O         41.7660   20.9140  -34.3720 O.2   209  PHE209     -0.2867
    161  CB        42.3120   23.4320  -35.8640 C.3   209  PHE209      0.0534
    162  CG        42.7730   24.7720  -36.3340 C.ar  209  PHE209     -0.0203
    163  CD1       42.1150   25.9300  -35.9300 C.ar  209  PHE209     -0.0042
    164  CD2       43.8300   24.8780  -37.2410 C.ar  209  PHE209     -0.0042
    165  CE1       42.5250   27.1740  -36.3990 C.ar  209  PHE209     -0.0003
    166  CE2       44.2480   26.1200  -37.7140 C.ar  209  PHE209     -0.0003
    167  CZ        43.5950   27.2690  -37.2900 C.ar  209  PHE209     -0.0000
    168  N         38.6600   21.1220  -34.5370 N.3   211  ASN211     -0.1240
    169  CA        37.5980   21.2570  -35.5340 C.3   211  ASN211      0.1653
    170  C         36.4520   20.2820  -35.3220 C.2   211  ASN211      0.2266
    171  O         35.3040   20.6940  -35.1490 O.2   211  ASN211     -0.2867
    172  CB        38.1390   21.0570  -36.9540 C.3   211  ASN211      0.1155
    173  CG        39.0740   22.1640  -37.3950 C.2   211  ASN211      0.2627
    174  OD1       38.7720   23.3390  -37.2620 O.2   211  ASN211     -0.2716
    175  ND2       40.2090   21.7880  -37.9460 N.am  211  ASN211     -0.0877
@<TRIPOS>BOND
     1    45    46    1
     2    45    51    1
     3    47    46    1
     4    47    48    2
     5    46    49    1
     6    81    82    1
     7    81    78    1
     8    51    50    1
     9    82    83    1
    10    26    27    1
    11    49    50    1
    12    78    79    1
    13    78    77    1
    14    80    79    2
    15    27    28    1
    16    27    30    1
    17    79    84   am
    18    33    35   ar
    19    33    31   ar
    20    39    38    2
    21    83    77    1
    22    28    29    2
    23    38    37    1
    24    35    34   ar
    25    36    37    1
    26    84    85    1
    27    77    68   am
    28    52    53    1
    29    37    40    1
    30    85    88    1
    31    85    86    1
    32    31    30    1
    33    31    32   ar
    34    88    89    1
    35    34    32   ar
    36    55    54    2
    37    87    86    2
    38    86    93   am
    39    68    69    2
    40    68    67    1
    41    53    54    1
    42    53    56    1
    43    41    40    1
    44    41    42    1
    45    54    66   am
    46    91    90    2
    47    58    60   ar
    48    58    57   ar
    49    66    67    1
    50    93    94    1
    51    95    96    2
    52    95    94    1
    53    89    90    1
    54   109   108    2
    55    67    70    1
    56    44    43    1
    57    60    61   ar
    58    90    92   am
    59    56    57    1
    60    43    42    1
    61    57    59   ar
    62    94    97    1
    63    19    18    2
    64   106   107    1
    65   108   107    1
    66   107   110    1
    67   114   112   ar
    68   114   116   ar
    69   112   111   ar
    70    18    17    1
    71    61    59   ar
    72    61    63   ar
    73    70    71    1
    74     5     6    1
    75     5     2    1
    76    59    62   ar
    77   117   116    1
    78    97    98    1
    79    97    99    1
    80   116   115   ar
    81   118   119    1
    82     7     6    2
    83   111   110    1
    84   111   113   ar
    85     6     8   am
    86    20    17    1
    87    20    21    1
    88    63    65   ar
    89    17    16    1
    90     1     2    1
    91    72    71   ar
    92    72    74   ar
    93    71    73   ar
    94   103   102    2
    95   115   113   ar
    96     4     3    2
    97     2     3    1
    98    62    64   ar
    99    21    22   ar
   100    21    23   ar
   101   101   102    1
   102   101   100    1
   103   101   104    1
   104   119   122    1
   105   119   120    1
   106   127   128    1
   107     3     9   am
   108    16    11   am
   109    74    76   ar
   110    65    64   ar
   111    73    75   ar
   112    22    24   ar
   113   105   104    1
   114    23    25   ar
   115   122   123    1
   116   120   121    2
   117    12    11    2
   118    11    10    1
   119   128   131    1
   120   128   129    1
   121   131   132    1
   122     9    10    1
   123    76    75   ar
   124    24    25   ar
   125   133   132   ar
   126   133   135   ar
   127    10    13    1
   128   132   134   ar
   129   155   153   ar
   130   155   156   ar
   131   123   124    1
   132   129   138   am
   133   129   130    2
   134   153   152   ar
   135   135   137   ar
   136   124   125    1
   137   138   139    1
   138   156   154   ar
   139   134   136   ar
   140    13    14    1
   141    13    15    1
   142   152   154   ar
   143   152   151    1
   144   137   136   ar
   145   139   140    1
   146   139   142    1
   147   125   126    1
   148   140   141    2
   149   151   148    1
   150   142   143    1
   151   148   147    1
   152   148   149    1
   153   143   144    1
   154   146   144   ar
   155   144   145   ar
   156   175   173   am
   157   149   150    2
   158   166   167   ar
   159   166   164   ar
   160   173   174    2
   161   173   172    1
   162   167   165   ar
   163   164   162   ar
   164   172   169    1
   165   165   163   ar
   166   162   163   ar
   167   162   161    1
   168   161   158    1
   169   169   170    1
   170   169   168    1
   171   170   171    2
   172   158   157    1
   173   158   159    1
   174   160   159    2
