@<TRIPOS>MOLECULE
tmp/4q18B01.pdb
 180 167 0 0 0
SMALL
GASTEIGER

@<TRIPOS>ATOM
      1  N        -27.3030  -17.2660  -29.8480 N.3    12  ILE12      -0.1245
      2  CA       -27.8270  -18.2340  -28.8920 C.3    12  ILE12       0.1561
      3  C        -27.9380  -19.6420  -29.5280 C.2    12  ILE12       0.2260
      4  O        -28.4670  -19.7950  -30.6260 O.2    12  ILE12      -0.2867
      5  CB       -29.2180  -17.7660  -28.3810 C.3    12  ILE12       0.0252
      6  CG1      -29.0520  -16.4620  -27.5830 C.3    12  ILE12       0.0019
      7  CG2      -29.8860  -18.8410  -27.5280 C.3    12  ILE12       0.0019
      8  CD1      -30.2570  -16.0150  -26.7930 C.3    12  ILE12       0.0001
      9  N        -19.0480  -17.9350  -20.4440 N.3    35  GLU35      -0.1245
     10  CA       -19.8150  -16.7100  -20.3470 C.3    35  GLU35       0.1567
     11  C        -20.5970  -16.7500  -19.0360 C.2    35  GLU35       0.2260
     12  O        -21.3540  -17.6830  -18.8440 O.2    35  GLU35      -0.2867
     13  CB       -20.7860  -16.6310  -21.4860 C.3    35  GLU35       0.0388
     14  CG       -21.6810  -15.4160  -21.3690 C.3    35  GLU35       0.1160
     15  CD       -22.6260  -15.3140  -22.5070 C.2    35  GLU35       0.3649
     16  OE1      -23.4820  -16.2250  -22.6070 O.co2  35  GLU35      -0.2457
     17  OE2      -22.5370  -14.3140  -23.2790 O.co2  35  GLU35      -0.2457
     18  N        -23.3300  -15.2280  -17.8200 N.3    37  VAL37      -0.1245
     19  CA       -24.7880  -15.3580  -17.9800 C.3    37  VAL37       0.1561
     20  C        -25.2370  -16.7740  -18.3880 C.2    37  VAL37       0.2260
     21  O        -26.2570  -17.2340  -17.9010 O.2    37  VAL37      -0.2867
     22  CB       -25.4180  -14.2720  -18.9080 C.3    37  VAL37       0.0252
     23  CG1      -24.5400  -13.9370  -20.0910 C.3    37  VAL37       0.0019
     24  CG2      -26.8000  -14.6930  -19.4140 C.3    37  VAL37       0.0019
     25  N        -28.0480  -19.0850  -16.7720 N.3    41  SER41      -0.1217
     26  CA       -29.1030  -19.6200  -17.6520 C.3    41  SER41       0.1889
     27  C        -29.3250  -21.1100  -17.4060 C.2    41  SER41       0.2288
     28  O        -28.3830  -21.8230  -17.0560 O.2    41  SER41      -0.2866
     29  CB       -28.7550  -19.4010  -19.1380 C.3    41  SER41       0.2089
     30  OG       -28.8470  -18.0450  -19.5440 O.3    41  SER41      -0.2183
     31  N        -31.8820  -12.3870  -14.0120 N.3    53  LEU53      -0.1245
     32  CA       -32.2590  -13.1250  -15.2260 C.3    53  LEU53       0.1561
     33  C        -33.7640  -13.3940  -15.2960 C.2    53  LEU53       0.2260
     34  O        -34.4000  -13.1900  -16.3460 O.2    53  LEU53      -0.2867
     35  CB       -31.5410  -14.4740  -15.2510 C.3    53  LEU53       0.0270
     36  CG       -31.7510  -15.3310  -16.4990 C.3    53  LEU53       0.0019
     37  CD1      -30.4430  -15.4850  -17.2660 C.3    53  LEU53       0.0001
     38  CD2      -32.3300  -16.6920  -16.1410 C.3    53  LEU53       0.0001
     39  N        -35.4920  -10.0570  -15.4520 N.3    56  MET56      -0.1230
     40  CA       -35.3110   -9.6550  -16.8350 C.3    56  MET56       0.1702
     41  C        -36.3110  -10.3760  -17.7520 C.2    56  MET56       0.2592
     42  O        -37.0420   -9.7420  -18.5410 O.2    56  MET56      -0.2718
     43  CB       -33.8570   -9.9560  -17.1890 C.3    56  MET56       0.0401
     44  CG       -33.4000   -9.7460  -18.6060 C.3    56  MET56       0.0596
     45  SD       -33.6000   -8.0700  -19.1520 S.3    56  MET56      -0.1393
     46  CE       -33.1290   -8.3060  -20.8590 C.3    56  MET56       0.0692
     47  N        -36.3580  -11.6980  -17.6590 N.am   57  TYR57      -0.1976
     48  CA       -37.3440  -12.4190  -18.4530 C.3    57  TYR57       0.1639
     49  C        -38.7420  -11.9090  -18.0990 C.2    57  TYR57       0.2290
     50  O        -39.5040  -11.5700  -18.9920 O.2    57  TYR57      -0.2864
     51  CB       -37.2390  -13.9320  -18.2810 C.3    57  TYR57       0.0560
     52  CG       -38.2060  -14.6560  -19.1930 C.ar   57  TYR57      -0.0198
     53  CD1      -37.8930  -14.8800  -20.5230 C.ar   57  TYR57      -0.0009
     54  CD2      -39.4490  -15.0840  -18.7260 C.ar   57  TYR57      -0.0009
     55  CE1      -38.7770  -15.5260  -21.3570 C.ar   57  TYR57       0.0417
     56  CE2      -40.3370  -15.7430  -19.5570 C.ar   57  TYR57       0.0417
     57  CZ       -39.9910  -15.9530  -20.8700 C.ar   57  TYR57       0.1957
     58  OH       -40.8510  -16.5910  -21.7070 O.3    57  TYR57      -0.2866
     59  N        -38.6470   -7.0860  -19.3570 N.3    60  PRO60      -0.2116
     60  CA       -37.4460   -6.5630  -20.0050 C.3    60  PRO60       0.1372
     61  C        -37.2980   -5.0540  -19.9110 C.2    60  PRO60       0.2244
     62  O        -36.1930   -4.5650  -19.7920 O.2    60  PRO60      -0.2868
     63  CB       -37.6060   -6.9900  -21.4670 C.3    60  PRO60       0.0268
     64  CG       -38.5870   -8.1090  -21.4500 C.3    60  PRO60       0.0207
     65  CD       -39.4710   -7.8970  -20.2690 C.3    60  PRO60       0.0892
     66  N        -29.5110   -5.6890  -15.6490 N.3    67  PHE67      -0.1227
     67  CA       -28.9790   -6.9390  -16.1630 C.3    67  PHE67       0.1736
     68  C        -27.7230   -6.7080  -17.0010 C.2    67  PHE67       0.2595
     69  O        -26.6740   -7.3150  -16.7620 O.2    67  PHE67      -0.2718
     70  CB       -30.0630   -7.6370  -17.0110 C.3    67  PHE67       0.0547
     71  CG       -29.6380   -8.9680  -17.5630 C.ar   67  PHE67      -0.0202
     72  CD1      -29.9530  -10.1470  -16.8890 C.ar   67  PHE67      -0.0042
     73  CD2      -28.8860   -9.0480  -18.7270 C.ar   67  PHE67      -0.0042
     74  CE1      -29.5530  -11.3890  -17.3910 C.ar   67  PHE67      -0.0003
     75  CE2      -28.4790  -10.2810  -19.2240 C.ar   67  PHE67      -0.0003
     76  CZ       -28.8140  -11.4490  -18.5630 C.ar   67  PHE67      -0.0000
     77  N        -27.8390   -5.8320  -17.9920 N.am   68  GLN68      -0.1979
     78  CA       -26.7100   -5.5370  -18.8590 C.3    68  GLN68       0.1601
     79  C        -25.4750   -5.0660  -18.1080 C.2    68  GLN68       0.2287
     80  O        -24.3890   -5.5270  -18.4410 O.2    68  GLN68      -0.2864
     81  CB       -27.0970   -4.5800  -19.9660 C.3    68  GLN68       0.0394
     82  CG       -28.0690   -5.1910  -20.9470 C.3    68  GLN68       0.0908
     83  CD       -27.5080   -6.4330  -21.6180 C.2    68  GLN68       0.2608
     84  OE1      -26.3600   -6.4390  -22.0330 O.2    68  GLN68      -0.2717
     85  NE2      -28.3120   -7.4950  -21.6930 N.am   68  GLN68      -0.0878
     86  N        -24.1260   -8.2540  -16.0420 N.3    71  ALA71      -0.1245
     87  CA       -23.5780   -9.2690  -16.9320 C.3    71  ALA71       0.1562
     88  C        -22.2090   -8.8430  -17.4640 C.2    71  ALA71       0.2260
     89  O        -21.2540   -9.6410  -17.4960 O.2    71  ALA71      -0.2867
     90  CB       -24.5320   -9.5420  -18.0570 C.3    71  ALA71       0.0290
     91  N        -18.7800  -10.6040  -16.4600 N.3    75  ARG75      -0.1245
     92  CA       -17.9120  -11.0710  -17.5600 C.3    75  ARG75       0.1563
     93  C        -16.4680  -10.5680  -17.4140 C.2    75  ARG75       0.2260
     94  O        -15.5200  -11.3810  -17.4830 O.2    75  ARG75      -0.2867
     95  CB       -18.4660  -10.6980  -18.9400 C.3    75  ARG75       0.0307
     96  CG       -17.4850  -10.9860  -20.0860 C.3    75  ARG75       0.0489
     97  CD       -17.8680  -10.3910  -21.4430 C.3    75  ARG75       0.2205
     98  NE       -19.2150  -10.7470  -21.8990 N.pl3  75  ARG75      -0.0865
     99  CZ       -19.6070  -11.9800  -22.2490 C.cat  75  ARG75       0.5346
    100  NH1      -18.7720  -13.0300  -22.2020 N.pl3  75  ARG75       0.1354
    101  NH2      -20.8470  -12.1680  -22.6870 N.pl3  75  ARG75       0.1354
    102  N        -17.8000  -15.3360  -25.7470 N.3    99  ARG99      -0.1245
    103  CA       -18.3060  -13.9740  -26.0180 C.3    99  ARG99       0.1563
    104  C        -17.4050  -12.8860  -25.4050 C.2    99  ARG99       0.2260
    105  O        -16.3820  -13.1850  -24.8010 O.2    99  ARG99      -0.2867
    106  CB       -19.7720  -13.8070  -25.6150 C.3    99  ARG99       0.0307
    107  CG       -20.7800  -14.4440  -26.5680 C.3    99  ARG99       0.0489
    108  CD       -22.0580  -13.6070  -26.6070 C.3    99  ARG99       0.2205
    109  NE       -23.1430  -14.1920  -27.4040 N.pl3  99  ARG99      -0.0865
    110  CZ       -24.1420  -14.9230  -26.9100 C.cat  99  ARG99       0.5346
    111  NH1      -24.2230  -15.1770  -25.6130 N.pl3  99  ARG99       0.1354
    112  NH2      -25.0840  -15.3920  -27.7200 N.pl3  99  ARG99       0.1354
    113  N        -21.8200   -8.1180  -25.5110 N.3   104  ASP104     -0.1239
    114  CA       -22.7140   -7.5740  -24.4720 C.3   104  ASP104      0.1674
    115  C        -23.4580   -6.3460  -24.9600 C.2   104  ASP104      0.2266
    116  O        -24.6810   -6.2380  -24.8240 O.2   104  ASP104     -0.2867
    117  CB       -21.9300   -7.1760  -23.2310 C.3   104  ASP104      0.1410
    118  CG       -21.4060   -8.3470  -22.4690 C.2   104  ASP104      0.3668
    119  OD1      -22.0970   -9.4000  -22.3860 O.co2 104  ASP104     -0.2456
    120  OD2      -20.2920   -8.2040  -21.9230 O.co2 104  ASP104     -0.2456
    121  N        -26.3590   -7.5710  -27.6060 N.3   108  PHE108     -0.1241
    122  CA       -27.4620   -7.6080  -26.6460 C.3   108  PHE108      0.1605
    123  C        -27.9860   -6.2450  -26.1650 C.2   108  PHE108      0.2264
    124  O        -29.1980   -6.0360  -26.1890 O.2   108  PHE108     -0.2867
    125  CB       -27.1420   -8.5360  -25.4520 C.3   108  PHE108      0.0534
    126  CG       -27.0760   -9.9940  -25.8270 C.ar  108  PHE108     -0.0203
    127  CD1      -28.1760  -10.6370  -26.3870 C.ar  108  PHE108     -0.0042
    128  CD2      -25.9000  -10.7030  -25.6860 C.ar  108  PHE108     -0.0042
    129  CE1      -28.1030  -11.9680  -26.7690 C.ar  108  PHE108     -0.0003
    130  CE2      -25.8120  -12.0300  -26.0810 C.ar  108  PHE108     -0.0003
    131  CZ       -26.9120  -12.6750  -26.6050 C.ar  108  PHE108     -0.0000
    132  N        -29.5540   -4.2570  -28.9520 N.3   111  ASN111     -0.1225
    133  CA       -30.8150   -4.9110  -29.3030 C.3   111  ASN111      0.1785
    134  C        -31.9000   -4.4330  -28.3670 C.2   111  ASN111      0.2597
    135  O        -32.8960   -3.8660  -28.8070 O.2   111  ASN111     -0.2718
    136  CB       -30.7060   -6.4300  -29.2660 C.3   111  ASN111      0.1169
    137  CG       -31.8950   -7.1180  -29.9230 C.2   111  ASN111      0.2627
    138  OD1      -32.5100   -8.0180  -29.3440 O.2   111  ASN111     -0.2716
    139  ND2      -32.2300   -6.6870  -31.1370 N.am  111  ASN111     -0.0877
    140  N        -31.6700   -4.6020  -27.0730 N.am  112  LEU112     -0.1980
    141  CA       -32.6300   -4.1620  -26.0730 C.3   112  LEU112      0.1596
    142  C        -32.9730   -2.6600  -26.1440 C.2   112  LEU112      0.2287
    143  O        -34.0810   -2.3160  -25.8150 O.2   112  LEU112     -0.2864
    144  CB       -32.1840   -4.5680  -24.6670 C.3   112  LEU112      0.0297
    145  CG       -32.2750   -6.0630  -24.3360 C.3   112  LEU112      0.0022
    146  CD1      -31.3660   -6.4680  -23.1720 C.3   112  LEU112      0.0001
    147  CD2      -33.7080   -6.4990  -24.0610 C.3   112  LEU112      0.0001
    148  N        -35.2430   -2.3170  -29.1930 N.3   115  SER115     -0.1217
    149  CA       -36.5570   -2.8420  -28.8770 C.3   115  SER115      0.1889
    150  C        -37.3180   -2.1020  -27.7610 C.2   115  SER115      0.2288
    151  O        -38.3040   -2.6270  -27.2670 O.2   115  SER115     -0.2866
    152  CB       -36.4300   -4.3060  -28.4770 C.3   115  SER115      0.2089
    153  OG       -36.3250   -4.4160  -27.0670 O.3   115  SER115     -0.2183
    154  N        -36.7360   -1.5790  -24.5690 N.3   117  SER117     -0.1217
    155  CA       -36.6660   -2.1020  -23.2200 C.3   117  SER117      0.1889
    156  C        -35.6420   -1.3300  -22.3730 C.2   117  SER117      0.2288
    157  O        -35.6050   -1.5010  -21.1760 O.2   117  SER117     -0.2866
    158  CB       -36.2310   -3.5780  -23.2640 C.3   117  SER117      0.2089
    159  OG       -37.0190   -4.2570  -24.1960 O.3   117  SER117     -0.2183
    160  N        -36.7950  -13.3340  -32.8450 N.3   175  TYR175     -0.1241
    161  CA       -35.7200  -12.7420  -32.0490 C.3   175  TYR175      0.1605
    162  C        -34.3230  -13.1210  -32.5940 C.2   175  TYR175      0.2264
    163  O        -33.3670  -12.3530  -32.4780 O.2   175  TYR175     -0.2867
    164  CB       -35.8690  -13.2070  -30.6030 C.3   175  TYR175      0.0534
    165  CG       -35.0360  -12.4720  -29.5900 C.ar  175  TYR175     -0.0201
    166  CD1      -35.0670  -11.0890  -29.5130 C.ar  175  TYR175     -0.0009
    167  CD2      -34.2530  -13.1640  -28.6650 C.ar  175  TYR175     -0.0009
    168  CE1      -34.3150  -10.4110  -28.5720 C.ar  175  TYR175      0.0417
    169  CE2      -33.4970  -12.4920  -27.7170 C.ar  175  TYR175      0.0417
    170  CZ       -33.5330  -11.1120  -27.6710 C.ar  175  TYR175      0.1957
    171  OH       -32.7960  -10.4250  -26.7300 O.3   175  TYR175     -0.2866
    172  N        -33.1400  -11.0200  -35.7780 N.3   178  LYS178     -0.1245
    173  CA       -32.6400   -9.7720  -35.2230 C.3   178  LYS178      0.1561
    174  C        -31.2130   -9.9570  -34.7040 C.2   178  LYS178      0.2260
    175  O        -30.2870   -9.2720  -35.1620 O.2   178  LYS178     -0.2867
    176  CB       -33.5490   -9.2940  -34.0680 C.3   178  LYS178      0.0271
    177  CG       -34.9870   -8.9340  -34.4640 C.3   178  LYS178      0.0035
    178  CD       -35.7590   -8.3680  -33.2650 C.3   178  LYS178      0.0206
    179  CE       -37.1260   -7.8170  -33.6400 C.3   178  LYS178      0.1093
    180  NZ       -37.5580   -6.7630  -32.6890 N.3   178  LYS178     -0.1314
@<TRIPOS>BOND
     1   172   173    1
     2   173   174    1
     3   173   176    1
     4   175   174    2
     5   177   176    1
     6   177   178    1
     7   179   178    1
     8   179   180    1
     9   160   161    1
    10   162   163    2
    11   162   161    1
    12   161   164    1
    13   139   137   am
    14     4     3    2
    15   164   165    1
    16   137   138    2
    17   137   136    1
    18     1     2    1
    19   165   166   ar
    20   165   167   ar
    21     3     2    1
    22   166   168   ar
    23   133   136    1
    24   133   132    1
    25   133   134    1
    26   148   149    1
    27     2     5    1
    28   149   152    1
    29   149   150    1
    30   135   134    2
    31   167   169   ar
    32   168   170   ar
    33   152   153    1
    34     5     6    1
    35     5     7    1
    36   134   140   am
    37   150   151    2
    38   112   110    1
    39   169   170   ar
    40   170   171    1
    41   121   122    1
    42     6     8    1
    43   109   110    2
    44   109   108    1
    45   140   141    1
    46   110   111    1
    47   129   131   ar
    48   129   127   ar
    49   122   123    1
    50   122   125    1
    51   108   107    1
    52   131   130   ar
    53   107   106    1
    54   127   126   ar
    55   124   123    2
    56   142   141    1
    57   142   143    2
    58   130   128   ar
    59   141   144    1
    60   103   102    1
    61   103   106    1
    62   103   104    1
    63   126   128   ar
    64   126   125    1
    65   113   114    1
    66   104   105    2
    67   115   116    2
    68   115   114    1
    69   144   145    1
    70   154   155    1
    71   114   117    1
    72   145   147    1
    73   145   146    1
    74   159   158    1
    75    17    15   ar
    76   158   155    1
    77   117   118    1
    78   155   156    1
    79   101    99    1
    80    16    15   ar
    81    15    14    1
    82   118   119   ar
    83   118   120   ar
    84   156   157    2
    85    99   100    1
    86    99    98    2
    87    84    83    2
    88    98    97    1
    89    58    57    1
    90    85    83   am
    91    83    82    1
    92    13    14    1
    93    13    10    1
    94    63    64    1
    95    63    60    1
    96    64    65    1
    97    97    96    1
    98    55    57   ar
    99    55    53   ar
   100    82    81    1
   101    57    56   ar
   102    46    45    1
   103    53    52   ar
   104     9    10    1
   105    10    11    1
   106    65    59    1
   107    23    22    1
   108    96    95    1
   109    60    61    1
   110    60    59    1
   111    81    78    1
   112    61    62    2
   113    56    54   ar
   114    30    29    1
   115    24    22    1
   116    75    73   ar
   117    75    76   ar
   118    52    54   ar
   119    52    51    1
   120    45    44    1
   121    29    26    1
   122    11    12    2
   123    50    49    2
   124    95    92    1
   125    22    19    1
   126    78    79    1
   127    78    77    1
   128    73    71   ar
   129    44    43    1
   130    76    74   ar
   131    42    41    2
   132    48    51    1
   133    48    49    1
   134    48    47    1
   135    80    79    2
   136    20    19    1
   137    20    21    2
   138    90    87    1
   139    77    68   am
   140    19    18    1
   141    41    47   am
   142    41    40    1
   143    26    27    1
   144    26    25    1
   145    71    70    1
   146    71    72   ar
   147    92    93    1
   148    92    91    1
   149    89    88    2
   150    94    93    2
   151    88    87    1
   152    27    28    2
   153    74    72   ar
   154    37    36    1
   155    43    40    1
   156    70    67    1
   157    68    69    2
   158    68    67    1
   159    87    86    1
   160    40    39    1
   161    36    38    1
   162    36    35    1
   163    34    33    2
   164    67    66    1
   165    33    32    1
   166    35    32    1
   167    32    31    1
