@<TRIPOS>MOLECULE
tmp/4q18B02.pdb
 112 106 0 0 0
SMALL
GASTEIGER

@<TRIPOS>ATOM
      1  N        -27.3030  -17.2660  -29.8480 N.3    12  ILE12      -0.1245
      2  CA       -27.8270  -18.2340  -28.8920 C.3    12  ILE12       0.1561
      3  C        -27.9380  -19.6420  -29.5280 C.2    12  ILE12       0.2260
      4  O        -28.4670  -19.7950  -30.6260 O.2    12  ILE12      -0.2867
      5  CB       -29.2180  -17.7660  -28.3810 C.3    12  ILE12       0.0252
      6  CG1      -29.0520  -16.4620  -27.5830 C.3    12  ILE12       0.0019
      7  CG2      -29.8860  -18.8410  -27.5280 C.3    12  ILE12       0.0019
      8  CD1      -30.2570  -16.0150  -26.7930 C.3    12  ILE12       0.0001
      9  N        -23.3300  -15.2280  -17.8200 N.3    37  VAL37      -0.1245
     10  CA       -24.7880  -15.3580  -17.9800 C.3    37  VAL37       0.1561
     11  C        -25.2370  -16.7740  -18.3880 C.2    37  VAL37       0.2260
     12  O        -26.2570  -17.2340  -17.9010 O.2    37  VAL37      -0.2867
     13  CB       -25.4180  -14.2720  -18.9080 C.3    37  VAL37       0.0252
     14  CG1      -24.5400  -13.9370  -20.0910 C.3    37  VAL37       0.0019
     15  CG2      -26.8000  -14.6930  -19.4140 C.3    37  VAL37       0.0019
     16  N        -28.0480  -19.0850  -16.7720 N.3    41  SER41      -0.1217
     17  CA       -29.1030  -19.6200  -17.6520 C.3    41  SER41       0.1889
     18  C        -29.3250  -21.1100  -17.4060 C.2    41  SER41       0.2288
     19  O        -28.3830  -21.8230  -17.0560 O.2    41  SER41      -0.2866
     20  CB       -28.7550  -19.4010  -19.1380 C.3    41  SER41       0.2089
     21  OG       -28.8470  -18.0450  -19.5440 O.3    41  SER41      -0.2183
     22  N        -31.8820  -12.3870  -14.0120 N.3    53  LEU53      -0.1245
     23  CA       -32.2590  -13.1250  -15.2260 C.3    53  LEU53       0.1561
     24  C        -33.7640  -13.3940  -15.2960 C.2    53  LEU53       0.2260
     25  O        -34.4000  -13.1900  -16.3460 O.2    53  LEU53      -0.2867
     26  CB       -31.5410  -14.4740  -15.2510 C.3    53  LEU53       0.0270
     27  CG       -31.7510  -15.3310  -16.4990 C.3    53  LEU53       0.0019
     28  CD1      -30.4430  -15.4850  -17.2660 C.3    53  LEU53       0.0001
     29  CD2      -32.3300  -16.6920  -16.1410 C.3    53  LEU53       0.0001
     30  N        -36.3580  -11.6980  -17.6590 N.3    57  TYR57      -0.1241
     31  CA       -37.3440  -12.4190  -18.4530 C.3    57  TYR57       0.1605
     32  C        -38.7420  -11.9090  -18.0990 C.2    57  TYR57       0.2264
     33  O        -39.5040  -11.5700  -18.9920 O.2    57  TYR57      -0.2867
     34  CB       -37.2390  -13.9320  -18.2810 C.3    57  TYR57       0.0534
     35  CG       -38.2060  -14.6560  -19.1930 C.ar   57  TYR57      -0.0201
     36  CD1      -37.8930  -14.8800  -20.5230 C.ar   57  TYR57      -0.0009
     37  CD2      -39.4490  -15.0840  -18.7260 C.ar   57  TYR57      -0.0009
     38  CE1      -38.7770  -15.5260  -21.3570 C.ar   57  TYR57       0.0417
     39  CE2      -40.3370  -15.7430  -19.5570 C.ar   57  TYR57       0.0417
     40  CZ       -39.9910  -15.9530  -20.8700 C.ar   57  TYR57       0.1957
     41  OH       -40.8510  -16.5910  -21.7070 O.3    57  TYR57      -0.2866
     42  N        -26.3590   -7.5710  -27.6060 N.3   108  PHE108     -0.1241
     43  CA       -27.4620   -7.6080  -26.6460 C.3   108  PHE108      0.1605
     44  C        -27.9860   -6.2450  -26.1650 C.2   108  PHE108      0.2264
     45  O        -29.1980   -6.0360  -26.1890 O.2   108  PHE108     -0.2867
     46  CB       -27.1420   -8.5360  -25.4520 C.3   108  PHE108      0.0534
     47  CG       -27.0760   -9.9940  -25.8270 C.ar  108  PHE108     -0.0203
     48  CD1      -28.1760  -10.6370  -26.3870 C.ar  108  PHE108     -0.0042
     49  CD2      -25.9000  -10.7030  -25.6860 C.ar  108  PHE108     -0.0042
     50  CE1      -28.1030  -11.9680  -26.7690 C.ar  108  PHE108     -0.0003
     51  CE2      -25.8120  -12.0300  -26.0810 C.ar  108  PHE108     -0.0003
     52  CZ       -26.9120  -12.6750  -26.6050 C.ar  108  PHE108     -0.0000
     53  N        -34.3550  -27.0340  -22.7420 N.3   165  ARG165     -0.1245
     54  CA       -34.7020  -26.0830  -21.6840 C.3   165  ARG165      0.1563
     55  C        -36.0590  -25.4230  -21.9630 C.2   165  ARG165      0.2260
     56  O        -36.1460  -24.5060  -22.7880 O.2   165  ARG165     -0.2867
     57  CB       -33.6340  -24.9920  -21.5930 C.3   165  ARG165      0.0307
     58  CG       -32.4450  -25.2820  -20.6920 C.3   165  ARG165      0.0489
     59  CD       -31.7700  -23.9480  -20.3810 C.3   165  ARG165      0.2205
     60  NE       -30.5010  -24.0480  -19.6520 N.pl3 165  ARG165     -0.0865
     61  CZ       -29.3590  -23.4290  -19.9800 C.cat 165  ARG165      0.5346
     62  NH1      -29.2720  -22.6340  -21.0530 N.pl3 165  ARG165      0.1354
     63  NH2      -28.2810  -23.6020  -19.2180 N.pl3 165  ARG165      0.1354
     64  N        -37.5560  -23.2890  -20.2410 N.3   167  GLU167     -0.1231
     65  CA       -37.3700  -21.8680  -19.9310 C.3   167  GLU167      0.1699
     66  C        -36.9080  -21.0360  -21.1450 C.2   167  GLU167      0.2592
     67  O        -36.9760  -19.8010  -21.1120 O.2   167  GLU167     -0.2718
     68  CB       -36.3620  -21.6960  -18.7920 C.3   167  GLU167      0.0402
     69  CG       -36.5280  -22.6420  -17.6060 C.3   167  GLU167      0.1161
     70  CD       -35.5190  -23.7810  -17.6070 C.2   167  GLU167      0.3649
     71  OE1      -35.4570  -24.5470  -18.5950 O.co2 167  GLU167     -0.2457
     72  OE2      -34.7810  -23.9100  -16.6120 O.co2 167  GLU167     -0.2457
     73  N        -36.4130  -21.7340  -22.1750 N.am  168  GLU168     -0.1979
     74  CA       -36.0090  -21.1710  -23.4660 C.3   168  GLU168      0.1602
     75  C        -36.9170  -21.6090  -24.6120 C.2   168  GLU168      0.2287
     76  O        -36.8250  -21.0500  -25.6990 O.2   168  GLU168     -0.2864
     77  CB       -34.5940  -21.6690  -23.8390 C.3   168  GLU168      0.0415
     78  CG       -33.4450  -21.1380  -23.0010 C.3   168  GLU168      0.1163
     79  CD       -32.0880  -21.7080  -23.4060 C.2   168  GLU168      0.3649
     80  OE1      -31.9920  -22.4170  -24.4470 O.co2 168  GLU168     -0.2457
     81  OE2      -31.1180  -21.4330  -22.6630 O.co2 168  GLU168     -0.2457
     82  N        -39.7820  -21.2340  -25.6460 N.3   170  GLY170     -0.1210
     83  CA       -40.6050  -20.2030  -26.2520 C.3   170  GLY170      0.1956
     84  C        -39.8530  -19.0830  -26.9480 C.2   170  GLY170      0.2612
     85  O        -40.4930  -18.2210  -27.5720 O.2   170  GLY170     -0.2717
     86  N        -38.5170  -19.0750  -26.8520 N.am  171  ILE171     -0.1966
     87  CA       -37.7170  -18.0530  -27.5290 C.3   171  ILE171      0.1712
     88  C        -38.1450  -18.0990  -28.9740 C.2   171  ILE171      0.2458
     89  O        -38.0810  -19.1590  -29.5840 O.2   171  ILE171     -0.2730
     90  CB       -36.2000  -18.3070  -27.4920 C.3   171  ILE171      0.0289
     91  CG1      -35.6630  -18.1870  -26.0670 C.3   171  ILE171      0.0022
     92  CG2      -35.4750  -17.2950  -28.3710 C.3   171  ILE171      0.0023
     93  CD1      -34.2740  -18.7680  -25.8680 C.3   171  ILE171      0.0001
     94  N        -38.5740  -16.9570  -29.5230 N.am  172  PRO172     -0.2727
     95  CA       -39.1400  -16.9400  -30.8530 C.3   172  PRO172      0.1402
     96  C        -38.0850  -16.8640  -31.9230 C.2   172  PRO172      0.2269
     97  O        -37.1050  -16.1450  -31.7730 O.2   172  PRO172     -0.2865
     98  CB       -39.9830  -15.6490  -30.8670 C.3   172  PRO172      0.0296
     99  CG       -39.8100  -15.0000  -29.5280 C.3   172  PRO172      0.0237
    100  CD       -38.5870  -15.6070  -28.9350 C.3   172  PRO172      0.0939
    101  N        -36.7950  -13.3340  -32.8450 N.3   175  TYR175     -0.1241
    102  CA       -35.7200  -12.7420  -32.0490 C.3   175  TYR175      0.1605
    103  C        -34.3230  -13.1210  -32.5940 C.2   175  TYR175      0.2264
    104  O        -33.3670  -12.3530  -32.4780 O.2   175  TYR175     -0.2867
    105  CB       -35.8690  -13.2070  -30.6030 C.3   175  TYR175      0.0534
    106  CG       -35.0360  -12.4720  -29.5900 C.ar  175  TYR175     -0.0201
    107  CD1      -35.0670  -11.0890  -29.5130 C.ar  175  TYR175     -0.0009
    108  CD2      -34.2530  -13.1640  -28.6650 C.ar  175  TYR175     -0.0009
    109  CE1      -34.3150  -10.4110  -28.5720 C.ar  175  TYR175      0.0417
    110  CE2      -33.4970  -12.4920  -27.7170 C.ar  175  TYR175      0.0417
    111  CZ       -33.5330  -11.1120  -27.6710 C.ar  175  TYR175      0.1957
    112  OH       -32.7960  -10.4250  -26.7300 O.3   175  TYR175     -0.2866
@<TRIPOS>BOND
     1   101   102    1
     2   103   104    2
     3   103   102    1
     4   102   105    1
     5    96    97    2
     6    96    95    1
     7    98    95    1
     8    98    99    1
     9    95    94    1
    10     4     3    2
    11   105   106    1
    12     1     2    1
    13   106   107   ar
    14   106   108   ar
    15    89    88    2
    16    99   100    1
    17     3     2    1
    18    94    88   am
    19    94   100    1
    20   107   109   ar
    21    88    87    1
    22     2     5    1
    23   108   110   ar
    24   109   111   ar
    25     5     6    1
    26     5     7    1
    27    92    90    1
    28   110   111   ar
    29   111   112    1
    30    42    43    1
    31     6     8    1
    32    85    84    2
    33    87    90    1
    34    87    86    1
    35    90    91    1
    36    84    86   am
    37    84    83    1
    38    50    52   ar
    39    50    48   ar
    40    43    44    1
    41    43    46    1
    42    52    51   ar
    43    48    47   ar
    44    83    82    1
    45    45    44    2
    46    51    49   ar
    47    91    93    1
    48    47    49   ar
    49    47    46    1
    50    76    75    2
    51    75    74    1
    52    80    79   ar
    53    77    74    1
    54    77    78    1
    55    74    73    1
    56    79    78    1
    57    79    81   ar
    58    56    55    2
    59    53    54    1
    60    73    66   am
    61    55    54    1
    62    41    40    1
    63    54    57    1
    64    57    58    1
    65    38    40   ar
    66    38    36   ar
    67    66    67    2
    68    66    65    1
    69    62    61    1
    70    40    39   ar
    71    58    59    1
    72    36    35   ar
    73    59    60    1
    74    64    65    1
    75    14    13    1
    76    61    60    2
    77    61    63    1
    78    65    68    1
    79    39    37   ar
    80    21    20    1
    81    15    13    1
    82    35    37   ar
    83    35    34    1
    84    20    17    1
    85    33    32    2
    86    13    10    1
    87    68    69    1
    88    71    70   ar
    89    31    34    1
    90    31    32    1
    91    31    30    1
    92    11    10    1
    93    11    12    2
    94    10     9    1
    95    17    18    1
    96    17    16    1
    97    70    69    1
    98    70    72   ar
    99    18    19    2
   100    28    27    1
   101    27    29    1
   102    27    26    1
   103    25    24    2
   104    24    23    1
   105    26    23    1
   106    23    22    1
