@<TRIPOS>MOLECULE
tmp/4q19A00.pdb
 189 175 0 0 0
SMALL
GASTEIGER

@<TRIPOS>ATOM
      1  N        -26.9820   18.0230    2.6790 N.3    10  ILE10      -0.1245
      2  CA       -27.3970   18.8880    1.5600 C.3    10  ILE10       0.1561
      3  C        -27.6300   20.3800    1.8940 C.2    10  ILE10       0.2260
      4  O        -28.4730   20.7280    2.7260 O.2    10  ILE10      -0.2867
      5  CB       -28.7200   18.3570    0.9480 C.3    10  ILE10       0.0252
      6  CG1      -28.6140   16.8430    0.6430 C.3    10  ILE10       0.0019
      7  CG2      -29.1570   19.2160   -0.2650 C.3    10  ILE10       0.0019
      8  CD1      -29.7230   16.2600   -0.2330 C.3    10  ILE10       0.0001
      9  N        -18.4630   18.2240   -6.6650 N.3    33  GLU33      -0.1245
     10  CA       -19.2650   16.9870   -6.8220 C.3    33  GLU33       0.1567
     11  C        -19.9360   16.8940   -8.1620 C.2    33  GLU33       0.2260
     12  O        -20.6180   17.8170   -8.5510 O.2    33  GLU33      -0.2867
     13  CB       -20.3170   16.8330   -5.7110 C.3    33  GLU33       0.0388
     14  CG       -20.9330   15.4430   -5.6510 C.3    33  GLU33       0.1160
     15  CD       -21.8000   15.2210   -4.4380 C.2    33  GLU33       0.3649
     16  OE1      -21.7240   14.1270   -3.8370 O.co2  33  GLU33      -0.2457
     17  OE2      -22.5640   16.1240   -4.0830 O.co2  33  GLU33      -0.2457
     18  N        -22.6030   15.1770   -8.9100 N.3    35  VAL35      -0.1245
     19  CA       -24.0450   15.3300   -8.6690 C.3    35  VAL35       0.1561
     20  C        -24.4820   16.8010   -8.6520 C.2    35  VAL35       0.2260
     21  O        -25.6210   17.1140   -9.0280 O.2    35  VAL35      -0.2867
     22  CB       -24.4760   14.6160   -7.3630 C.3    35  VAL35       0.0252
     23  CG1      -25.8260   15.1230   -6.8410 C.3    35  VAL35       0.0019
     24  CG2      -24.5010   13.1050   -7.5640 C.3    35  VAL35       0.0019
     25  N        -26.7010   19.7080  -11.0240 N.3    39  SER39      -0.1217
     26  CA       -27.7040   20.5940  -10.3740 C.3    39  SER39       0.1889
     27  C        -27.3310   22.0750  -10.5200 C.2    39  SER39       0.2288
     28  O        -27.1970   22.5850  -11.6570 O.2    39  SER39      -0.2866
     29  CB       -27.9020   20.2390   -8.9010 C.3    39  SER39       0.2089
     30  OG       -27.2110   19.0400   -8.5480 O.3    39  SER39      -0.2183
     31  N        -30.9160   12.2320  -12.5820 N.3    51  LEU51      -0.1245
     32  CA       -31.2550   13.0050  -11.3980 C.3    51  LEU51       0.1561
     33  C        -32.7500   13.3020  -11.3970 C.2    51  LEU51       0.2260
     34  O        -33.4320   12.9960  -10.4310 O.2    51  LEU51      -0.2867
     35  CB       -30.4420   14.3080  -11.3370 C.3    51  LEU51       0.0270
     36  CG       -30.7870   15.2380  -10.1990 C.3    51  LEU51       0.0019
     37  CD1      -30.8200   14.4680   -8.8830 C.3    51  LEU51       0.0001
     38  CD2      -29.7960   16.3850  -10.1170 C.3    51  LEU51       0.0001
     39  N        -34.7910   10.2970  -10.8620 N.3    54  MET54      -0.1230
     40  CA       -34.5810    9.8830   -9.4810 C.3    54  MET54       0.1702
     41  C        -35.5070   10.6340   -8.5120 C.2    54  MET54       0.2592
     42  O        -35.8870   10.0830   -7.4710 O.2    54  MET54      -0.2718
     43  CB       -33.0760   10.0230   -9.1350 C.3    54  MET54       0.0401
     44  CG       -32.6710    9.8890   -7.6750 C.3    54  MET54       0.0596
     45  SD       -32.3840    8.1990   -7.0630 S.3    54  MET54      -0.1393
     46  CE       -33.1330    8.4010   -5.4610 C.3    54  MET54       0.0692
     47  N        -35.8960   11.8630   -8.8620 N.am   55  TYR55      -0.1962
     48  CA       -36.9420   12.5870   -8.1070 C.3    55  TYR55       0.1771
     49  C        -38.3530   12.0420   -8.3410 C.2    55  TYR55       0.2619
     50  O        -39.2100   12.1690   -7.4670 O.2    55  TYR55      -0.2715
     51  CB       -36.9450   14.0760   -8.4330 C.3    55  TYR55       0.0574
     52  CG       -35.8300   14.8870   -7.7840 C.ar   55  TYR55      -0.0198
     53  CD1      -35.9730   15.4270   -6.5040 C.ar   55  TYR55      -0.0009
     54  CD2      -34.6540   15.1350   -8.4690 C.ar   55  TYR55      -0.0009
     55  CE1      -34.9570   16.1710   -5.9230 C.ar   55  TYR55       0.0417
     56  CE2      -33.6490   15.8840   -7.9100 C.ar   55  TYR55       0.0417
     57  CZ       -33.7990   16.4060   -6.6410 C.ar   55  TYR55       0.1957
     58  OH       -32.7460   17.1350   -6.1050 O.3    55  TYR55      -0.2866
     59  N        -38.5990   11.4560   -9.5160 N.am   56  GLU56      -0.1977
     60  CA       -39.9360   10.9410   -9.8360 C.3    56  GLU56       0.1602
     61  C        -40.1480    9.5050   -9.4030 C.2    56  GLU56       0.2287
     62  O        -41.2390    9.1730   -8.9280 O.2    56  GLU56      -0.2864
     63  CB       -40.2620   11.0530  -11.3260 C.3    56  GLU56       0.0415
     64  CG       -39.5470   12.1770  -12.0470 C.3    56  GLU56       0.1163
     65  CD       -40.2260   13.5260  -11.9090 C.2    56  GLU56       0.3649
     66  OE1      -39.5200   14.5500  -12.1420 O.co2  56  GLU56      -0.2457
     67  OE2      -41.4400   13.5680  -11.5770 O.co2  56  GLU56      -0.2457
     68  N        -37.9030    7.0050   -7.2390 N.3    58  PRO58      -0.2116
     69  CA       -36.5900    6.7100   -6.6860 C.3    58  PRO58       0.1372
     70  C        -36.3610    5.1890   -6.5400 C.2    58  PRO58       0.2244
     71  O        -35.2120    4.7190   -6.6240 O.2    58  PRO58      -0.2868
     72  CB       -36.6320    7.4270   -5.3380 C.3    58  PRO58       0.0268
     73  CG       -38.0810    7.3600   -4.9280 C.3    58  PRO58       0.0207
     74  CD       -38.8600    7.4750   -6.2100 C.3    58  PRO58       0.0892
     75  N        -28.3730    5.7560  -10.5960 N.3    65  PHE65      -0.1227
     76  CA       -27.9170    7.0540  -10.1740 C.3    65  PHE65       0.1736
     77  C        -26.6980    6.8350   -9.3270 C.2    65  PHE65       0.2595
     78  O        -25.6670    7.4890   -9.5280 O.2    65  PHE65      -0.2718
     79  CB       -29.0070    7.7620   -9.3860 C.3    65  PHE65       0.0547
     80  CG       -28.7070    9.1990   -9.0750 C.ar   65  PHE65      -0.0202
     81  CD1      -27.8680    9.5430   -7.9950 C.ar   65  PHE65      -0.0042
     82  CD2      -29.2560   10.2140   -9.8510 C.ar   65  PHE65      -0.0042
     83  CE1      -27.5820   10.8720   -7.7040 C.ar   65  PHE65      -0.0003
     84  CE2      -28.9570   11.5430   -9.5660 C.ar   65  PHE65      -0.0003
     85  CZ       -28.1250   11.8760   -8.5030 C.ar   65  PHE65      -0.0000
     86  N        -26.8070    5.8850   -8.4030 N.am   66  GLN66      -0.1979
     87  CA       -25.7250    5.6010   -7.4680 C.3    66  GLN66       0.1601
     88  C        -24.4850    5.0220   -8.1020 C.2    66  GLN66       0.2287
     89  O        -23.3980    5.1940   -7.5240 O.2    66  GLN66      -0.2864
     90  CB       -26.1620    4.7470   -6.2870 C.3    66  GLN66       0.0394
     91  CG       -27.1090    5.4690   -5.3560 C.3    66  GLN66       0.0908
     92  CD       -26.5630    6.7740   -4.8380 C.2    66  GLN66       0.2608
     93  OE1      -25.4490    6.8350   -4.3120 O.2    66  GLN66      -0.2717
     94  NE2      -27.3420    7.8370   -4.9890 N.am   66  GLN66      -0.0878
     95  N        -23.0100    8.3030  -10.4840 N.3    69  ALA69      -0.1245
     96  CA       -22.3830    9.2900   -9.6210 C.3    69  ALA69       0.1562
     97  C        -21.0200    8.8420   -9.1130 C.2    69  ALA69       0.2260
     98  O        -20.0350    9.5710   -9.2760 O.2    69  ALA69      -0.2867
     99  CB       -23.3000    9.7070   -8.4810 C.3    69  ALA69       0.0290
    100  N        -17.6600   10.7180   -9.9870 N.3    73  ARG73      -0.1245
    101  CA       -16.7400   11.1050   -8.9300 C.3    73  ARG73       0.1563
    102  C        -15.3360   10.4930   -9.1340 C.2    73  ARG73       0.2260
    103  O        -14.3190   11.1950   -9.0090 O.2    73  ARG73      -0.2867
    104  CB       -17.3220   10.7640   -7.5430 C.3    73  ARG73       0.0307
    105  CG       -16.5200   11.2840   -6.3740 C.3    73  ARG73       0.0489
    106  CD       -16.8890   10.6130   -5.0490 C.3    73  ARG73       0.2205
    107  NE       -18.2860   10.8080   -4.6510 N.pl3  73  ARG73      -0.0865
    108  CZ       -18.8370   12.0080   -4.4630 C.cat  73  ARG73       0.5346
    109  NH1      -20.1030   12.1180   -4.0890 N.pl3  73  ARG73       0.1354
    110  NH2      -18.1030   13.0970   -4.6220 N.pl3  73  ARG73       0.1354
    111  N        -17.1390   15.8550   -1.0410 N.3    96  ARG96      -0.1245
    112  CA       -17.6730   14.5020   -0.7610 C.3    96  ARG96       0.1563
    113  C        -16.6880   13.3900   -1.2090 C.2    96  ARG96       0.2260
    114  O        -15.5990   13.7210   -1.6790 O.2    96  ARG96      -0.2867
    115  CB       -19.1200   14.3190   -1.2870 C.3    96  ARG96       0.0307
    116  CG       -20.1420   14.6580   -0.2330 C.3    96  ARG96       0.0489
    117  CD       -21.5420   14.1090   -0.4990 C.3    96  ARG96       0.2205
    118  NE       -22.5080   14.9040    0.2730 N.pl3  96  ARG96      -0.0865
    119  CZ       -23.4010   15.7260   -0.2560 C.cat  96  ARG96       0.5346
    120  NH1      -23.4890   15.8990   -1.5610 N.pl3  96  ARG96       0.1354
    121  NH2      -24.2090   16.3930    0.5270 N.pl3  96  ARG96       0.1354
    122  N        -20.7890    8.3550   -1.1330 N.3   101  ASP101     -0.1239
    123  CA       -21.6310    7.6340   -2.0840 C.3   101  ASP101      0.1674
    124  C        -22.2850    6.3840   -1.5390 C.2   101  ASP101      0.2266
    125  O        -23.4930    6.1750   -1.6970 O.2   101  ASP101     -0.2867
    126  CB       -20.7910    7.2370   -3.2950 C.3   101  ASP101      0.1410
    127  CG       -20.2220    8.4220   -4.0130 C.2   101  ASP101      0.3668
    128  OD1      -20.7790    9.5370   -3.8700 O.co2 101  ASP101     -0.2456
    129  OD2      -19.2310    8.2300   -4.7410 O.co2 101  ASP101     -0.2456
    130  N        -25.5170    7.7240    1.0750 N.3   105  PHE105     -0.1241
    131  CA       -26.6740    7.7500    0.1730 C.3   105  PHE105      0.1605
    132  C        -27.1590    6.3470   -0.2650 C.2   105  PHE105      0.2264
    133  O        -28.2800    5.9550    0.0570 O.2   105  PHE105     -0.2867
    134  CB       -26.4090    8.7180   -0.9730 C.3   105  PHE105      0.0534
    135  CG       -25.9170   10.0670   -0.5070 C.ar  105  PHE105     -0.0203
    136  CD1      -26.8180   11.0310   -0.0080 C.ar  105  PHE105     -0.0042
    137  CD2      -24.5640   10.3810   -0.5310 C.ar  105  PHE105     -0.0042
    138  CE1      -26.3760   12.2750    0.4230 C.ar  105  PHE105     -0.0003
    139  CE2      -24.1210   11.6290   -0.0870 C.ar  105  PHE105     -0.0003
    140  CZ       -25.0170   12.5700    0.3930 C.ar  105  PHE105     -0.0000
    141  N        -30.6460    4.6790    0.4250 N.3   109  LEU109     -0.1245
    142  CA       -31.6850    4.3240   -0.5200 C.3   109  LEU109      0.1561
    143  C        -32.1940    2.9290   -0.2320 C.2   109  LEU109      0.2260
    144  O        -33.3820    2.6610   -0.3910 O.2   109  LEU109     -0.2867
    145  CB       -31.2190    4.4870   -1.9780 C.3   109  LEU109      0.0270
    146  CG       -30.9760    5.9810   -2.0790 C.3   109  LEU109      0.0019
    147  CD1      -29.8880    6.3930   -3.0900 C.3   109  LEU109      0.0001
    148  CD2      -32.2890    6.7110   -2.3070 C.3   109  LEU109      0.0001
    149  N        -34.2210    2.7860    2.7690 N.3   112  SER112     -0.1217
    150  CA       -35.4400    3.4880    2.4190 C.3   112  SER112      0.1889
    151  C        -36.3020    2.7100    1.4190 C.2   112  SER112      0.2288
    152  O        -37.3450    3.2040    0.9750 O.2   112  SER112     -0.2866
    153  CB       -35.0930    4.8430    1.8210 C.3   112  SER112      0.2089
    154  OG       -36.2650    5.5570    1.4890 O.3   112  SER112     -0.2183
    155  N        -35.5410    1.9580   -1.7070 N.3   114  SER114     -0.1217
    156  CA       -35.5240    2.4810   -3.0680 C.3   114  SER114      0.1889
    157  C        -34.5300    1.7460   -3.9500 C.2   114  SER114      0.2288
    158  O        -34.3950    2.0690   -5.1020 O.2   114  SER114     -0.2866
    159  CB       -35.2680    3.9850   -3.1140 C.3   114  SER114      0.2089
    160  OG       -36.3570    4.6870   -2.5830 O.3   114  SER114     -0.2183
    161  N        -35.1120   20.6440   -5.9570 N.3   165  GLU165     -0.1245
    162  CA       -34.7080   20.5050   -4.5610 C.3   165  GLU165      0.1567
    163  C        -35.7510   20.9890   -3.5660 C.2   165  GLU165      0.2260
    164  O        -35.9070   20.4020   -2.5050 O.2   165  GLU165     -0.2867
    165  CB       -33.4250   21.2740   -4.2830 C.3   165  GLU165      0.0388
    166  CG       -32.1990   20.7890   -5.0350 C.3   165  GLU165      0.1160
    167  CD       -30.9300   21.2550   -4.3500 C.2   165  GLU165      0.3649
    168  OE1      -30.8930   22.4120   -3.8460 O.co2 165  GLU165     -0.2457
    169  OE2      -29.9850   20.4430   -4.2740 O.co2 165  GLU165     -0.2457
    170  N        -37.2210   18.5450   -1.8270 N.3   168  ILE168     -0.1245
    171  CA       -36.5560   17.6970   -0.8130 C.3   168  ILE168      0.1561
    172  C        -37.3050   17.9400    0.4940 C.2   168  ILE168      0.2260
    173  O        -37.3640   19.0870    0.9840 O.2   168  ILE168     -0.2867
    174  CB       -35.0350   17.9820   -0.6600 C.3   168  ILE168      0.0252
    175  CG1      -34.2020   17.1910   -1.6650 C.3   168  ILE168      0.0019
    176  CG2      -34.5230   17.5590    0.7010 C.3   168  ILE168      0.0019
    177  CD1      -34.1230   17.7980   -3.0460 C.3   168  ILE168      0.0001
    178  N        -36.0600   13.7870    4.8420 N.3   172  TYR172     -0.1241
    179  CA       -34.9530   13.2990    4.0550 C.3   172  TYR172      0.1605
    180  C        -33.6410   13.8260    4.6430 C.2   172  TYR172      0.2264
    181  O        -32.7610   13.0540    5.0570 O.2   172  TYR172     -0.2867
    182  CB       -35.1390   13.7380    2.5960 C.3   172  TYR172      0.0534
    183  CG       -34.1780   13.0670    1.6430 C.ar  172  TYR172     -0.0201
    184  CD1      -34.0500   11.6830    1.6400 C.ar  172  TYR172     -0.0009
    185  CD2      -33.4000   13.8140    0.7470 C.ar  172  TYR172     -0.0009
    186  CE1      -33.1870   11.0450    0.7720 C.ar  172  TYR172      0.0417
    187  CE2      -32.5290   13.1870   -0.1300 C.ar  172  TYR172      0.0417
    188  CZ       -32.4270   11.7890   -0.0970 C.ar  172  TYR172      0.1957
    189  OH       -31.5930   11.1040   -0.9360 O.3   172  TYR172     -0.2866
@<TRIPOS>BOND
     1    31    32    1
     2    66    65   ar
     3    64    65    1
     4    64    63    1
     5    65    67   ar
     6    28    27    2
     7    32    33    1
     8    32    35    1
     9    33    34    2
    10    35    36    1
    11    63    60    1
    12    25    26    1
    13    39    40    1
    14    75    76    1
    15    27    26    1
    16    95    96    1
    17    26    29    1
    18    36    38    1
    19    36    37    1
    20    76    79    1
    21    76    77    1
    22   100   101    1
    23    82    84   ar
    24    82    80   ar
    25    60    59    1
    26    60    61    1
    27    96    97    1
    28    96    99    1
    29    84    85   ar
    30    78    77    2
    31    59    49   am
    32    40    43    1
    33    40    41    1
    34    61    62    2
    35    79    80    1
    36    77    86   am
    37    98    97    2
    38    43    44    1
    39   102   103    2
    40   102   101    1
    41    80    81   ar
    42    21    20    2
    43   101   104    1
    44    18    19    1
    45    29    30    1
    46    47    41   am
    47    47    48    1
    48    19    20    1
    49    19    22    1
    50    12    11    2
    51    41    42    2
    52    85    83   ar
    53    54    56   ar
    54    54    52   ar
    55    51    48    1
    56    51    52    1
    57    86    87    1
    58    49    48    1
    59    49    50    2
    60    11    10    1
    61    88    89    2
    62    88    87    1
    63    81    83   ar
    64    56    57   ar
    65    52    53   ar
    66    44    45    1
    67    24    22    1
    68   104   105    1
    69    87    90    1
    70    22    23    1
    71    68    69    1
    72    68    74    1
    73    45    46    1
    74    10     9    1
    75    10    13    1
    76    69    70    1
    77    69    72    1
    78    57    58    1
    79    57    55   ar
    80    71    70    2
    81    53    55   ar
    82   105   106    1
    83    90    91    1
    84    74    73    1
    85   161   162    1
    86    13    14    1
    87    14    15    1
    88    91    92    1
    89    72    73    1
    90   158   157    2
    91   106   107    1
    92   166   167    1
    93   166   165    1
    94    94    92   am
    95    92    93    2
    96   129   127   ar
    97   107   108    2
    98   110   108    1
    99   162   165    1
   100   162   163    1
   101   108   109    1
   102    15    17   ar
   103    15    16   ar
   104   167   169   ar
   105   167   168   ar
   106   127   128   ar
   107   127   126    1
   108   157   156    1
   109   163   164    2
   110   126   123    1
   111   159   156    1
   112   159   160    1
   113   147   146    1
   114   156   155    1
   115   177   175    1
   116   148   146    1
   117   123   124    1
   118   123   122    1
   119   146   145    1
   120   145   142    1
   121   170   171    1
   122   125   124    2
   123   114   113    2
   124   175   174    1
   125   120   119    1
   126   115   112    1
   127   115   116    1
   128   113   112    1
   129   111   112    1
   130   134   135    1
   131   134   131    1
   132   189   188    1
   133   171   174    1
   134   171   172    1
   135   174   176    1
   136   137   135   ar
   137   137   139   ar
   138   142   143    1
   139   142   141    1
   140   135   136   ar
   141   117   116    1
   142   117   118    1
   143   144   143    2
   144   132   133    2
   145   132   131    1
   146     7     5    1
   147   119   118    2
   148   119   121    1
   149     8     6    1
   150   187   188   ar
   151   187   185   ar
   152   188   186   ar
   153   139   140   ar
   154   136   138   ar
   155   131   130    1
   156   140   138   ar
   157   172   173    2
   158     6     5    1
   159   185   183   ar
   160   186   184   ar
   161     5     2    1
   162   152   151    2
   163   151   150    1
   164   154   153    1
   165     2     3    1
   166     2     1    1
   167   184   183   ar
   168   183   182    1
   169   153   150    1
   170     3     4    2
   171   150   149    1
   172   182   179    1
   173   179   180    1
   174   179   178    1
   175   180   181    2
