@<TRIPOS>MOLECULE
tmp/4q1cA00.pdb
 217 202 0 0 0
SMALL
GASTEIGER

@<TRIPOS>ATOM
      1  N        -26.8980   17.9660    2.5610 N.3    11  ILE11      -0.1245
      2  CA       -27.3370   18.7220    1.3980 C.3    11  ILE11       0.1561
      3  C        -27.5260   20.1860    1.8400 C.2    11  ILE11       0.2260
      4  O        -28.3780   20.4840    2.6630 O.2    11  ILE11      -0.2867
      5  CB       -28.6630   18.1460    0.8240 C.3    11  ILE11       0.0252
      6  CG1      -28.5270   16.6160    0.5840 C.3    11  ILE11       0.0019
      7  CG2      -29.0840   18.8830   -0.4590 C.3    11  ILE11       0.0019
      8  CD1      -29.6330   16.0100   -0.2570 C.3    11  ILE11       0.0001
      9  N        -18.1650   18.0060   -6.6340 N.3    34  GLU34      -0.1245
     10  CA       -18.8750   16.7090   -6.7520 C.3    34  GLU34       0.1567
     11  C        -19.7190   16.6970   -8.0210 C.2    34  GLU34       0.2260
     12  O        -20.4730   17.6240   -8.2410 O.2    34  GLU34      -0.2867
     13  CB       -19.7790   16.5080   -5.5490 C.3    34  GLU34       0.0388
     14  CG       -20.7200   15.3300   -5.7110 C.3    34  GLU34       0.1160
     15  CD       -21.8260   15.3580   -4.7170 C.2    34  GLU34       0.3649
     16  OE1      -21.7420   14.5940   -3.7570 O.co2  34  GLU34      -0.2457
     17  OE2      -22.7800   16.1430   -4.9140 O.co2  34  GLU34      -0.2457
     18  N        -22.5340   15.3300   -8.9150 N.3    36  VAL36      -0.1231
     19  CA       -23.9900   15.5100   -8.7470 C.3    36  VAL36       0.1692
     20  C        -24.4060   16.9970   -8.6440 C.2    36  VAL36       0.2591
     21  O        -25.4620   17.3910   -9.0970 O.2    36  VAL36      -0.2718
     22  CB       -24.5620   14.6830   -7.5740 C.3    36  VAL36       0.0266
     23  CG1      -26.0710   14.8930   -7.4450 C.3    36  VAL36       0.0020
     24  CG2      -24.2930   13.1900   -7.7840 C.3    36  VAL36       0.0020
     25  N        -23.5520   17.8370   -8.0900 N.am   37  ALA37      -0.1980
     26  CA       -23.9190   19.2280   -7.9390 C.3    37  ALA37       0.1597
     27  C        -23.8820   19.9720   -9.2820 C.2    37  ALA37       0.2287
     28  O        -24.6670   20.8920   -9.5110 O.2    37  ALA37      -0.2864
     29  CB       -23.0330   19.8670   -6.9210 C.3    37  ALA37       0.0319
     30  N        -27.0070   19.4230  -11.2980 N.3    40  SER40      -0.1217
     31  CA       -28.0260   20.4110  -10.8790 C.3    40  SER40       0.1889
     32  C        -27.3350   21.6120  -10.2650 C.2    40  SER40       0.2288
     33  O        -26.9320   22.5230  -10.9820 O.2    40  SER40      -0.2866
     34  CB       -28.9640   19.8380   -9.8230 C.3    40  SER40       0.2089
     35  OG       -28.2640   19.5800   -8.5990 O.3    40  SER40      -0.2183
     36  N        -30.7200   12.3300  -12.8190 N.3    52  LEU52      -0.1245
     37  CA       -30.9990   13.0120  -11.5660 C.3    52  LEU52       0.1561
     38  C        -32.4800   13.3700  -11.5070 C.2    52  LEU52       0.2260
     39  O        -33.1820   13.1200  -10.5180 O.2    52  LEU52      -0.2867
     40  CB       -30.1320   14.2590  -11.5010 C.3    52  LEU52       0.0270
     41  CG       -30.1170   15.1060  -10.2600 C.3    52  LEU52       0.0019
     42  CD1      -29.8340   14.2650   -9.0210 C.3    52  LEU52       0.0001
     43  CD2      -29.0630   16.1800  -10.4280 C.3    52  LEU52       0.0001
     44  N        -34.3650   10.2430  -11.0030 N.3    55  MET55      -0.1230
     45  CA       -34.2060    9.9130   -9.5980 C.3    55  MET55       0.1702
     46  C        -35.1500   10.7350   -8.6920 C.2    55  MET55       0.2592
     47  O        -35.6870   10.2200   -7.7110 O.2    55  MET55      -0.2718
     48  CB       -32.7300   10.1140   -9.2160 C.3    55  MET55       0.0401
     49  CG       -32.4220    9.9740   -7.7360 C.3    55  MET55       0.0596
     50  SD       -32.6030    8.3050   -7.0800 S.3    55  MET55      -0.1393
     51  CE       -32.3830    8.7060   -5.3450 C.3    55  MET55       0.0692
     52  N        -35.3560   11.9980   -9.0290 N.am   56  TYR56      -0.1962
     53  CA       -36.3240   12.8250   -8.2860 C.3    56  TYR56       0.1771
     54  C        -37.7150   12.2220   -8.4550 C.2    56  TYR56       0.2619
     55  O        -38.3650   11.8490   -7.4780 O.2    56  TYR56      -0.2715
     56  CB       -36.2620   14.3060   -8.7350 C.3    56  TYR56       0.0574
     57  CG       -35.2810   15.1390   -7.9320 C.ar   56  TYR56      -0.0198
     58  CD1      -35.6100   15.5910   -6.6480 C.ar   56  TYR56      -0.0009
     59  CD2      -34.0130   15.4920   -8.4520 C.ar   56  TYR56      -0.0009
     60  CE1      -34.7070   16.3670   -5.9060 C.ar   56  TYR56       0.0417
     61  CE2      -33.1180   16.2830   -7.7200 C.ar   56  TYR56       0.0417
     62  CZ       -33.4660   16.6980   -6.4400 C.ar   56  TYR56       0.1957
     63  OH       -32.6030   17.4590   -5.6990 O.3    56  TYR56      -0.2866
     64  N        -38.1220   12.0410   -9.7110 N.am   57  GLU57      -0.1977
     65  CA       -39.4130   11.4040  -10.0450 C.3    57  GLU57       0.1602
     66  C        -39.6410   10.0160   -9.4830 C.2    57  GLU57       0.2287
     67  O        -40.6900    9.7530   -8.8880 O.2    57  GLU57      -0.2864
     68  CB       -39.5900   11.3500  -11.5700 C.3    57  GLU57       0.0415
     69  CG       -39.8260   12.7050  -12.1740 C.3    57  GLU57       0.1163
     70  CD       -40.9390   13.4170  -11.4500 C.2    57  GLU57       0.3649
     71  OE1      -40.6670   14.4570  -10.8340 O.co2  57  GLU57      -0.2457
     72  OE2      -42.0720   12.8970  -11.4640 O.co2  57  GLU57      -0.2457
     73  N        -37.4110    7.2670   -7.3960 N.3    59  PRO59      -0.2116
     74  CA       -36.1740    6.7670   -6.7740 C.3    59  PRO59       0.1372
     75  C        -36.0890    5.2360   -6.5930 C.2    59  PRO59       0.2244
     76  O        -34.9870    4.6650   -6.6860 O.2    59  PRO59      -0.2868
     77  CB       -36.1250    7.4910   -5.4220 C.3    59  PRO59       0.0268
     78  CG       -37.1710    8.5750   -5.4690 C.3    59  PRO59       0.0207
     79  CD       -38.1480    8.2200   -6.5400 C.3    59  PRO59       0.0892
     80  N        -28.4860    5.6830  -10.6140 N.3    66  PHE66      -0.1227
     81  CA       -27.9890    6.9710  -10.1400 C.3    66  PHE66       0.1736
     82  C        -26.7060    6.7990   -9.3410 C.2    66  PHE66       0.2595
     83  O        -25.6920    7.4310   -9.6660 O.2    66  PHE66      -0.2718
     84  CB       -29.0800    7.7010   -9.3250 C.3    66  PHE66       0.0547
     85  CG       -28.6290    8.9840   -8.7000 C.ar   66  PHE66      -0.0202
     86  CD1      -27.9820    9.9520   -9.4390 C.ar   66  PHE66      -0.0042
     87  CD2      -28.8310    9.2150   -7.3540 C.ar   66  PHE66      -0.0042
     88  CE1      -27.5520   11.1370   -8.8450 C.ar   66  PHE66      -0.0003
     89  CE2      -28.4210   10.3930   -6.7650 C.ar   66  PHE66      -0.0003
     90  CZ       -27.7720   11.3390   -7.5020 C.ar   66  PHE66      -0.0000
     91  N        -26.7600    5.9650   -8.3110 N.am   67  GLN67      -0.1979
     92  CA       -25.6170    5.7140   -7.4570 C.3    67  GLN67       0.1601
     93  C        -24.4110    5.2720   -8.2620 C.2    67  GLN67       0.2287
     94  O        -23.2900    5.7790   -8.0400 O.2    67  GLN67      -0.2864
     95  CB       -25.9300    4.7060   -6.3440 C.3    67  GLN67       0.0394
     96  CG       -26.8590    5.2630   -5.2840 C.3    67  GLN67       0.0908
     97  CD       -26.4900    6.6710   -4.8530 C.2    67  GLN67       0.2608
     98  OE1      -25.3480    6.9380   -4.5610 O.2    67  GLN67      -0.2717
     99  NE2      -27.4670    7.5800   -4.8260 N.am   67  GLN67      -0.0878
    100  N        -23.0290    8.3290  -10.4450 N.3    70  ALA70      -0.1245
    101  CA       -22.4600    9.3970   -9.5960 C.3    70  ALA70       0.1562
    102  C        -21.0900    9.0090   -8.9970 C.2    70  ALA70       0.2260
    103  O        -20.1930    9.8410   -8.9140 O.2    70  ALA70      -0.2867
    104  CB       -23.4480    9.8150   -8.5110 C.3    70  ALA70       0.0290
    105  N        -17.4510   10.6520  -10.0270 N.3    74  ARG74      -0.1245
    106  CA       -16.5910   11.0740   -8.9590 C.3    74  ARG74       0.1563
    107  C        -15.1670   10.5200   -9.1090 C.2    74  ARG74       0.2260
    108  O        -14.2090   11.2720   -9.1490 O.2    74  ARG74      -0.2867
    109  CB       -17.1710   10.6890   -7.5870 C.3    74  ARG74       0.0307
    110  CG       -16.4870   11.4210   -6.4480 C.3    74  ARG74       0.0489
    111  CD       -16.9560   10.9080   -5.0780 C.3    74  ARG74       0.2205
    112  NE       -18.3950   10.9670   -4.8810 N.pl3  74  ARG74      -0.0865
    113  CZ       -19.0370   12.0880   -4.5640 C.cat  74  ARG74       0.5346
    114  NH1      -20.3490   12.0750   -4.3860 N.pl3  74  ARG74       0.1354
    115  NH2      -18.3530   13.2470   -4.4790 N.pl3  74  ARG74       0.1354
    116  N        -17.1460   15.6790   -0.9540 N.3    98  ARG98      -0.1245
    117  CA       -17.6320   14.3340   -0.6680 C.3    98  ARG98       0.1563
    118  C        -16.6430   13.2630   -1.1840 C.2    98  ARG98       0.2260
    119  O        -15.5510   13.5810   -1.6370 O.2    98  ARG98      -0.2867
    120  CB       -19.0660   14.1160   -1.1540 C.3    98  ARG98       0.0307
    121  CG       -20.1080   14.9190   -0.4230 C.3    98  ARG98       0.0489
    122  CD       -21.4990   14.3260   -0.6460 C.3    98  ARG98       0.2205
    123  NE       -22.4760   14.8550    0.2940 N.pl3  98  ARG98      -0.0865
    124  CZ       -23.5860   15.5260   -0.0030 C.cat  98  ARG98       0.5346
    125  NH1      -23.9350   15.8150   -1.2490 N.pl3  98  ARG98       0.1354
    126  NH2      -24.3850   15.9120    0.9840 N.pl3  98  ARG98       0.1354
    127  N        -20.8630    8.3560   -1.0010 N.3   103  ASP103     -0.1239
    128  CA       -21.7290    7.7520   -2.0050 C.3   103  ASP103      0.1674
    129  C        -22.3630    6.4810   -1.5170 C.2   103  ASP103      0.2266
    130  O        -23.5550    6.2640   -1.6910 O.2   103  ASP103     -0.2867
    131  CB       -20.9060    7.4130   -3.2330 C.3   103  ASP103      0.1410
    132  CG       -20.4130    8.6230   -3.9310 C.2   103  ASP103      0.3668
    133  OD1      -21.1260    9.6590   -3.8880 O.co2 103  ASP103     -0.2456
    134  OD2      -19.3380    8.5320   -4.5620 O.co2 103  ASP103     -0.2456
    135  N        -25.5380    7.8320    1.0380 N.3   107  PHE107     -0.1241
    136  CA       -26.5740    7.9330    0.0390 C.3   107  PHE107      0.1605
    137  C        -27.0990    6.5720   -0.4280 C.2   107  PHE107      0.2264
    138  O        -28.2920    6.3440   -0.3360 O.2   107  PHE107     -0.2867
    139  CB       -26.1340    8.8550   -1.0890 C.3   107  PHE107      0.0534
    140  CG       -25.7470   10.2030   -0.5840 C.ar  107  PHE107     -0.0203
    141  CD1      -26.6670   10.9610    0.1300 C.ar  107  PHE107     -0.0042
    142  CD2      -24.4540   10.6540   -0.6930 C.ar  107  PHE107     -0.0042
    143  CE1      -26.3180   12.1910    0.6560 C.ar  107  PHE107     -0.0003
    144  CE2      -24.0890   11.8720   -0.1710 C.ar  107  PHE107     -0.0003
    145  CZ       -25.0230   12.6480    0.5070 C.ar  107  PHE107     -0.0000
    146  N        -28.6700    4.6930    2.5400 N.3   110  ASN110     -0.1225
    147  CA       -29.9790    5.3390    2.8660 C.3   110  ASN110      0.1785
    148  C        -31.0190    4.9610    1.8250 C.2   110  ASN110      0.2597
    149  O        -32.2140    4.7390    2.1390 O.2   110  ASN110     -0.2718
    150  CB       -29.8610    6.8670    2.9960 C.3   110  ASN110      0.1169
    151  CG       -31.1990    7.5850    3.0990 C.2   110  ASN110      0.2627
    152  OD1      -31.6370    8.2350    2.1560 O.2   110  ASN110     -0.2716
    153  ND2      -31.8260    7.5230    4.2500 N.am  110  ASN110     -0.0877
    154  N        -30.5790    4.8550    0.5770 N.am  111  LEU111     -0.1980
    155  CA       -31.5200    4.4220   -0.4480 C.3   111  LEU111      0.1596
    156  C        -31.8710    2.9600   -0.2220 C.2   111  LEU111      0.2287
    157  O        -33.0220    2.6000   -0.3770 O.2   111  LEU111     -0.2864
    158  CB       -31.0110    4.7000   -1.8520 C.3   111  LEU111      0.0297
    159  CG       -30.8740    6.2070   -2.0670 C.3   111  LEU111      0.0022
    160  CD1      -29.9910    6.5270   -3.2600 C.3   111  LEU111      0.0001
    161  CD2      -32.2210    6.8920   -2.2060 C.3   111  LEU111      0.0001
    162  N        -34.1040    2.8740    2.8480 N.3   114  SER114     -0.1217
    163  CA       -35.4100    3.4110    2.5260 C.3   114  SER114      0.1889
    164  C        -36.1770    2.5960    1.4780 C.2   114  SER114      0.2288
    165  O        -37.2300    3.0210    1.0560 O.2   114  SER114     -0.2866
    166  CB       -35.2910    4.8330    2.0140 C.3   114  SER114      0.2089
    167  OG       -36.0560    4.9460    0.8220 O.3   114  SER114     -0.2183
    168  N        -35.4910    2.0260   -1.7010 N.3   116  SER116     -0.1217
    169  CA       -35.4540    2.5680   -3.0490 C.3   116  SER116      0.1889
    170  C        -34.4150    1.8070   -3.9140 C.2   116  SER116      0.2288
    171  O        -34.3910    1.9400   -5.1040 O.2   116  SER116     -0.2866
    172  CB       -35.1330    4.0730   -3.0310 C.3   116  SER116      0.2089
    173  OG       -35.7390    4.7110   -1.9240 O.3   116  SER116     -0.2183
    174  N        -32.9180   26.0680   -6.1020 N.3   164  ARG164     -0.1245
    175  CA       -33.1250   25.1070   -7.1900 C.3   164  ARG164      0.1563
    176  C        -34.5160   24.4770   -7.0890 C.2   164  ARG164      0.2260
    177  O        -34.9800   24.1100   -6.0110 O.2   164  ARG164     -0.2867
    178  CB       -32.0530   23.9860   -7.1550 C.3   164  ARG164      0.0307
    179  CG       -30.6290   24.4580   -7.4430 C.3   164  ARG164      0.0489
    180  CD       -29.6820   23.3340   -7.0830 C.3   164  ARG164      0.2205
    181  NE       -28.2700   23.7130   -7.1320 N.pl3 164  ARG164     -0.0865
    182  CZ       -27.2900   22.9380   -6.6860 C.cat 164  ARG164      0.5346
    183  NH1      -27.5770   21.7650   -6.1520 N.pl3 164  ARG164      0.1354
    184  NH2      -26.0250   23.3470   -6.7450 N.pl3 164  ARG164      0.1354
    185  N        -34.9720   20.8960   -5.6910 N.3   167  GLU167     -0.1245
    186  CA       -34.5870   20.7220   -4.3000 C.3   167  GLU167      0.1567
    187  C        -35.6800   21.1120   -3.2950 C.2   167  GLU167      0.2260
    188  O        -35.8310   20.4690   -2.2780 O.2   167  GLU167     -0.2867
    189  CB       -33.3030   21.5160   -4.0260 C.3   167  GLU167      0.0388
    190  CG       -32.1390   20.6750   -4.5980 C.3   167  GLU167      0.1160
    191  CD       -30.7610   21.1680   -4.2300 C.2   167  GLU167      0.3649
    192  OE1      -30.5780   22.1950   -3.5510 O.co2 167  GLU167     -0.2457
    193  OE2      -29.7980   20.4500   -4.6270 O.co2 167  GLU167     -0.2457
    194  N        -38.7640   20.6300   -3.0660 N.3   169  GLY169     -0.1210
    195  CA       -39.6120   19.4810   -2.6980 C.3   169  GLY169      0.1956
    196  C        -38.9720   18.4640   -1.7500 C.2   169  GLY169      0.2611
    197  O        -39.6370   17.5220   -1.2850 O.2   169  GLY169     -0.2717
    198  N        -37.6900   18.6280   -1.4450 N.am  170  ILE170     -0.1979
    199  CA       -37.0000   17.6730   -0.5430 C.3   170  ILE170      0.1595
    200  C        -37.4370   17.9350    0.8960 C.2   170  ILE170      0.2287
    201  O        -37.3960   19.0740    1.3530 O.2   170  ILE170     -0.2864
    202  CB       -35.4630   17.7060   -0.6940 C.3   170  ILE170      0.0276
    203  CG1      -35.0680   17.3470   -2.1300 C.3   170  ILE170      0.0022
    204  CG2      -34.8160   16.7050    0.2500 C.3   170  ILE170      0.0022
    205  CD1      -33.6030   17.5480   -2.4690 C.3   170  ILE170      0.0001
    206  N        -36.0370   13.7060    4.9750 N.3   174  TYR174     -0.1241
    207  CA       -34.8310   13.2820    4.2410 C.3   174  TYR174      0.1605
    208  C        -33.5560   13.8720    4.8450 C.2   174  TYR174      0.2264
    209  O        -32.6130   13.1630    5.0720 O.2   174  TYR174     -0.2867
    210  CB       -34.9370   13.6910    2.7560 C.3   174  TYR174      0.0534
    211  CG       -34.1270   12.8580    1.7760 C.ar  174  TYR174     -0.0201
    212  CD1      -34.0930   11.4550    1.8680 C.ar  174  TYR174     -0.0009
    213  CD2      -33.4430   13.4620    0.7240 C.ar  174  TYR174     -0.0009
    214  CE1      -33.3830   10.6890    0.9520 C.ar  174  TYR174      0.0417
    215  CE2      -32.7360   12.7100   -0.1870 C.ar  174  TYR174      0.0417
    216  CZ       -32.7030   11.3160   -0.0670 C.ar  174  TYR174      0.1957
    217  OH       -32.0180   10.5590   -0.9800 O.3   174  TYR174     -0.2866
@<TRIPOS>BOND
     1    36    37    1
     2    69    68    1
     3    69    70    1
     4    68    65    1
     5    37    38    1
     6    37    40    1
     7    38    39    2
     8    40    41    1
     9    72    70   ar
    10    70    71   ar
    11    30    31    1
    12    44    45    1
    13    33    32    2
    14    31    32    1
    15    31    34    1
    16    80    81    1
    17   100   101    1
    18    43    41    1
    19    41    42    1
    20    81    82    1
    21    81    84    1
    22    65    64    1
    23    65    66    1
    24   105   106    1
    25    34    35    1
    26    64    54   am
    27    83    82    2
    28    45    48    1
    29    45    46    1
    30   101   102    1
    31   101   104    1
    32    28    27    2
    33    66    67    2
    34    86    88   ar
    35    86    85   ar
    36    82    91   am
    37    84    85    1
    38    27    26    1
    39    48    49    1
    40   108   107    2
    41   107   106    1
    42    21    20    2
    43    52    46   am
    44    52    53    1
    45   102   103    2
    46   106   109    1
    47    18    19    1
    48    88    90   ar
    49    19    20    1
    50    19    22    1
    51    56    53    1
    52    56    57    1
    53    85    87   ar
    54    46    47    2
    55    20    25   am
    56    54    53    1
    57    54    55    2
    58    59    57   ar
    59    59    61   ar
    60    91    92    1
    61    93    94    2
    62    93    92    1
    63    12    11    2
    64    25    26    1
    65    11    10    1
    66    26    29    1
    67    57    58   ar
    68    24    22    1
    69    49    50    1
    70    61    62   ar
    71   109   110    1
    72    22    23    1
    73    90    89   ar
    74    92    95    1
    75   179   178    1
    76   179   180    1
    77    73    74    1
    78    73    79    1
    79    87    89   ar
    80   175   178    1
    81   175   176    1
    82   175   174    1
    83   181   180    1
    84   181   182    2
    85   176   177    2
    86    50    51    1
    87    74    75    1
    88    74    77    1
    89    10     9    1
    90    10    13    1
    91   184   182    1
    92    76    75    2
    93   182   183    1
    94    58    60   ar
    95    79    78    1
    96   110   111    1
    97    62    60   ar
    98    62    63    1
    99    95    96    1
   100    14    13    1
   101    14    15    1
   102   185   186    1
   103    78    77    1
   104    96    97    1
   105   171   170    2
   106   111   112    1
   107    17    15   ar
   108   112   113    2
   109    97    99   am
   110    97    98    2
   111    15    16   ar
   112   193   191   ar
   113   190   191    1
   114   190   189    1
   115   113   115    1
   116   113   114    1
   117   134   132   ar
   118   186   189    1
   119   186   187    1
   120   191   192   ar
   121   132   133   ar
   122   132   131    1
   123   170   169    1
   124   187   188    2
   125   160   159    1
   126   131   128    1
   127   194   195    1
   128   169   172    1
   129   169   168    1
   130   172   173    1
   131   195   196    1
   132   205   203    1
   133   161   159    1
   134   203   202    1
   135   159   158    1
   136   128   129    1
   137   128   127    1
   138   158   155    1
   139   196   198   am
   140   196   197    2
   141   130   129    2
   142   119   118    2
   143   198   199    1
   144   125   124    1
   145   118   117    1
   146   120   117    1
   147   120   121    1
   148   139   140    1
   149   139   136    1
   150   217   216    1
   151   116   117    1
   152   202   199    1
   153   202   204    1
   154   142   140   ar
   155   142   144   ar
   156   122   121    1
   157   122   123    1
   158   140   141   ar
   159   199   200    1
   160     7     5    1
   161   155   156    1
   162   155   154    1
   163   137   138    2
   164   137   136    1
   165   157   156    2
   166     8     6    1
   167   215   216   ar
   168   215   213   ar
   169   144   145   ar
   170   216   214   ar
   171   124   123    2
   172   124   126    1
   173   136   135    1
   174   141   143   ar
   175   145   143   ar
   176   154   148   am
   177     6     5    1
   178   213   211   ar
   179   167   166    1
   180     5     2    1
   181   200   201    2
   182   214   212   ar
   183   165   164    2
   184     2     3    1
   185     2     1    1
   186   164   163    1
   187   211   212   ar
   188   211   210    1
   189   148   149    2
   190   148   147    1
   191     3     4    2
   192   166   163    1
   193   152   151    2
   194   163   162    1
   195   146   147    1
   196   210   207    1
   197   147   150    1
   198   150   151    1
   199   151   153   am
   200   207   208    1
   201   207   206    1
   202   208   209    2
