@<TRIPOS>MOLECULE
tmp/4q1eB01.pdb
 122 115 0 0 0
SMALL
GASTEIGER

@<TRIPOS>ATOM
      1  N         51.9550   -7.2330   16.4330 N.3    11  ILE11      -0.1245
      2  CA        52.9410   -6.7360   15.4800 C.3    11  ILE11       0.1561
      3  C         54.3370   -6.5610   16.1080 C.2    11  ILE11       0.2260
      4  O         54.4910   -5.8560   17.0980 O.2    11  ILE11      -0.2867
      5  CB        52.5430   -5.3440   14.9290 C.3    11  ILE11       0.0252
      6  CG1       51.2750   -5.4310   14.0770 C.3    11  ILE11       0.0019
      7  CG2       53.6770   -4.7890   14.0750 C.3    11  ILE11       0.0019
      8  CD1       50.5680   -4.1110   13.9370 C.3    11  ILE11       0.0001
      9  N         49.5610  -11.2760    4.5690 N.3    36  VAL36      -0.1245
     10  CA        49.7630   -9.8420    4.8340 C.3    36  VAL36       0.1561
     11  C         51.2600   -9.5010    4.9640 C.2    36  VAL36       0.2260
     12  O         51.7050   -8.4470    4.4790 O.2    36  VAL36      -0.2867
     13  CB        48.9830   -9.3440    6.0930 C.3    36  VAL36       0.0252
     14  CG1       49.4050   -7.9400    6.5110 C.3    36  VAL36       0.0019
     15  CG2       47.4650   -9.3910    5.8550 C.3    36  VAL36       0.0019
     16  N         53.5140   -7.0190    2.4020 N.3    40  SER40      -0.1202
     17  CA        54.2750   -5.8990    2.9250 C.3    40  SER40       0.2020
     18  C         55.7100   -5.8840    2.3890 C.2    40  SER40       0.2618
     19  O         56.5880   -6.5560    2.9410 O.2    40  SER40      -0.2717
     20  CB        54.2710   -5.9180    4.4560 C.3    40  SER40       0.2103
     21  OG        52.9480   -5.8070    4.9800 O.3    40  SER40      -0.2182
     22  N         55.9010   -5.1380    1.2910 N.am   41  ASN41      -0.1974
     23  CA        57.2160   -4.7520    0.7120 C.3    41  ASN41       0.1688
     24  C         57.0890   -4.3190   -0.7500 C.2    41  ASN41       0.2292
     25  O         56.8450   -5.1380   -1.6380 O.2    41  ASN41      -0.2864
     26  CB        58.3420   -5.8160    0.8570 C.3    41  ASN41       0.1181
     27  CG        57.9690   -7.1880    0.3140 C.2    41  ASN41       0.2629
     28  OD1       57.8470   -8.1400    1.0730 O.2    41  ASN41      -0.2716
     29  ND2       57.8250   -7.3010   -0.9990 N.am   41  ASN41      -0.0877
     30  N         49.5280   -5.8570   -2.4190 N.3    50  GLY50      -0.1225
     31  CA        50.2310   -4.5730   -2.2590 C.3    50  GLY50       0.1811
     32  C         49.2830   -3.3790   -2.3270 C.2    50  GLY50       0.2280
     33  O         49.3560   -2.4440   -1.5200 O.2    50  GLY50      -0.2866
     34  N         46.8900   -3.0950    0.6210 N.3    53  LEU53      -0.1231
     35  CA        47.6980   -2.7140    1.7890 C.3    53  LEU53       0.1693
     36  C         47.8440   -1.1770    1.8590 C.2    53  LEU53       0.2591
     37  O         47.5620   -0.5280    2.8500 O.2    53  LEU53      -0.2718
     38  CB        49.0730   -3.3840    1.6920 C.3    53  LEU53       0.0284
     39  CG        50.0360   -3.2160    2.8740 C.3    53  LEU53       0.0019
     40  CD1       49.3430   -3.5380    4.1800 C.3    53  LEU53       0.0001
     41  CD2       51.2840   -4.0810    2.7220 C.3    53  LEU53       0.0001
     42  N         48.2630   -0.6150    0.7510 N.am   54  GLN54      -0.1979
     43  CA        48.4870    0.7970    0.6480 C.3    54  GLN54       0.1601
     44  C         47.1780    1.5990    0.7960 C.2    54  GLN54       0.2287
     45  O         47.1690    2.6090    1.4950 O.2    54  GLN54      -0.2864
     46  CB        49.1220    1.0310   -0.7140 C.3    54  GLN54       0.0394
     47  CG        49.7520    2.3710   -0.9380 C.3    54  GLN54       0.0908
     48  CD        50.1490    2.4680   -2.3910 C.2    54  GLN54       0.2608
     49  OE1       49.2920    2.3740   -3.2650 O.2    54  GLN54      -0.2717
     50  NE2       51.4280    2.5950   -2.6610 N.am   54  GLN54      -0.0878
     51  N         46.0560    1.6510    4.4000 N.3    57  TYR57      -0.1241
     52  CA        46.8690    2.6080    5.1260 C.3    57  TYR57       0.1605
     53  C         46.3660    4.0220    4.7860 C.2    57  TYR57       0.2264
     54  O         46.0510    4.8030    5.6810 O.2    57  TYR57      -0.2867
     55  CB        48.3450    2.4360    4.7590 C.3    57  TYR57       0.0534
     56  CG        49.2460    3.3500    5.5450 C.ar   57  TYR57      -0.0201
     57  CD1       49.5260    4.6360    5.0850 C.ar   57  TYR57      -0.0009
     58  CD2       49.7920    2.9490    6.7660 C.ar   57  TYR57      -0.0009
     59  CE1       50.3380    5.4920    5.8080 C.ar   57  TYR57       0.0417
     60  CE2       50.6180    3.8000    7.4970 C.ar   57  TYR57       0.0417
     61  CZ        50.8830    5.0710    7.0110 C.ar   57  TYR57       0.1957
     62  OH        51.6830    5.9520    7.7090 O.3    57  TYR57      -0.2866
     63  N         61.9960   -0.7370    9.2430 N.3   165  ARG165     -0.1245
     64  CA        61.2750   -0.5330    7.9800 C.3   165  ARG165      0.1563
     65  C         60.7220    0.8850    7.9390 C.2   165  ARG165      0.2260
     66  O         60.1040    1.3370    8.9100 O.2   165  ARG165     -0.2867
     67  CB        60.1090   -1.5040    7.8500 C.3   165  ARG165      0.0307
     68  CG        60.4910   -2.9650    7.7070 C.3   165  ARG165      0.0489
     69  CD        59.2280   -3.8210    7.7010 C.3   165  ARG165      0.2205
     70  NE        59.5030   -5.2410    7.9100 N.pl3 165  ARG165     -0.0865
     71  CZ        58.5700   -6.1900    8.0670 C.cat 165  ARG165      0.5346
     72  NH1       57.2810   -5.8970    8.0390 N.pl3 165  ARG165      0.1354
     73  NH2       58.9380   -7.4500    8.2580 N.pl3 165  ARG165      0.1354
     74  N         58.2290    2.2830    6.2700 N.3   167  GLU167     -0.1231
     75  CA        56.7550    2.4080    6.2030 C.3   167  GLU167      0.1699
     76  C         56.0330    2.2800    7.5310 C.2   167  GLU167      0.2592
     77  O         54.9110    2.7560    7.6480 O.2   167  GLU167     -0.2718
     78  CB        56.1270    1.3550    5.2720 C.3   167  GLU167      0.0402
     79  CG        56.5890    1.3820    3.8290 C.3   167  GLU167      0.1161
     80  CD        57.8610    0.5830    3.5950 C.2   167  GLU167      0.3649
     81  OE1       58.5240    0.1950    4.5790 O.co2 167  GLU167     -0.2457
     82  OE2       58.2110    0.3600    2.4200 O.co2 167  GLU167     -0.2457
     83  N         56.6390    1.5980    8.5060 N.am  168  GLU168     -0.1979
     84  CA        55.9650    1.3190    9.7860 C.3   168  GLU168      0.1602
     85  C         56.4760    2.1780   10.9350 C.2   168  GLU168      0.2287
     86  O         56.0110    2.0390   12.0650 O.2   168  GLU168     -0.2864
     87  CB        56.1040   -0.1760   10.1560 C.3   168  GLU168      0.0415
     88  CG        55.3480   -1.1290    9.2280 C.3   168  GLU168      0.1163
     89  CD        55.7580   -2.5990    9.3310 C.2   168  GLU168      0.3649
     90  OE1       56.6800   -2.9340   10.0970 O.co2 168  GLU168     -0.2457
     91  OE2       55.1390   -3.4300    8.6220 O.co2 168  GLU168     -0.2457
     92  N         55.8640    5.0650   11.6510 N.3   170  GLY170     -0.1210
     93  CA        54.7300    5.8350   12.1540 C.3   170  GLY170      0.1956
     94  C         53.6160    5.1140   12.9070 C.2   170  GLY170      0.2612
     95  O         52.7560    5.7840   13.4800 O.2   170  GLY170     -0.2717
     96  N         53.5980    3.7710   12.9130 N.am  171  ILE171     -0.1966
     97  CA        52.5820    3.0340   13.6990 C.3   171  ILE171      0.1712
     98  C         52.6380    3.5730   15.1080 C.2   171  ILE171      0.2458
     99  O         53.7140    3.5900   15.7160 O.2   171  ILE171     -0.2730
    100  CB        52.8150    1.5100   13.7970 C.3   171  ILE171      0.0289
    101  CG1       52.8020    0.8700   12.4120 C.3   171  ILE171      0.0022
    102  CG2       51.7480    0.8570   14.6750 C.3   171  ILE171      0.0023
    103  CD1       53.0750   -0.6210   12.4110 C.3   171  ILE171      0.0001
    104  N         51.4760    3.9780   15.6460 N.am  172  PRO172     -0.2727
    105  CA        51.4390    4.6070   16.9560 C.3   172  PRO172      0.1402
    106  C         51.2360    3.5990   18.0730 C.2   172  PRO172      0.2269
    107  O         50.4990    2.6180   17.9000 O.2   172  PRO172     -0.2865
    108  CB        50.2430    5.5640   16.8420 C.3   172  PRO172      0.0296
    109  CG        49.3180    4.8970   15.8840 C.3   172  PRO172      0.0237
    110  CD        50.1630    4.0400   14.9680 C.3   172  PRO172      0.0939
    111  N         47.6250    2.1300   19.0240 N.3   175  TYR175     -0.1241
    112  CA        47.1550    0.9930   18.2190 C.3   175  TYR175      0.1605
    113  C         47.7530   -0.3030   18.7340 C.2   175  TYR175      0.2264
    114  O         47.0510   -1.3020   18.8650 O.2   175  TYR175     -0.2867
    115  CB        47.5480    1.1720   16.7550 C.3   175  TYR175      0.0534
    116  CG        46.8480    0.2680   15.7540 C.ar  175  TYR175     -0.0201
    117  CD1       45.4700    0.3680   15.5390 C.ar  175  TYR175     -0.0009
    118  CD2       47.5650   -0.6550   14.9760 C.ar  175  TYR175     -0.0009
    119  CE1       44.8290   -0.4270   14.5990 C.ar  175  TYR175      0.0417
    120  CE2       46.9200   -1.4610   14.0340 C.ar  175  TYR175      0.0417
    121  CZ        45.5510   -1.3310   13.8440 C.ar  175  TYR175      0.1957
    122  OH        44.8800   -2.1050   12.9040 O.3   175  TYR175     -0.2866
@<TRIPOS>BOND
     1    49    48    2
     2    50    48   am
     3    30    31    1
     4    48    47    1
     5    32    31    1
     6    32    33    2
     7    25    24    2
     8    29    27   am
     9    47    46    1
    10    24    23    1
    11    46    43    1
    12    27    26    1
    13    27    28    2
    14    34    35    1
    15    43    42    1
    16    43    44    1
    17    23    26    1
    18    23    22    1
    19    42    36   am
    20    44    45    2
    21    22    18   am
    22    38    35    1
    23    38    39    1
    24    35    36    1
    25    36    37    2
    26    18    17    1
    27    18    19    2
    28    16    17    1
    29    82    80   ar
    30    41    39    1
    31    39    40    1
    32    17    20    1
    33    80    79    1
    34    80    81   ar
    35    79    78    1
    36    51    52    1
    37    20    21    1
    38    12    11    2
    39     9    10    1
    40    55    52    1
    41    55    56    1
    42    53    52    1
    43    53    54    2
    44    10    11    1
    45    10    13    1
    46    57    56   ar
    47    57    59   ar
    48    78    75    1
    49    56    58   ar
    50    59    61   ar
    51    15    13    1
    52    13    14    1
    53    75    74    1
    54    75    76    1
    55    58    60   ar
    56    61    60   ar
    57    61    62    1
    58    76    77    2
    59    76    83   am
    60    69    68    1
    61    69    70    1
    62    68    67    1
    63    67    64    1
    64    70    71    2
    65    65    64    1
    66    65    66    2
    67    64    63    1
    68    72    71    1
    69    71    73    1
    70    83    84    1
    71    91    89   ar
    72    88    89    1
    73    88    87    1
    74    89    90   ar
    75    84    87    1
    76    84    85    1
    77    85    86    2
    78    92    93    1
    79    93    94    1
    80   103   101    1
    81   101   100    1
    82   122   121    1
    83    94    96   am
    84    94    95    2
    85    96    97    1
    86    97   100    1
    87    97    98    1
    88   100   102    1
    89   121   120   ar
    90   121   119   ar
    91     8     6    1
    92   120   118   ar
    93     7     5    1
    94     6     5    1
    95   119   117   ar
    96     5     2    1
    97   110   104    1
    98   110   109    1
    99   118   116   ar
   100    98   104   am
   101    98    99    2
   102     2     3    1
   103     2     1    1
   104   117   116   ar
   105   104   105    1
   106   116   115    1
   107   109   108    1
   108     3     4    2
   109   115   112    1
   110   108   105    1
   111   105   106    1
   112   107   106    2
   113   112   113    1
   114   112   111    1
   115   113   114    2
