@<TRIPOS>MOLECULE
tmp/4q1pB00.pdb
 141 132 0 0 0
SMALL
GASTEIGER

@<TRIPOS>ATOM
      1  N         22.1590   -9.9440   19.4220 N.3    27  SER27      -0.1217
      2  CA        20.7790  -10.0700   19.0350 C.3    27  SER27       0.1889
      3  C         20.2700   -8.6820   18.7040 C.2    27  SER27       0.2288
      4  O         20.6850   -7.7320   19.3440 O.2    27  SER27      -0.2866
      5  CB        20.0050  -10.6590   20.2190 C.3    27  SER27       0.2089
      6  OG        18.6220  -10.6710   20.0090 O.3    27  SER27      -0.2183
      7  N         16.3280   -6.6450   17.2780 N.3    29  VAL29      -0.1245
      8  CA        14.9090   -6.8130   17.0620 C.3    29  VAL29       0.1561
      9  C         14.3220   -5.6530   16.2940 C.2    29  VAL29       0.2260
     10  O         14.6290   -4.4760   16.5700 O.2    29  VAL29      -0.2867
     11  CB        14.1350   -6.9130   18.4160 C.3    29  VAL29       0.0252
     12  CG1       12.6430   -6.8570   18.2090 C.3    29  VAL29       0.0019
     13  CG2       14.4810   -8.1890   19.1630 C.3    29  VAL29       0.0019
     14  N         10.2650   -4.8320   15.5830 N.3    31  ASN31      -0.1240
     15  CA         8.8670   -5.1730   15.7500 C.3    31  ASN31       0.1653
     16  C          8.0160   -4.2990   14.8660 C.2    31  ASN31       0.2266
     17  O          8.2080   -3.0800   14.8310 O.2    31  ASN31      -0.2867
     18  CB         8.4200   -4.9620   17.2010 C.3    31  ASN31       0.1155
     19  CG         9.0080   -5.9690   18.1360 C.2    31  ASN31       0.2627
     20  OD1        9.2870   -7.0910   17.7370 O.2    31  ASN31      -0.2716
     21  ND2        9.1490   -5.6090   19.4050 N.am   31  ASN31      -0.0877
     22  N          7.6460   -9.8330   14.7150 N.3    42  HIS42      -0.1241
     23  CA         8.7630   -9.6960   15.6200 C.3    42  HIS42       0.1621
     24  C          9.9100  -10.3640   14.8940 C.2    42  HIS42       0.2264
     25  O          9.8880  -11.5740   14.7160 O.2    42  HIS42      -0.2867
     26  CB         8.4530  -10.4070   16.9380 C.3    42  HIS42       0.0745
     27  CG         9.6350  -10.5830   17.8330 C.ar   42  HIS42       0.0817
     28  ND1       10.1570   -9.5550   18.5920 N.ar   42  HIS42      -0.2268
     29  CD2       10.3420  -11.6930   18.1630 C.ar   42  HIS42       0.1154
     30  CE1       11.1680  -10.0130   19.3140 C.ar   42  HIS42       0.1986
     31  NE2       11.3010  -11.3080   19.0730 N.ar   42  HIS42      -0.2212
     32  N         13.8160  -11.0730   14.7280 N.3    44  ASN44      -0.1240
     33  CA        14.8730  -11.1660   15.7110 C.3    44  ASN44       0.1653
     34  C         16.0580  -12.0120   15.2370 C.2    44  ASN44       0.2266
     35  O         16.1520  -13.2090   15.5380 O.2    44  ASN44      -0.2867
     36  CB        14.2630  -11.7500   16.9930 C.3    44  ASN44       0.1155
     37  CG        15.2580  -11.8910   18.1490 C.2    44  ASN44       0.2627
     38  OD1       15.0310  -12.7090   19.0440 O.2    44  ASN44      -0.2716
     39  ND2       16.3390  -11.1190   18.1390 N.am   44  ASN44      -0.0877
     40  N         19.4620  -13.4680   15.6520 N.3    46  ARG46      -0.1245
     41  CA        20.2480  -13.8410   16.8070 C.3    46  ARG46       0.1563
     42  C         21.5990  -14.3390   16.3480 C.2    46  ARG46       0.2260
     43  O         21.7060  -15.3940   15.7230 O.2    46  ARG46      -0.2867
     44  CB        19.5220  -14.9230   17.5910 C.3    46  ARG46       0.0307
     45  CG        18.2150  -14.4410   18.2120 C.3    46  ARG46       0.0489
     46  CD        17.4750  -15.5780   18.8810 C.3    46  ARG46       0.2205
     47  NE        16.1980  -15.1270   19.4300 N.pl3  46  ARG46      -0.0865
     48  CZ        15.3300  -15.9180   20.0380 C.cat  46  ARG46       0.5346
     49  NH1       14.1960  -15.4050   20.5060 N.pl3  46  ARG46       0.1354
     50  NH2       15.6120  -17.2130   20.2130 N.pl3  46  ARG46       0.1354
     51  N         19.6120  -16.7490   23.4290 N.3    50  HIS50      -0.1226
     52  CA        18.4580  -17.5890   23.7450 C.3    50  HIS50       0.1752
     53  C         18.5470  -18.9750   23.1220 C.2    50  HIS50       0.2597
     54  O         17.5290  -19.5500   22.7390 O.2    50  HIS50      -0.2718
     55  CB        17.1370  -16.9200   23.3140 C.3    50  HIS50       0.0759
     56  CG        16.9000  -15.5740   23.9280 C.ar   50  HIS50       0.0818
     57  ND1       16.4410  -15.4040   25.2180 N.ar   50  HIS50      -0.2268
     58  CD2       17.0650  -14.3280   23.4210 C.ar   50  HIS50       0.1154
     59  CE1       16.3310  -14.1140   25.4760 C.ar   50  HIS50       0.1986
     60  NE2       16.7100  -13.4390   24.4050 N.ar   50  HIS50      -0.2212
     61  N         19.7550  -19.5200   23.0310 N.am   51  GLY51      -0.1942
     62  CA        19.9240  -20.8730   22.5450 C.3    51  GLY51       0.2014
     63  C         20.1380  -21.0000   21.0500 C.2    51  GLY51       0.2638
     64  O         20.2780  -22.1110   20.5490 O.2    51  GLY51      -0.2714
     65  N         20.1810  -19.8670   20.3560 N.am   52  ASP52      -0.1971
     66  CA        20.3520  -19.8110   18.9020 C.3    52  ASP52       0.1709
     67  C         21.6740  -19.1480   18.4920 C.2    52  ASP52       0.2293
     68  O         22.0770  -18.1180   19.0320 O.2    52  ASP52      -0.2864
     69  CB        19.1960  -19.0180   18.2610 C.3    52  ASP52       0.1436
     70  CG        17.8570  -19.7550   18.3120 C.2    52  ASP52       0.3671
     71  OD1       17.7520  -20.8150   17.6620 O.co2  52  ASP52      -0.2456
     72  OD2       16.9020  -19.2490   18.9620 O.co2  52  ASP52      -0.2456
     73  N         14.9140  -15.4990   14.1650 N.3    57  VAL57      -0.1245
     74  CA        13.6820  -15.9790   14.7460 C.3    57  VAL57       0.1561
     75  C         12.6030  -14.9280   14.4580 C.2    57  VAL57       0.2260
     76  O         12.7780  -13.7240   14.6980 O.2    57  VAL57      -0.2867
     77  CB        13.8240  -16.1680   16.2770 C.3    57  VAL57       0.0252
     78  CG1       12.4800  -16.5710   16.8990 C.3    57  VAL57       0.0019
     79  CG2       14.9040  -17.1950   16.5980 C.3    57  VAL57       0.0019
     80  N          8.3360  -14.1080   15.0260 N.3    59  ASN59      -0.1240
     81  CA         7.1200  -14.4430   15.7000 C.3    59  ASN59       0.1653
     82  C          6.0740  -13.3500   15.5060 C.2    59  ASN59       0.2266
     83  O          6.3640  -12.2980   14.9360 O.2    59  ASN59      -0.2867
     84  CB         7.3750  -14.6660   17.2000 C.3    59  ASN59       0.1155
     85  CG         6.4410  -15.6860   17.8140 C.2    59  ASN59       0.2627
     86  OD1        5.3750  -15.9950   17.2660 O.2    59  ASN59      -0.2716
     87  ND2        6.8230  -16.1900   19.0110 N.am   59  ASN59      -0.0877
     88  N          2.3790  -14.1460   22.7040 N.3    66  TRP66      -0.1241
     89  CA         3.2860  -14.6000   21.6590 C.3    66  TRP66       0.1605
     90  C          2.7070  -15.7610   20.8950 C.2    66  TRP66       0.2264
     91  O          2.0920  -16.6560   21.4670 O.2    66  TRP66      -0.2867
     92  CB         4.6350  -15.0220   22.2270 C.3    66  TRP66       0.0550
     93  CG         5.5080  -13.9180   22.7250 C.ar   66  TRP66       0.0003
     94  CD1        5.8630  -13.6700   24.0130 C.ar   66  TRP66       0.0946
     95  CD2        6.1820  -12.9490   21.9280 C.ar   66  TRP66       0.0152
     96  NE1        6.7020  -12.5880   24.0650 N.ar   66  TRP66      -0.2442
     97  CE2        6.9150  -12.1300   22.7910 C.ar   66  TRP66       0.0810
     98  CE3        6.2300  -12.6890   20.5560 C.ar   66  TRP66       0.0012
     99  CZ2        7.6760  -11.0500   22.3260 C.ar   66  TRP66       0.0191
    100  CZ3        6.9720  -11.6110   20.0940 C.ar   66  TRP66       0.0001
    101  CH2        7.6950  -10.8140   20.9740 C.ar   66  TRP66       0.0015
    102  N          7.0270  -19.5140   17.2090 N.3    69  GLU69      -0.1245
    103  CA         8.2440  -19.0920   16.5120 C.3    69  GLU69       0.1567
    104  C          8.4510  -19.8140   15.1950 C.2    69  GLU69       0.2260
    105  O          8.2170  -21.0440   15.0820 O.2    69  GLU69      -0.2867
    106  CB         9.4920  -19.2970   17.3510 C.3    69  GLU69       0.0388
    107  CG         9.5300  -18.4400   18.5950 C.3    69  GLU69       0.1160
    108  CD        10.6900  -18.7680   19.5500 C.2    69  GLU69       0.3649
    109  OE1       11.3600  -19.8120   19.4150 O.co2  69  GLU69      -0.2457
    110  OE2       10.9390  -17.9660   20.4600 O.co2  69  GLU69      -0.2457
    111  N         11.7120  -20.2570   12.5010 N.3    71  ARG71      -0.1245
    112  CA        13.1490  -20.0310   12.3220 C.3    71  ARG71       0.1563
    113  C         13.4940  -20.0620   10.8480 C.2    71  ARG71       0.2260
    114  O         13.0890  -20.9650   10.1210 O.2    71  ARG71      -0.2867
    115  CB        13.9850  -21.0490   13.1140 C.3    71  ARG71       0.0307
    116  CG        14.0440  -20.6390   14.5900 C.3    71  ARG71       0.0489
    117  CD        14.8470  -21.6140   15.4760 C.3    71  ARG71       0.2205
    118  NE        15.0040  -21.0640   16.8290 N.pl3  71  ARG71      -0.0865
    119  CZ        13.9920  -20.8590   17.6750 C.cat  71  ARG71       0.5346
    120  NH1       12.7460  -21.1430   17.3210 N.pl3  71  ARG71       0.1354
    121  NH2       14.2190  -20.3240   18.8600 N.pl3  71  ARG71       0.1354
    122  N         15.0000   -2.6920   18.9480 N.3   120  ASP120     -0.1225
    123  CA        15.6720   -2.9310   20.2170 C.3   120  ASP120      0.1805
    124  C         16.8980   -3.7740   19.9410 C.2   120  ASP120      0.2598
    125  O         17.0400   -4.3640   18.8490 O.2   120  ASP120     -0.2718
    126  CB        14.7300   -3.6400   21.1890 C.3   120  ASP120      0.1424
    127  CG        15.0510   -3.3350   22.6580 C.2   120  ASP120      0.3668
    128  OD1       16.1620   -2.8230   22.9480 O.co2 120  ASP120     -0.2456
    129  OD2       14.1860   -3.6070   23.5220 O.co2 120  ASP120     -0.2456
    130  N         17.8100   -3.8170   20.8940 N.am  121  GLY121     -0.1942
    131  CA        18.9830   -4.6550   20.7630 C.3   121  GLY121      0.2014
    132  C         20.1350   -4.0070   20.0340 C.2   121  GLY121      0.2638
    133  O         20.2580   -2.7960   19.9890 O.2   121  GLY121     -0.2714
    134  N         20.9520   -4.8300   19.4010 N.am  122  ASP122     -0.1971
    135  CA        22.2440   -4.3890   18.8880 C.3   122  ASP122      0.1709
    136  C         22.1880   -3.8690   17.4570 C.2   122  ASP122      0.2293
    137  O         23.0200   -4.2500   16.6290 O.2   122  ASP122     -0.2864
    138  CB        23.2210   -5.5560   18.9940 C.3   122  ASP122      0.1436
    139  CG        23.3930   -6.0270   20.4340 C.2   122  ASP122      0.3671
    140  OD1       23.5140   -7.2680   20.6880 O.co2 122  ASP122     -0.2456
    141  OD2       23.3860   -5.1270   21.3040 O.co2 122  ASP122     -0.2456
@<TRIPOS>BOND
     1   114   113    2
     2   113   112    1
     3   112   111    1
     4   112   115    1
     5   115   116    1
     6    73    74    1
     7    75    76    2
     8    75    74    1
     9   116   117    1
    10    22    23    1
    11    25    24    2
    12    32    33    1
    13    74    77    1
    14    17    16    2
    15    16    15    1
    16    24    23    1
    17    83    82    2
    18    80    81    1
    19   105   104    2
    20   104   103    1
    21    34    35    2
    22    34    33    1
    23   117   118    1
    24    82    81    1
    25    14    15    1
    26    23    26    1
    27    40    41    1
    28    81    84    1
    29    33    36    1
    30    43    42    2
    31    15    18    1
    32    77    79    1
    33    77    78    1
    34     9    10    2
    35     9     8    1
    36    42    41    1
    37   103   102    1
    38   103   106    1
    39   137   136    2
    40    41    44    1
    41   118   119    2
    42    26    27    1
    43    36    37    1
    44     8     7    1
    45     8    11    1
    46    84    85    1
    47    18    19    1
    48    86    85    2
    49   120   119    1
    50   106   107    1
    51   136   135    1
    52    44    45    1
    53    71    70   ar
    54   119   121    1
    55    20    19    2
    56    85    87   am
    57    27    29   ar
    58    27    28   ar
    59    19    21   am
    60    39    37   am
    61    37    38    2
    62    29    31   ar
    63    12    11    1
    64    45    46    1
    65    69    70    1
    66    69    66    1
    67    70    72   ar
    68    11    13    1
    69    67    66    1
    70    67    68    2
    71    28    30   ar
    72   107   108    1
    73     3     2    1
    74     3     4    2
    75   125   124    2
    76    46    47    1
    77   135   138    1
    78   135   134    1
    79    66    65    1
    80   122   123    1
    81   138   139    1
    82     2     1    1
    83     2     5    1
    84    31    30   ar
    85   134   132   am
    86   109   108   ar
    87    47    48    2
    88   108   110   ar
    89   124   123    1
    90   124   130   am
    91   133   132    2
    92     6     5    1
    93   132   131    1
    94    48    50    1
    95    48    49    1
    96   100    98   ar
    97   100   101   ar
    98   123   126    1
    99    65    63   am
   100   139   140   ar
   101   139   141   ar
   102    64    63    2
   103    98    95   ar
   104   131   130    1
   105    90    91    2
   106    90    89    1
   107   101    99   ar
   108    63    62    1
   109   126   127    1
   110    89    92    1
   111    89    88    1
   112    95    93   ar
   113    95    97   ar
   114    92    93    1
   115    99    97   ar
   116    62    61    1
   117   127   128   ar
   118   127   129   ar
   119    93    94   ar
   120    54    53    2
   121    97    96   ar
   122    61    53   am
   123    53    52    1
   124    55    52    1
   125    55    56    1
   126    58    56   ar
   127    58    60   ar
   128    51    52    1
   129    56    57   ar
   130    94    96   ar
   131    60    59   ar
   132    57    59   ar
