@<TRIPOS>MOLECULE
tmp/4q1qA18.pdb
 53 49 0 0 0
SMALL
GASTEIGER

@<TRIPOS>ATOM
      1  N         75.8980   26.9840   95.3960 N.3    41  GLY41      -0.1210
      2  CA        75.1940   26.6720   96.6300 C.3    41  GLY41       0.1956
      3  C         74.5620   27.8750   97.3020 C.2    41  GLY41       0.2612
      4  O         73.9170   27.7350   98.3430 O.2    41  GLY41      -0.2717
      5  N         74.7560   29.0640   96.7410 N.am   42  GLY42      -0.1942
      6  CA        74.0260   30.2500   97.1820 C.3    42  GLY42       0.2014
      7  C         72.6040   30.2700   96.6610 C.2    42  GLY42       0.2639
      8  O         72.2910   29.6360   95.6520 O.2    42  GLY42      -0.2714
      9  N         71.7430   31.0200   97.3390 N.am   43  SER43      -0.1949
     10  CA        70.3490   31.1670   96.9450 C.3    43  SER43       0.1924
     11  C         69.8370   32.5780   97.2190 C.2    43  SER43       0.2314
     12  O         69.7310   32.9940   98.3720 O.2    43  SER43      -0.2863
     13  CB        69.4530   30.1800   97.6970 C.3    43  SER43       0.2116
     14  OG        69.2620   28.9570   97.0030 O.3    43  SER43      -0.2180
     15  N         76.0580   26.8090   89.8700 N.3    60  GLY60      -0.1210
     16  CA        75.4990   26.2550   91.0960 C.3    60  GLY60       0.1956
     17  C         74.6850   27.2570   91.8890 C.2    60  GLY60       0.2612
     18  O         74.1110   26.9090   92.9170 O.2    60  GLY60      -0.2717
     19  N         74.6220   28.5050   91.4420 N.am   61  GLY61      -0.1942
     20  CA        73.8220   29.5150   92.1240 C.3    61  GLY61       0.2014
     21  C         72.3660   29.4390   91.7070 C.2    61  GLY61       0.2640
     22  O         72.0150   28.8110   90.7100 O.2    61  GLY61      -0.2714
     23  N         71.5020   30.0930   92.4760 N.am   62  SER62      -0.1935
     24  CA        70.0680   29.9770   92.2670 C.3    62  SER62       0.2055
     25  C         69.4210   31.3100   92.6020 C.2    62  SER62       0.2643
     26  O         69.7830   31.9530   93.5850 O.2    62  SER62      -0.2714
     27  CB        69.4690   28.8510   93.1230 C.3    62  SER62       0.2130
     28  OG        70.0430   27.5690   92.8800 O.3    62  SER62      -0.2179
     29  N         68.4590   31.7330   91.7950 N.am   63  ALA63      -0.1963
     30  CA        67.7880   32.9980   92.0500 C.3    63  ALA63       0.1728
     31  C         66.3200   32.8230   91.7010 C.2    63  ALA63       0.2616
     32  O         65.9460   32.6750   90.5390 O.2    63  ALA63      -0.2715
     33  CB        68.4060   34.1400   91.2610 C.3    63  ALA63       0.0334
     34  N         65.5010   32.8350   92.7450 N.am   64  THR64      -0.1951
     35  CA        64.0820   32.6120   92.6120 C.3    64  THR64       0.1897
     36  C         63.4240   33.9660   92.7920 C.2    64  THR64       0.2313
     37  O         63.8150   34.7530   93.6470 O.2    64  THR64      -0.2863
     38  CB        63.6300   31.5710   93.6540 C.3    64  THR64       0.1794
     39  OG1       64.7540   31.2320   94.4780 O.3    64  THR64      -0.2208
     40  CG2       63.1680   30.2820   93.0020 C.3    64  THR64       0.0378
     41  N         71.0610   29.1710   87.6830 N.3    81  SER81      -0.1217
     42  CA        69.6590   28.8220   87.5490 C.3    81  SER81       0.1889
     43  C         68.8280   29.9740   88.0730 C.2    81  SER81       0.2288
     44  O         69.0590   30.4940   89.1610 O.2    81  SER81      -0.2866
     45  CB        69.3200   27.5480   88.3370 C.3    81  SER81       0.2089
     46  OG        68.0720   26.9490   87.9880 O.3    81  SER81      -0.2183
     47  N         64.7170   31.1450   88.4600 N.3    83  THR83      -0.1218
     48  CA        63.3750   30.5950   88.4440 C.3    83  THR83       0.1862
     49  C         62.3550   31.6760   88.7380 C.2    83  THR83       0.2287
     50  O         62.5060   32.4300   89.6960 O.2    83  THR83      -0.2866
     51  CB        63.2310   29.4610   89.4780 C.3    83  THR83       0.1770
     52  OG1       64.0050   28.3260   89.0690 O.3    83  THR83      -0.2211
     53  CG2       61.7720   29.0560   89.6080 C.3    83  THR83       0.0375
@<TRIPOS>BOND
     1    42    41    1
     2    42    43    1
     3    42    45    1
     4    46    45    1
     5    43    44    2
     6    48    47    1
     7    48    49    1
     8    48    51    1
     9    49    50    2
    10    52    51    1
    11    51    53    1
    12    15    16    1
    13    32    31    2
    14    22    21    2
    15    16    17    1
    16    33    30    1
    17    19    17   am
    18    19    20    1
    19    31    30    1
    20    31    34   am
    21    21    20    1
    22    21    23   am
    23    29    30    1
    24    29    25   am
    25    17    18    2
    26    24    23    1
    27    24    25    1
    28    24    27    1
    29    25    26    2
    30    35    34    1
    31    35    36    1
    32    35    38    1
    33    36    37    2
    34    28    27    1
    35    40    38    1
    36    38    39    1
    37     1     2    1
    38     8     7    2
    39     2     3    1
    40     7     6    1
    41     7     9   am
    42     5     6    1
    43     5     3   am
    44    10    11    1
    45    10     9    1
    46    10    13    1
    47    14    13    1
    48    11    12    2
    49     3     4    2
