@<TRIPOS>MOLECULE
tmp/4q1qA19.pdb
 58 54 0 0 0
SMALL
GASTEIGER

@<TRIPOS>ATOM
      1  N         76.0580   26.8090   89.8700 N.3    60  GLY60      -0.1210
      2  CA        75.4990   26.2550   91.0960 C.3    60  GLY60       0.1956
      3  C         74.6850   27.2570   91.8890 C.2    60  GLY60       0.2612
      4  O         74.1110   26.9090   92.9170 O.2    60  GLY60      -0.2717
      5  N         74.6220   28.5050   91.4420 N.am   61  GLY61      -0.1942
      6  CA        73.8220   29.5150   92.1240 C.3    61  GLY61       0.2014
      7  C         72.3660   29.4390   91.7070 C.2    61  GLY61       0.2639
      8  O         72.0150   28.8110   90.7100 O.2    61  GLY61      -0.2714
      9  N         71.5020   30.0930   92.4760 N.am   62  SER62      -0.1949
     10  CA        70.0680   29.9770   92.2670 C.3    62  SER62       0.1924
     11  C         69.4210   31.3100   92.6020 C.2    62  SER62       0.2314
     12  O         69.7830   31.9530   93.5850 O.2    62  SER62      -0.2863
     13  CB        69.4690   28.8510   93.1230 C.3    62  SER62       0.2116
     14  OG        70.0430   27.5690   92.8800 O.3    62  SER62      -0.2180
     15  N         75.7820   27.2880   84.4660 N.3    79  GLY79      -0.1210
     16  CA        75.5770   26.4320   85.6290 C.3    79  GLY79       0.1956
     17  C         74.6140   27.1030   86.5760 C.2    79  GLY79       0.2612
     18  O         74.0670   26.4490   87.4530 O.2    79  GLY79      -0.2717
     19  N         74.3920   28.3980   86.3830 N.am   80  GLY80      -0.1942
     20  CA        73.4060   29.1600   87.1370 C.3    80  GLY80       0.2014
     21  C         71.9630   28.9020   86.7470 C.2    80  GLY80       0.2640
     22  O         71.6660   28.5250   85.6180 O.2    80  GLY80      -0.2714
     23  N         71.0610   29.1710   87.6830 N.am   81  SER81      -0.1935
     24  CA        69.6590   28.8220   87.5490 C.3    81  SER81       0.2055
     25  C         68.8280   29.9740   88.0730 C.2    81  SER81       0.2643
     26  O         69.0590   30.4940   89.1610 O.2    81  SER81      -0.2714
     27  CB        69.3200   27.5480   88.3370 C.3    81  SER81       0.2130
     28  OG        68.0720   26.9490   87.9880 O.3    81  SER81      -0.2179
     29  N         67.8270   30.3560   87.2940 N.am   82  ALA82      -0.1963
     30  CA        66.9570   31.4620   87.6330 C.3    82  ALA82       0.1728
     31  C         65.5580   30.9020   87.4630 C.2    82  ALA82       0.2616
     32  O         65.2410   30.2890   86.4410 O.2    82  ALA82      -0.2715
     33  CB        67.1690   32.6550   86.7120 C.3    82  ALA82       0.0334
     34  N         64.7170   31.1450   88.4600 N.am   83  THR83      -0.1951
     35  CA        63.3750   30.5950   88.4440 C.3    83  THR83       0.1897
     36  C         62.3550   31.6760   88.7380 C.2    83  THR83       0.2313
     37  O         62.5060   32.4300   89.6960 O.2    83  THR83      -0.2863
     38  CB        63.2310   29.4610   89.4780 C.3    83  THR83       0.1794
     39  OG1       64.0050   28.3260   89.0690 O.3    83  THR83      -0.2208
     40  CG2       61.7720   29.0560   89.6080 C.3    83  THR83       0.0378
     41  N         70.4370   28.7300   82.7370 N.3   100  SER100     -0.1202
     42  CA        69.0870   28.2010   82.6170 C.3   100  SER100      0.2020
     43  C         68.0760   29.1060   83.2990 C.2   100  SER100      0.2618
     44  O         68.2550   29.5000   84.4460 O.2   100  SER100     -0.2717
     45  CB        69.0160   26.7950   83.2170 C.3   100  SER100      0.2103
     46  OG        67.7040   26.2590   83.1110 O.3   100  SER100     -0.2182
     47  N         66.9870   29.4100   82.6040 N.am  101  ALA101     -0.1979
     48  CA        65.9130   30.1860   83.2090 C.3   101  ALA101      0.1597
     49  C         64.6610   29.3690   83.0110 C.2   101  ALA101      0.2287
     50  O         64.4590   28.7690   81.9630 O.2   101  ALA101     -0.2864
     51  CB        65.7200   31.5670   82.5940 C.3   101  ALA101      0.0319
     52  N         63.0300   27.9130   79.5890 N.3   120  THR120     -0.1218
     53  CA        61.8920   27.0380   79.4730 C.3   120  THR120      0.1862
     54  C         60.7980   27.8520   80.1150 C.2   120  THR120      0.2287
     55  O         61.0140   28.4360   81.1740 O.2   120  THR120     -0.2866
     56  CB        62.1470   25.6780   80.1620 C.3   120  THR120      0.1770
     57  OG1       63.2600   25.0090   79.5410 O.3   120  THR120     -0.2211
     58  CG2       60.9350   24.7630   80.0720 C.3   120  THR120      0.0375
@<TRIPOS>BOND
     1    53    52    1
     2    53    54    1
     3    53    56    1
     4    57    56    1
     5    58    56    1
     6    54    55    2
     7    50    49    2
     8    51    48    1
     9    47    48    1
    10    47    43   am
    11    42    41    1
    12    42    45    1
    13    42    43    1
    14    49    48    1
    15    46    45    1
    16    43    44    2
    17    15    16    1
    18    22    21    2
    19    16    17    1
    20    19    17   am
    21    19    20    1
    22    32    31    2
    23    17    18    2
    24    33    30    1
    25    21    20    1
    26    21    23   am
    27    29    30    1
    28    29    25   am
    29    31    30    1
    30    31    34   am
    31    24    23    1
    32    24    25    1
    33    24    27    1
    34    28    27    1
    35    25    26    2
    36    35    34    1
    37    35    36    1
    38    35    38    1
    39    36    37    2
    40    39    38    1
    41    38    40    1
    42     1     2    1
    43     8     7    2
    44     2     3    1
    45     5     3   am
    46     5     6    1
    47     7     6    1
    48     7     9   am
    49     3     4    2
    50    10     9    1
    51    10    11    1
    52    10    13    1
    53    11    12    2
    54    14    13    1
