@<TRIPOS>MOLECULE
tmp/4q1rA00.pdb
 157 149 0 0 0
SMALL
GASTEIGER

@<TRIPOS>ATOM
      1  N         -2.1800   23.8750    3.5430 N.3    26  LYS26      -0.1231
      2  CA        -2.4520   25.1080    4.2620 C.3    26  LYS26       0.1693
      3  C         -1.3760   25.3370    5.3080 C.2    26  LYS26       0.2593
      4  O         -0.9780   26.4690    5.5700 O.2    26  LYS26      -0.2718
      5  CB        -3.8200   25.0440    4.9350 C.3    26  LYS26       0.0285
      6  CG        -4.9940   25.0300    3.9670 C.3    26  LYS26       0.0035
      7  CD        -6.3130   24.9920    4.7190 C.3    26  LYS26       0.0206
      8  CE        -7.5000   24.9660    3.7690 C.3    26  LYS26       0.1093
      9  NZ        -7.5630   26.1950    2.9320 N.3    26  LYS26      -0.1314
     10  N         -0.9100   24.2410    5.9040 N.am   27  SER27      -0.1938
     11  CA        -0.0740   24.2800    7.0960 C.3    27  SER27       0.2055
     12  C          0.5580   22.9080    7.3210 C.2    27  SER27       0.2643
     13  O         -0.0710   21.8930    7.0210 O.2    27  SER27      -0.2714
     14  CB        -0.9550   24.6360    8.3020 C.3    27  SER27       0.2130
     15  OG        -0.2670   24.4750    9.5340 O.3    27  SER27      -0.2179
     16  N          1.7860   22.8580    7.8450 N.am   28  PHE28      -0.1959
     17  CA         2.2770   21.6020    8.4050 C.3    28  PHE28       0.1771
     18  C          3.1140   21.8950    9.6330 C.2    28  PHE28       0.2619
     19  O          3.5240   23.0500    9.8730 O.2    28  PHE28      -0.2715
     20  CB         2.9820   20.6960    7.3710 C.3    28  PHE28       0.0574
     21  CG         4.3730   21.1260    6.9700 C.ar   28  PHE28      -0.0200
     22  CD1        5.4730   20.7350    7.7150 C.ar   28  PHE28      -0.0042
     23  CD2        4.5880   21.8460    5.8030 C.ar   28  PHE28      -0.0042
     24  CE1        6.7490   21.0900    7.3420 C.ar   28  PHE28      -0.0003
     25  CE2        5.8770   22.2110    5.4220 C.ar   28  PHE28      -0.0003
     26  CZ         6.9540   21.8240    6.1900 C.ar   28  PHE28      -0.0000
     27  N          3.3310   20.8410   10.4170 N.am   29  VAL29      -0.1977
     28  CA         3.9980   20.9610   11.6940 C.3    29  VAL29       0.1596
     29  C          5.0100   19.8550   11.8790 C.2    29  VAL29       0.2287
     30  O          4.7300   18.6760   11.5960 O.2    29  VAL29      -0.2864
     31  CB         2.9830   20.8840   12.8650 C.3    29  VAL29       0.0276
     32  CG1        3.6900   20.7490   14.2180 C.3    29  VAL29       0.0022
     33  CG2        2.0720   22.1030   12.8670 C.3    29  VAL29       0.0022
     34  N          7.0990   18.8150   15.2970 N.3    31  ASN31      -0.1240
     35  CA         7.3410   19.0600   16.7070 C.3    31  ASN31       0.1653
     36  C          8.4940   18.2080   17.1640 C.2    31  ASN31       0.2266
     37  O          8.5140   17.0090   16.8730 O.2    31  ASN31      -0.2867
     38  CB         6.1180   18.6870   17.5360 C.3    31  ASN31       0.1155
     39  CG         4.9940   19.6830   17.4070 C.2    31  ASN31       0.2627
     40  OD1        5.2190   20.8560   17.1260 O.2    31  ASN31      -0.2716
     41  ND2        3.7680   19.2180   17.6250 N.am   31  ASN31      -0.0877
     42  N          8.5080   23.7290   18.0180 N.3    42  HIS42      -0.1241
     43  CA         7.2930   23.5660   17.2350 C.3    42  HIS42       0.1621
     44  C          7.5650   24.3690   15.9810 C.2    42  HIS42       0.2264
     45  O          7.6900   25.6030   16.0560 O.2    42  HIS42      -0.2867
     46  CB         6.1320   24.1680   18.0010 C.3    42  HIS42       0.0745
     47  CG         4.8740   24.3480   17.2090 C.ar   42  HIS42       0.0817
     48  ND1        4.0430   23.3000   16.8710 N.ar   42  HIS42      -0.2268
     49  CD2        4.2590   25.4720   16.7670 C.ar   42  HIS42       0.1154
     50  CE1        2.9850   23.7720   16.2340 C.ar   42  HIS42       0.1986
     51  NE2        3.0940   25.0850   16.1560 N.ar   42  HIS42      -0.2212
     52  N          6.3260   25.4020   12.3270 N.3    44  ASN44      -0.1240
     53  CA         5.0090   25.4750   11.6990 C.3    44  ASN44       0.1653
     54  C          4.9630   26.4190   10.4840 C.2    44  ASN44       0.2266
     55  O          4.5420   27.5770   10.5850 O.2    44  ASN44      -0.2867
     56  CB         3.9960   25.8740   12.7770 C.3    44  ASN44       0.1155
     57  CG         2.5760   25.9900   12.2680 C.2    44  ASN44       0.2627
     58  OD1        1.7790   26.7130   12.8640 O.2    44  ASN44      -0.2716
     59  ND2        2.2360   25.2640   11.2040 N.am   44  ASN44      -0.0877
     60  N          3.2350   28.0780    7.6300 N.3    46  ARG46      -0.1245
     61  CA         1.8400   28.3400    7.2790 C.3    46  ARG46       0.1563
     62  C          1.7630   28.8890    5.8700 C.2    46  ARG46       0.2260
     63  O          2.2390   29.9970    5.5940 O.2    46  ARG46      -0.2867
     64  CB         1.2050   29.3160    8.2760 C.3    46  ARG46       0.0307
     65  CG         1.2580   28.8210    9.6980 C.3    46  ARG46       0.0489
     66  CD         0.6410   29.7860   10.7130 C.3    46  ARG46       0.2205
     67  NE         0.6970   29.2070   12.0590 N.pl3  46  ARG46      -0.0865
     68  CZ         0.3490   29.8350   13.1820 C.cat  46  ARG46       0.5346
     69  NH1       -0.0990   31.0930   13.1530 N.pl3  46  ARG46       0.1354
     70  NH2        0.4590   29.2060   14.3450 N.pl3  46  ARG46       0.1354
     71  N         -4.4590   30.3600   10.0280 N.3    50  HIS50      -0.1241
     72  CA        -4.5410   31.3280   11.1280 C.3    50  HIS50       0.1621
     73  C         -4.3560   32.7770   10.6610 C.2    50  HIS50       0.2264
     74  O         -3.8070   33.6120   11.3860 O.2    50  HIS50      -0.2867
     75  CB        -3.5180   30.9930   12.2210 C.3    50  HIS50       0.0745
     76  CG        -3.6540   29.6080   12.7740 C.ar   50  HIS50       0.0817
     77  ND1       -2.8050   28.5810   12.4220 N.ar   50  HIS50      -0.2268
     78  CD2       -4.5370   29.0810   13.6540 C.ar   50  HIS50       0.1154
     79  CE1       -3.1580   27.4810   13.0620 C.ar   50  HIS50       0.1986
     80  NE2       -4.2070   27.7570   13.8160 N.ar   50  HIS50      -0.2212
     81  N         -2.4520   33.7900    8.3920 N.3    52  ASP52      -0.1239
     82  CA        -1.0800   33.9960    7.9350 C.3    52  ASP52       0.1674
     83  C         -0.8410   33.3820    6.5740 C.2    52  ASP52       0.2266
     84  O         -1.3280   32.2880    6.2960 O.2    52  ASP52      -0.2867
     85  CB        -0.1050   33.3580    8.9170 C.3    52  ASP52       0.1410
     86  CG        -0.1520   34.0000   10.2700 C.2    52  ASP52       0.3668
     87  OD1       -0.2910   35.2410   10.3310 O.co2  52  ASP52      -0.2456
     88  OD2       -0.0440   33.2730   11.2780 O.co2  52  ASP52      -0.2456
     89  N          6.1660   29.9100   11.4100 N.3    57  VAL57      -0.1245
     90  CA         5.9130   30.2000   12.8170 C.3    57  VAL57       0.1561
     91  C          6.6360   29.1560   13.6490 C.2    57  VAL57       0.2260
     92  O          6.5150   27.9530   13.3970 O.2    57  VAL57      -0.2867
     93  CB         4.4050   30.1770   13.1320 C.3    57  VAL57       0.0252
     94  CG1        4.1530   30.3380   14.6330 C.3    57  VAL57       0.0019
     95  CG2        3.6680   31.2590   12.3200 C.3    57  VAL57       0.0019
     96  N          7.6840   28.0040   17.8410 N.3    59  ASN59      -0.1240
     97  CA         7.4840   28.2420   19.2640 C.3    59  ASN59       0.1653
     98  C          8.0310   27.0700   20.0450 C.2    59  ASN59       0.2266
     99  O          8.5290   26.1000   19.4630 O.2    59  ASN59      -0.2867
    100  CB         5.9950   28.4450   19.5490 C.3    59  ASN59       0.1155
    101  CG         5.7350   29.2730   20.7850 C.2    59  ASN59       0.2627
    102  OD1        6.6260   29.5010   21.6070 O.2    59  ASN59      -0.2716
    103  ND2        4.5090   29.7350   20.9140 N.am   59  ASN59      -0.0877
    104  N          2.5440   26.9840   25.9320 N.3    66  TRP66      -0.1241
    105  CA         3.1940   27.5920   24.7800 C.3    66  TRP66       0.1605
    106  C          4.0810   28.7550   25.2270 C.2    66  TRP66       0.2264
    107  O          3.7050   29.5440   26.1060 O.2    66  TRP66      -0.2867
    108  CB         2.1670   28.1180   23.7860 C.3    66  TRP66       0.0550
    109  CG         1.4670   27.0740   23.0040 C.ar   66  TRP66       0.0003
    110  CD1        0.1470   26.7490   23.0750 C.ar   66  TRP66       0.0946
    111  CD2        2.0410   26.2140   22.0120 C.ar   66  TRP66       0.0152
    112  NE1       -0.1370   25.7400   22.1940 N.ar   66  TRP66      -0.2442
    113  CE2        1.0080   25.3920   21.5280 C.ar   66  TRP66       0.0810
    114  CE3        3.3300   26.0530   21.4980 C.ar   66  TRP66       0.0012
    115  CZ2        1.2180   24.4220   20.5450 C.ar   66  TRP66       0.0191
    116  CZ3        3.5390   25.0800   20.5200 C.ar   66  TRP66       0.0001
    117  CH2        2.4880   24.2850   20.0560 C.ar   66  TRP66       0.0015
    118  N          5.9170   33.0530   20.7060 N.3    69  GLU69      -0.1245
    119  CA         5.9900   32.7510   19.2860 C.3    69  GLU69       0.1567
    120  C          6.9770   33.6700   18.5890 C.2    69  GLU69       0.2260
    121  O          7.1080   34.8520   18.9560 O.2    69  GLU69      -0.2867
    122  CB         4.5950   32.9310   18.6890 C.3    69  GLU69       0.0388
    123  CG         4.4440   32.5390   17.2530 C.3    69  GLU69       0.1160
    124  CD         3.0070   32.6560   16.7930 C.2    69  GLU69       0.3649
    125  OE1        2.7700   33.3350   15.7680 O.co2  69  GLU69      -0.2457
    126  OE2        2.1170   32.0850   17.4630 O.co2  69  GLU69      -0.2457
    127  N          8.4690   34.5240   14.4030 N.3    71  ARG71      -0.1245
    128  CA         8.2780   34.3260   12.9770 C.3    71  ARG71       0.1563
    129  C          9.5430   34.6300   12.2050 C.2    71  ARG71       0.2260
    130  O         10.3240   35.5130   12.5630 O.2    71  ARG71      -0.2867
    131  CB         7.1220   35.1910   12.4850 C.3    71  ARG71       0.0307
    132  CG         5.8060   34.6650   13.0120 C.3    71  ARG71       0.0489
    133  CD         4.6600   35.6430   12.9280 C.3    71  ARG71       0.2205
    134  NE         3.4930   34.9560   13.4660 N.pl3  71  ARG71      -0.0865
    135  CZ         2.3130   34.8590   12.8700 C.cat  71  ARG71       0.5346
    136  NH1        2.0810   35.4690   11.7070 N.pl3  71  ARG71       0.1354
    137  NH2        1.3560   34.1610   13.4730 N.pl3  71  ARG71       0.1354
    138  N          2.6080   16.6580   11.6890 N.3   120  ASP120     -0.1225
    139  CA         1.1770   16.8370   11.5290 C.3   120  ASP120      0.1805
    140  C          0.9380   17.7510   10.3510 C.2   120  ASP120      0.2598
    141  O          1.8390   18.4780    9.9050 O.2   120  ASP120     -0.2718
    142  CB         0.5650   17.4200   12.8170 C.3   120  ASP120      0.1424
    143  CG        -0.9250   17.1540   12.9430 C.2   120  ASP120      0.3668
    144  OD1       -1.4630   16.3470   12.1580 O.co2 120  ASP120     -0.2456
    145  OD2       -1.5660   17.7390   13.8400 O.co2 120  ASP120     -0.2456
    146  N         -0.2730   17.6990    9.8270 N.am  121  GLY121     -0.1942
    147  CA        -0.6420   18.5910    8.7460 C.3   121  GLY121      0.2014
    148  C         -0.2810   18.0880    7.3630 C.2   121  GLY121      0.2638
    149  O         -0.1230   16.8870    7.1390 O.2   121  GLY121     -0.2714
    150  N         -0.1280   19.0310    6.4370 N.am  122  ASP122     -0.1971
    151  CA        -0.1220   18.7320    5.0120 C.3   122  ASP122      0.1709
    152  C          1.2720   18.4030    4.4640 C.2   122  ASP122      0.2293
    153  O          1.7330   18.9960    3.4930 O.2   122  ASP122     -0.2864
    154  CB        -0.7480   19.9110    4.2620 C.3   122  ASP122      0.1436
    155  CG        -2.1340   20.2580    4.7830 C.2   122  ASP122      0.3671
    156  OD1       -2.8880   19.3200    5.1200 O.co2 122  ASP122     -0.2456
    157  OD2       -2.4640   21.4590    4.8780 O.co2 122  ASP122     -0.2456
@<TRIPOS>BOND
     1     9     8    1
     2   153   152    2
     3     1     2    1
     4     8     7    1
     5     6     7    1
     6     6     5    1
     7     2     5    1
     8     2     3    1
     9   154   155    1
    10   154   151    1
    11   152   151    1
    12   155   157   ar
    13   155   156   ar
    14   151   150    1
    15     3     4    2
    16     3    10   am
    17    25    23   ar
    18    25    26   ar
    19    63    62    2
    20    23    21   ar
    21    62    61    1
    22    10    11    1
    23    26    24   ar
    24    84    83    2
    25   150   148   am
    26    83    82    1
    27    21    20    1
    28    21    22   ar
    29    13    12    2
    30    11    12    1
    31    11    14    1
    32   149   148    2
    33    61    60    1
    34    61    64    1
    35    12    16   am
    36    24    22   ar
    37   148   147    1
    38    20    17    1
    39    16    17    1
    40    82    81    1
    41    82    85    1
    42    64    65    1
    43    14    15    1
    44    17    18    1
    45   147   146    1
    46    85    86    1
    47    18    19    2
    48    18    27   am
    49    65    66    1
    50   146   140   am
    51   141   140    2
    52    71    72    1
    53    86    87   ar
    54    86    88   ar
    55   140   139    1
    56    27    28    1
    57    54    55    2
    58    54    53    1
    59    73    72    1
    60    73    74    2
    61    66    67    1
    62    72    75    1
    63    59    57   am
    64    89    90    1
    65   139   138    1
    66   139   142    1
    67    30    29    2
    68    28    29    1
    69    28    31    1
    70    53    52    1
    71    53    56    1
    72   136   135    1
    73    67    68    2
    74   144   143   ar
    75   129   130    2
    76   129   128    1
    77    75    76    1
    78    57    56    1
    79    57    58    2
    80    95    93    1
    81    77    76   ar
    82    77    79   ar
    83   131   128    1
    84   131   132    1
    85    76    78   ar
    86    90    93    1
    87    90    91    1
    88   142   143    1
    89    31    33    1
    90    31    32    1
    91   135   134    2
    92   135   137    1
    93   133   132    1
    94   133   134    1
    95   143   145   ar
    96   128   127    1
    97    79    80   ar
    98    93    94    1
    99    69    68    1
   100    68    70    1
   101    92    91    2
   102    78    80   ar
   103    34    35    1
   104   125   124   ar
   105    44    45    2
   106    44    43    1
   107    51    50   ar
   108    51    49   ar
   109    50    48   ar
   110    35    36    1
   111    35    38    1
   112    49    47   ar
   113   124   123    1
   114   124   126   ar
   115    48    47   ar
   116    37    36    2
   117    40    39    2
   118    47    46    1
   119    43    46    1
   120    43    42    1
   121   123   122    1
   122    39    38    1
   123    39    41   am
   124    96    97    1
   125   120   121    2
   126   120   119    1
   127   122   119    1
   128    97   100    1
   129    97    98    1
   130   119   118    1
   131    99    98    2
   132   100   101    1
   133   117   116   ar
   134   117   115   ar
   135   116   114   ar
   136   115   113   ar
   137   101   103   am
   138   101   102    2
   139   114   111   ar
   140   113   111   ar
   141   113   112   ar
   142   111   109   ar
   143   112   110   ar
   144   109   110   ar
   145   109   108    1
   146   108   105    1
   147   105   106    1
   148   105   104    1
   149   106   107    2
