@<TRIPOS>MOLECULE
tmp/4q1sH00.pdb
 72 67 0 0 0
SMALL
GASTEIGER

@<TRIPOS>ATOM
      1  N         65.2670 -146.1540   53.3890 N.3   133  ALA133     -0.1245
      2  CA        66.6810 -146.3630   53.6920 C.3   133  ALA133      0.1562
      3  C         67.1570 -145.3200   54.7180 C.2   133  ALA133      0.2260
      4  O         67.6440 -145.6850   55.8030 O.2   133  ALA133     -0.2867
      5  CB        67.5500 -146.3200   52.4400 C.3   133  ALA133      0.0290
      6  N         65.9540 -145.7070   58.2210 N.3   136  ALA136     -0.1231
      7  CA        66.5760 -146.7730   58.9810 C.3   136  ALA136      0.1694
      8  C         67.8280 -146.2280   59.6910 C.2   136  ALA136      0.2591
      9  O         68.2180 -146.7360   60.7450 O.2   136  ALA136     -0.2718
     10  CB        66.9270 -147.9460   58.1000 C.3   136  ALA136      0.0304
     11  N         68.4470 -145.1950   59.1320 N.am  137  VAL137     -0.1980
     12  CA        69.6310 -144.5980   59.7500 C.3   137  VAL137      0.1595
     13  C         69.2590 -143.6640   60.9190 C.2   137  VAL137      0.2287
     14  O         69.8080 -143.7670   62.0130 O.2   137  VAL137     -0.2864
     15  CB        70.4930 -143.8280   58.7280 C.3   137  VAL137      0.0276
     16  CG1       71.7760 -143.4120   59.3690 C.3   137  VAL137      0.0022
     17  CG2       70.7960 -144.6960   57.5280 C.3   137  VAL137      0.0022
     18  N         67.8620 -145.5440   63.8510 N.3   140  SER140     -0.1202
     19  CA        68.9320 -146.2380   64.6060 C.3   140  SER140      0.2020
     20  C         69.8310 -145.3230   65.4470 C.2   140  SER140      0.2618
     21  O         70.3110 -145.7290   66.4910 O.2   140  SER140     -0.2717
     22  CB        69.8790 -146.9990   63.6780 C.3   140  SER140      0.2103
     23  OG        69.2000 -147.9020   62.8540 O.3   140  SER140     -0.2182
     24  N         70.0860 -144.1130   64.9740 N.am  141  HIS141     -0.1975
     25  CA        71.1770 -143.3540   65.5040 C.3   141  HIS141      0.1656
     26  C         70.8300 -141.9370   65.8900 C.2   141  HIS141      0.2291
     27  O         71.7170 -141.1830   66.2800 O.2   141  HIS141     -0.2864
     28  CB        72.3090 -143.2960   64.4770 C.3   141  HIS141      0.0771
     29  CG        72.9170 -144.6190   64.1830 C.ar  141  HIS141      0.0820
     30  ND1       73.4100 -145.4450   65.1690 N.ar  141  HIS141     -0.2267
     31  CD2       73.1160 -145.2670   63.0110 C.ar  141  HIS141      0.1154
     32  CE1       73.8780 -146.5500   64.6170 C.ar  141  HIS141      0.1986
     33  NE2       73.7230 -146.4620   63.3080 N.ar  141  HIS141     -0.2212
     34  N         77.1780 -135.9970   60.1250 N.3   153  LYS153     -0.1231
     35  CA        77.5010 -137.4110   59.9000 C.3   153  LYS153      0.1693
     36  C         76.2280 -138.1590   59.6600 C.2   153  LYS153      0.2591
     37  O         76.0920 -138.8810   58.6790 O.2   153  LYS153     -0.2718
     38  CB        78.1780 -138.0220   61.1230 C.3   153  LYS153      0.0285
     39  CG        79.4510 -138.7710   60.7950 C.3   153  LYS153      0.0035
     40  CD        79.2450 -140.2010   60.3290 C.3   153  LYS153      0.0206
     41  CE        80.0820 -140.4130   59.0730 C.3   153  LYS153      0.1093
     42  NZ        80.2610 -141.8590   58.7780 N.3   153  LYS153     -0.1314
     43  N         75.2960 -137.9700   60.5820 N.am  154  LEU154     -0.1980
     44  CA        74.0100 -138.6380   60.5500 C.3   154  LEU154      0.1596
     45  C         73.2820 -138.3000   59.2400 C.2   154  LEU154      0.2287
     46  O         72.9600 -139.2090   58.4780 O.2   154  LEU154     -0.2864
     47  CB        73.1920 -138.2610   61.7800 C.3   154  LEU154      0.0297
     48  CG        71.8330 -138.9200   61.8660 C.3   154  LEU154      0.0022
     49  CD1       72.0620 -140.4000   61.7680 C.3   154  LEU154      0.0001
     50  CD2       71.1020 -138.5790   63.1640 C.3   154  LEU154      0.0001
     51  N         75.0800 -139.8200   56.3620 N.3   157  ASP157     -0.1239
     52  CA        74.9290 -141.2760   56.2870 C.3   157  ASP157      0.1674
     53  C         73.5280 -141.7140   55.8530 C.2   157  ASP157      0.2266
     54  O         73.3950 -142.7070   55.1220 O.2   157  ASP157     -0.2867
     55  CB        75.3120 -141.9570   57.6040 C.3   157  ASP157      0.1410
     56  CG        76.8290 -142.2860   57.7020 C.2   157  ASP157      0.3668
     57  OD1       77.6780 -141.6300   57.0500 O.co2 157  ASP157     -0.2456
     58  OD2       77.1750 -143.2210   58.4560 O.co2 157  ASP157     -0.2456
     59  N         73.4530 -141.4880   52.2360 N.3   160  GLN160     -0.1231
     60  CA        74.2090 -142.6040   51.6930 C.3   160  GLN160      0.1698
     61  C         73.3380 -143.8750   51.6810 C.2   160  GLN160      0.2592
     62  O         73.3180 -144.6050   50.6860 O.2   160  GLN160     -0.2718
     63  CB        75.5090 -142.7780   52.4380 C.3   160  GLN160      0.0381
     64  CG        76.5770 -141.8980   51.8670 C.3   160  GLN160      0.0905
     65  CD        77.9600 -142.3390   52.3290 C.2   160  GLN160      0.2608
     66  OE1       78.5650 -143.2620   51.7580 O.2   160  GLN160     -0.2717
     67  NE2       78.4560 -141.6980   53.3870 N.am  160  GLN160     -0.0878
     68  N         72.5890 -144.0940   52.7600 N.am  161  ALA161     -0.1980
     69  CA        71.6800 -145.2190   52.8370 C.3   161  ALA161      0.1597
     70  C         70.8450 -145.3040   51.5530 C.2   161  ALA161      0.2287
     71  O         70.7420 -146.3660   50.9290 O.2   161  ALA161     -0.2864
     72  CB        70.7790 -145.0840   54.0590 C.3   161  ALA161      0.0319
@<TRIPOS>BOND
     1    62    61    2
     2    71    70    2
     3    70    69    1
     4    61    60    1
     5    61    68   am
     6    60    59    1
     7    60    63    1
     8    66    65    2
     9    64    65    1
    10    64    63    1
    11    65    67   am
    12     5     2    1
    13    68    69    1
    14    69    72    1
    15     1     2    1
    16     2     3    1
    17     3     4    2
    18    54    53    2
    19    53    52    1
    20    52    51    1
    21    52    55    1
    22    57    56   ar
    23    17    15    1
    24    55    56    1
    25    56    58   ar
    26    10     7    1
    27     6     7    1
    28    46    45    2
    29    37    36    2
    30    15    16    1
    31    15    12    1
    32    42    41    1
    33     7     8    1
    34    41    40    1
    35    11     8   am
    36    11    12    1
    37    45    44    1
    38    36    35    1
    39    36    43   am
    40     8     9    2
    41    12    13    1
    42    35    34    1
    43    35    38    1
    44    40    39    1
    45    44    43    1
    46    44    47    1
    47    39    38    1
    48    13    14    2
    49    49    48    1
    50    47    48    1
    51    48    50    1
    52    23    22    1
    53    31    33   ar
    54    31    29   ar
    55    33    32   ar
    56    22    19    1
    57    18    19    1
    58    29    28    1
    59    29    30   ar
    60    28    25    1
    61    19    20    1
    62    32    30   ar
    63    24    20   am
    64    24    25    1
    65    20    21    2
    66    25    26    1
    67    26    27    2
