@<TRIPOS>MOLECULE
tmp/4q1vB00.pdb
 99 95 0 0 0
SMALL
GASTEIGER

@<TRIPOS>ATOM
      1  N        115.0250   63.7860   92.4110 N.3   370  SER370     -0.1202
      2  CA       114.6610   65.1190   92.8860 C.3   370  SER370      0.2020
      3  C        114.7190   65.1590   94.4090 C.2   370  SER370      0.2619
      4  O        114.6120   64.0970   95.0370 O.2   370  SER370     -0.2717
      5  CB       113.2570   65.4660   92.3920 C.3   370  SER370      0.2103
      6  OG       112.9660   66.8410   92.5490 O.3   370  SER370     -0.2182
      7  N        114.8380   66.3580   94.9920 N.am  371  GLY371     -0.1942
      8  CA       114.8390   66.5210   96.4460 C.3   371  GLY371      0.2014
      9  C        114.8950   67.9550   96.9160 C.2   371  GLY371      0.2639
     10  O        115.2300   68.8430   96.1400 O.2   371  GLY371     -0.2714
     11  N        114.5750   68.1980   98.1890 N.am  372  HIS372     -0.1959
     12  CA       114.6600   69.5520   98.7530 C.3   372  HIS372      0.1787
     13  C        115.9490   69.6610   99.5690 C.2   372  HIS372      0.2620
     14  O        116.4010   68.6680  100.1640 O.2   372  HIS372     -0.2715
     15  CB       113.4160   69.9070   99.5750 C.3   372  HIS372      0.0785
     16  CG       112.1370   69.8080   98.7880 C.ar  372  HIS372      0.0821
     17  ND1      111.8730   70.6520   97.7120 N.ar  372  HIS372     -0.2267
     18  CD2      111.0660   69.0020   98.9760 C.ar  372  HIS372      0.1154
     19  CE1      110.6650   70.3290   97.2880 C.ar  372  HIS372      0.1986
     20  NE2      110.1360   69.3470   98.0160 N.ar  372  HIS372     -0.2212
     21  N        116.5860   70.8410   99.5260 N.am  373  PHE373     -0.1974
     22  CA       117.8750   71.0800  100.1720 C.3   373  PHE373      0.1639
     23  C        117.9940   72.4940  100.7500 C.2   373  PHE373      0.2290
     24  O        117.2410   73.3740  100.4050 O.2   373  PHE373     -0.2864
     25  CB       119.0260   70.8390   99.1610 C.3   373  PHE373      0.0560
     26  CG       119.1370   69.4150   98.6490 C.ar  373  PHE373     -0.0200
     27  CD1      119.8830   68.4590   99.3470 C.ar  373  PHE373     -0.0042
     28  CD2      118.4850   69.0230   97.4840 C.ar  373  PHE373     -0.0042
     29  CE1      119.9460   67.1330   98.9080 C.ar  373  PHE373     -0.0003
     30  CE2      118.5540   67.6920   97.0420 C.ar  373  PHE373     -0.0003
     31  CZ       119.2890   66.7600   97.7560 C.ar  373  PHE373     -0.0000
     32  N        122.5590   67.9730  102.8870 N.3   384  GLN384     -0.1196
     33  CA       122.9510   66.5890  102.5920 C.3   384  GLN384      0.1782
     34  C        123.3660   66.4660  101.1270 C.2   384  GLN384      0.2306
     35  O        122.9710   67.3080  100.3210 O.2   384  GLN384     -0.2863
     36  CB       121.8470   65.5660  102.9590 C.2   384  GLN384      0.0051
     37  CG       120.6820   65.4590  101.9840 C.2   384  GLN384      0.0584
     38  CD       119.6010   64.4720  102.3750 C.2   384  GLN384      0.2840
     39  OE1      118.4450   64.6700  102.0160 O.2   384  GLN384     -0.2667
     40  NE2      119.9420   63.3660  103.0560 N.am  384  GLN384     -0.0837
     41  N        121.8510   61.3390   98.0920 N.3   388  ASN388     -0.1225
     42  CA       120.8520   60.7430   98.9850 C.3   388  ASN388      0.1785
     43  C        119.4100   60.7360   98.3750 C.2   388  ASN388      0.2597
     44  O        118.5040   60.1250   98.9420 O.2   388  ASN388     -0.2718
     45  CB       120.8710   61.4550  100.3300 C.3   388  ASN388      0.1169
     46  CG       122.1330   61.2160  101.1510 C.2   388  ASN388      0.2627
     47  OD1      122.3530   61.8560  102.1820 O.2   388  ASN388     -0.2716
     48  ND2      122.9970   60.3010  100.7250 N.am  388  ASN388     -0.0877
     49  N        119.2220   61.3910   97.2140 N.am  389  CYS389     -0.1970
     50  CA       117.9600   61.4780   96.4720 C.3   389  CYS389      0.1712
     51  C        117.5090   60.1560   95.9320 C.2   389  CYS389      0.2296
     52  O        118.3020   59.4480   95.3130 O.2   389  CYS389     -0.2864
     53  CB       118.1010   62.4640   95.3240 C.3   389  CYS389      0.0983
     54  SG       117.9080   64.1690   95.8240 S.3   389  CYS389     -0.0798
     55  N        109.5830   65.8930   93.2550 N.3   394  HIS394     -0.1241
     56  CA       109.2760   66.7530   94.4150 C.3   394  HIS394      0.1621
     57  C        108.9120   68.1440   94.0040 C.2   394  HIS394      0.2264
     58  O        109.5330   68.7090   93.1000 O.2   394  HIS394     -0.2867
     59  CB       110.4680   66.8440   95.3830 C.3   394  HIS394      0.0745
     60  CG       110.6600   65.6080   96.1800 C.ar  394  HIS394      0.0817
     61  ND1      110.0800   65.4550   97.4280 N.ar  394  HIS394     -0.2268
     62  CD2      111.3220   64.4770   95.8600 C.ar  394  HIS394      0.1154
     63  CE1      110.4120   64.2400   97.8310 C.ar  394  HIS394      0.1986
     64  NE2      111.1360   63.6030   96.9050 N.ar  394  HIS394     -0.2212
     65  N        105.7180   69.5330  101.3340 N.3   407  ASP407     -0.1239
     66  CA       106.3800   68.6970  100.3330 C.3   407  ASP407      0.1674
     67  C        105.3630   67.8460   99.5580 C.2   407  ASP407      0.2266
     68  O        104.8040   66.9100  100.1140 O.2   407  ASP407     -0.2867
     69  CB       107.4440   67.7940  100.9960 C.3   407  ASP407      0.1410
     70  CG       108.3180   66.9870  100.0390 C.2   407  ASP407      0.3668
     71  OD1      108.3490   67.3300   98.8060 O.co2 407  ASP407     -0.2456
     72  OD2      109.0400   66.0570  100.5260 O.co2 407  ASP407     -0.2456
     73  N        107.4440   69.2020  106.2970 N.3   421  VAL421     -0.1245
     74  CA       108.8410   68.8420  106.5110 C.3   421  VAL421      0.1561
     75  C        109.5730   69.9460  107.3050 C.2   421  VAL421      0.2260
     76  O        109.4320   71.1260  107.0040 O.2   421  VAL421     -0.2867
     77  CB       109.5180   68.5580  105.1260 C.3   421  VAL421      0.0252
     78  CG1      111.0370   68.4350  105.2380 C.3   421  VAL421      0.0019
     79  CG2      108.9400   67.3000  104.4770 C.3   421  VAL421      0.0019
     80  N        115.3120   68.1260  107.4810 N.3   426  PHE426     -0.1241
     81  CA       114.5140   67.6260  106.3580 C.3   426  PHE426      0.1605
     82  C        113.7870   66.3180  106.7150 C.2   426  PHE426      0.2264
     83  O        113.6600   65.4090  105.8940 O.2   426  PHE426     -0.2867
     84  CB       115.3280   67.5330  105.0600 C.3   426  PHE426      0.0534
     85  CG       115.4980   68.8980  104.4370 C.ar  426  PHE426     -0.0203
     86  CD1      114.5260   69.4210  103.5930 C.ar  426  PHE426     -0.0042
     87  CD2      116.6000   69.6890  104.7450 C.ar  426  PHE426     -0.0042
     88  CE1      114.6740   70.6880  103.0300 C.ar  426  PHE426     -0.0003
     89  CE2      116.7470   70.9580  104.1820 C.ar  426  PHE426     -0.0003
     90  CZ       115.7870   71.4460  103.3170 C.ar  426  PHE426     -0.0000
     91  N        110.1930   64.5020  107.8990 N.3   428  GLU428     -0.1245
     92  CA       108.7300   64.6110  107.8550 C.3   428  GLU428      0.1567
     93  C        108.2220   64.8120  109.2820 C.2   428  GLU428      0.2260
     94  O        108.6680   64.1610  110.2310 O.2   428  GLU428     -0.2867
     95  CB       108.0700   63.3800  107.2080 C.3   428  GLU428      0.0388
     96  CG       108.3250   63.2340  105.7110 C.3   428  GLU428      0.1160
     97  CD       109.7190   62.8540  105.2270 C.2   428  GLU428      0.3649
     98  OE1      110.5240   62.3300  106.0350 O.co2 428  GLU428     -0.2457
     99  OE2      110.0030   63.0820  104.0260 O.co2 428  GLU428     -0.2457
@<TRIPOS>BOND
     1     5     6    1
     2     5     2    1
     3     1     2    1
     4     2     3    1
     5    58    57    2
     6    55    56    1
     7    57    56    1
     8     3     7   am
     9     3     4    2
    10    56    59    1
    11     7     8    1
    12    52    51    2
    13    53    54    1
    14    53    50    1
    15    59    60    1
    16    62    60   ar
    17    62    64   ar
    18    51    50    1
    19    10     9    2
    20    60    61   ar
    21     8     9    1
    22    50    49    1
    23    64    63   ar
    24     9    11   am
    25    30    28   ar
    26    30    31   ar
    27    49    43   am
    28    19    17   ar
    29    19    20   ar
    30    61    63   ar
    31    28    26   ar
    32    17    16   ar
    33    31    29   ar
    34    20    18   ar
    35    41    42    1
    36    11    12    1
    37    43    44    2
    38    43    42    1
    39    26    25    1
    40    26    27   ar
    41    12    13    1
    42    12    15    1
    43    16    18   ar
    44    16    15    1
    45    71    70   ar
    46    29    27   ar
    47    42    45    1
    48    25    22    1
    49    21    13   am
    50    21    22    1
    51    67    68    2
    52    67    66    1
    53    13    14    2
    54    70    72   ar
    55    70    69    1
    56    22    23    1
    57    35    34    2
    58    45    46    1
    59    66    69    1
    60    66    65    1
    61    24    23    2
    62    48    46   am
    63    34    33    1
    64    46    47    2
    65    37    38    1
    66    37    36    2
    67    39    38    2
    68    38    40   am
    69    33    32    1
    70    33    36    1
    71    88    90   ar
    72    88    86   ar
    73    90    89   ar
    74    86    85   ar
    75    99    97   ar
    76    89    87   ar
    77    85    87   ar
    78    85    84    1
    79    79    77    1
    80    84    81    1
    81    77    78    1
    82    77    74    1
    83    97    96    1
    84    97    98   ar
    85    96    95    1
    86    83    82    2
    87    73    74    1
    88    81    82    1
    89    81    80    1
    90    74    75    1
    91    76    75    2
    92    95    92    1
    93    92    91    1
    94    92    93    1
    95    93    94    2
