@<TRIPOS>MOLECULE
tmp/4q1zA05.pdb
 94 91 0 0 0
SMALL
GASTEIGER

@<TRIPOS>ATOM
      1  N         67.5040   17.6980   10.5070 N.3    63  GLU63      -0.1231
      2  CA        66.2210   17.0910   10.8640 C.3    63  GLU63       0.1699
      3  C         65.9440   15.8280   10.0260 C.2    63  GLU63       0.2592
      4  O         64.7950   15.3500    9.9890 O.2    63  GLU63      -0.2718
      5  CB        65.0760   18.1130   10.6900 C.3    63  GLU63       0.0402
      6  CG        64.9930   19.1610   11.7890 C.3    63  GLU63       0.1161
      7  CD        64.5030   20.5070   11.2980 C.2    63  GLU63       0.3649
      8  OE1       65.2710   21.1900   10.5800 O.co2  63  GLU63      -0.2457
      9  OE2       63.3500   20.8750   11.6190 O.co2  63  GLU63      -0.2457
     10  N         67.0120   15.2830    9.3740 N.am   64  ASN64      -0.1960
     11  CA        66.9750   14.0770    8.5390 C.3    64  ASN64       0.1819
     12  C         66.0370   14.2700    7.3080 C.2    64  ASN64       0.2621
     13  O         65.4170   13.3090    6.8280 O.2    64  ASN64      -0.2715
     14  CB        66.5930   12.8150    9.3620 C.3    64  ASN64       0.1195
     15  CG        67.4800   12.5320   10.5620 C.2    64  ASN64       0.2630
     16  OD1       68.7050   12.3830   10.4530 O.2    64  ASN64      -0.2716
     17  ND2       66.8690   12.4030   11.7350 N.am   64  ASN64      -0.0877
     18  N         65.9550   15.5140    6.7710 N.am   65  ASN65      -0.1958
     19  CA        65.1660   15.7670    5.5640 C.3    65  ASN65       0.1819
     20  C         66.0810   15.5290    4.3830 C.2    65  ASN65       0.2621
     21  O         67.2330   15.9420    4.4170 O.2    65  ASN65      -0.2715
     22  CB        64.5630   17.1660    5.5130 C.3    65  ASN65       0.1195
     23  CG        63.5600   17.4350    6.5810 C.2    65  ASN65       0.2630
     24  OD1       62.6090   16.6700    6.7970 O.2    65  ASN65      -0.2716
     25  ND2       63.7680   18.5300    7.2810 N.am   65  ASN65      -0.0877
     26  N         65.6080   14.8280    3.3740 N.am   66  GLU66      -0.1977
     27  CA        66.4220   14.5190    2.2200 C.3    66  GLU66       0.1602
     28  C         66.1070   15.4750    1.1010 C.2    66  GLU66       0.2287
     29  O         64.9400   15.8220    0.8920 O.2    66  GLU66      -0.2864
     30  CB        66.2080   13.0800    1.7850 C.3    66  GLU66       0.0415
     31  CG        67.2810   12.5700    0.8430 C.3    66  GLU66       0.1163
     32  CD        66.9240   11.3240    0.0600 C.2    66  GLU66       0.3649
     33  OE1       66.2850   10.4200    0.6450 O.co2  66  GLU66      -0.2457
     34  OE2       67.2800   11.2570   -1.1400 O.co2  66  GLU66      -0.2457
     35  N         63.1260   19.1230   -1.7600 N.3    93  LYS93      -0.1231
     36  CA        62.8230   18.2110   -0.6360 C.3    93  LYS93       0.1693
     37  C         62.2130   16.9090   -1.1920 C.2    93  LYS93       0.2592
     38  O         61.2740   16.9550   -1.9860 O.2    93  LYS93      -0.2718
     39  CB        61.9100   18.8300    0.4600 C.3    93  LYS93       0.0285
     40  CG        61.8570   17.9640    1.7500 C.3    93  LYS93       0.0035
     41  CD        61.1460   18.6800    2.8780 C.3    93  LYS93       0.0206
     42  CE        60.9370   17.8240    4.1010 C.3    93  LYS93       0.1093
     43  NZ        60.2080   18.5690    5.1660 N.3    93  LYS93      -0.1314
     44  N         62.8090   15.7700   -0.8160 N.am   94  VAL94      -0.1966
     45  CA        62.4310   14.4420   -1.2950 C.3    94  VAL94       0.1727
     46  C         61.9810   13.5480   -0.1370 C.2    94  VAL94       0.2617
     47  O         62.7680   13.2840    0.7880 O.2    94  VAL94      -0.2715
     48  CB        63.6030   13.7790   -2.0710 C.3    94  VAL94       0.0290
     49  CG1       63.3400   12.3000   -2.3140 C.3    94  VAL94       0.0023
     50  CG2       63.8890   14.5020   -3.3850 C.3    94  VAL94       0.0023
     51  N         60.7180   13.0520   -0.2210 N.am   95  SER95      -0.1936
     52  CA        60.1730   12.0840    0.7410 C.3    95  SER95       0.2040
     53  C         60.6730   10.6840    0.3330 C.2    95  SER95       0.2485
     54  O         60.4300   10.2470   -0.7870 O.2    95  SER95      -0.2729
     55  CB        58.6590   12.1570    0.8160 C.3    95  SER95       0.2129
     56  OG        58.2430   11.4950    1.9950 O.3    95  SER95      -0.2179
     57  N         61.4910   10.0390    1.1850 N.am   96  PRO96      -0.2726
     58  CA        62.1390    8.7800    0.7930 C.3    96  PRO96       0.1402
     59  C         61.2500    7.5910    0.3190 C.2    96  PRO96       0.2269
     60  O         61.5920    6.9600   -0.6990 O.2    96  PRO96      -0.2865
     61  CB        62.8930    8.3910    2.0650 C.3    96  PRO96       0.0296
     62  CG        62.2760    9.2210    3.1740 C.3    96  PRO96       0.0237
     63  CD        61.9530   10.4820    2.5170 C.3    96  PRO96       0.0939
     64  N         56.0870    7.3370    7.5530 N.3   293  LEU293     -0.1245
     65  CA        56.8870    7.5480    6.3450 C.3   293  LEU293      0.1561
     66  C         56.0320    8.2320    5.2580 C.2   293  LEU293      0.2260
     67  O         56.5300    9.1440    4.5800 O.2   293  LEU293     -0.2867
     68  CB        57.4360    6.1950    5.8520 C.3   293  LEU293      0.0270
     69  CG        58.5480    5.5610    6.6820 C.3   293  LEU293      0.0019
     70  CD1       58.8720    4.1900    6.1890 C.3   293  LEU293      0.0001
     71  CD2       59.8030    6.3980    6.6490 C.3   293  LEU293      0.0001
     72  N         55.6810   15.2480   -3.1210 N.3   354  ASP354     -0.1225
     73  CA        55.0790   14.9730   -1.8090 C.3   354  ASP354      0.1805
     74  C         55.2140   16.1860   -0.9420 C.2   354  ASP354      0.2598
     75  O         56.3230   16.5000   -0.5100 O.2   354  ASP354     -0.2718
     76  CB        55.6660   13.7240   -1.1000 C.3   354  ASP354      0.1424
     77  CG        54.9880   13.4010    0.2320 C.2   354  ASP354      0.3668
     78  OD1       53.8200   13.7690    0.4020 O.co2 354  ASP354     -0.2456
     79  OD2       55.6370   12.7830    1.1000 O.co2 354  ASP354     -0.2456
     80  N         54.0890   16.8870   -0.7180 N.am  355  THR355     -0.1939
     81  CA        54.0230   18.1140    0.0940 C.3   355  THR355      0.2028
     82  C         53.1490   17.8900    1.3550 C.2   355  THR355      0.2642
     83  O         52.8170   18.8540    2.0480 O.2   355  THR355     -0.2714
     84  CB        53.4920   19.2990   -0.7530 C.3   355  THR355      0.1808
     85  OG1       52.1130   19.1120   -1.0640 O.3   355  THR355     -0.2208
     86  CG2       54.3000   19.5340   -2.0220 C.3   355  THR355      0.0379
     87  N         52.7720   16.6080    1.6260 N.am  356  ASN356     -0.1971
     88  CA        51.8980   16.1400    2.7110 C.3   356  ASN356      0.1688
     89  C         50.4950   16.7570    2.5700 C.2   356  ASN356      0.2292
     90  O         49.8800   17.2010    3.5470 O.2   356  ASN356     -0.2864
     91  CB        52.5220   16.3910    4.0910 C.3   356  ASN356      0.1181
     92  CG        53.6990   15.5040    4.3640 C.2   356  ASN356      0.2629
     93  OD1       54.0550   14.6430    3.5690 O.2   356  ASN356     -0.2716
     94  ND2       54.3060   15.6650    5.5150 N.am  356  ASN356     -0.0877
@<TRIPOS>BOND
     1    50    48    1
     2    72    73    1
     3    49    48    1
     4    48    45    1
     5    86    84    1
     6    38    37    2
     7    73    76    1
     8    73    74    1
     9    35    36    1
    10    45    44    1
    11    45    46    1
    12    37    44   am
    13    37    36    1
    14    34    32   ar
    15    76    77    1
    16    85    84    1
    17    74    80   am
    18    74    75    2
    19    54    53    2
    20    84    81    1
    21    80    81    1
    22    60    59    2
    23    36    39    1
    24    51    46   am
    25    51    52    1
    26    46    47    2
    27    32    33   ar
    28    32    31    1
    29    81    82    1
    30    77    78   ar
    31    77    79   ar
    32    59    58    1
    33    53    52    1
    34    53    57   am
    35    39    40    1
    36    52    55    1
    37    58    57    1
    38    58    61    1
    39    55    56    1
    40    31    30    1
    41    29    28    2
    42    28    27    1
    43    57    63    1
    44    82    87   am
    45    82    83    2
    46    87    88    1
    47    40    41    1
    48    30    27    1
    49    61    62    1
    50    27    26    1
    51    63    62    1
    52    89    88    1
    53    89    90    2
    54    88    91    1
    55    41    42    1
    56    26    20   am
    57    93    92    2
    58    91    92    1
    59    42    43    1
    60    92    94   am
    61    20    21    2
    62    20    19    1
    63    67    66    2
    64    66    65    1
    65    22    19    1
    66    22    23    1
    67    19    18    1
    68    68    65    1
    69    68    69    1
    70    70    69    1
    71    65    64    1
    72    23    24    2
    73    23    25   am
    74    71    69    1
    75    18    12   am
    76    13    12    2
    77    12    11    1
    78    11    14    1
    79    11    10    1
    80    14    15    1
    81    10     3   am
    82     4     3    2
    83     3     2    1
    84    16    15    2
    85     1     2    1
    86    15    17   am
    87     8     7   ar
    88     5     2    1
    89     5     6    1
    90     7     9   ar
    91     7     6    1
