@<TRIPOS>MOLECULE
tmp/4q1zA02.pdb
 97 97 0 0 0
SMALL
GASTEIGER

@<TRIPOS>ATOM
      1  N         39.3750   10.5640   21.5600 N.3   153  TRP153     -0.1241
      2  CA        40.5410    9.7760   21.9090 C.3   153  TRP153      0.1605
      3  C         41.0410   10.1600   23.3110 C.2   153  TRP153      0.2264
      4  O         40.6650   11.2360   23.8070 O.2   153  TRP153     -0.2867
      5  CB        41.6200    9.9530   20.8310 C.3   153  TRP153      0.0550
      6  CG        41.1830    9.5270   19.4530 C.ar  153  TRP153      0.0003
      7  CD1       41.1270   10.3070   18.3370 C.ar  153  TRP153      0.0946
      8  CD2       40.6990    8.2290   19.0590 C.ar  153  TRP153      0.0152
      9  NE1       40.6860    9.5670   17.2610 N.ar  153  TRP153     -0.2442
     10  CE2       40.4120    8.2920   17.6760 C.ar  153  TRP153      0.0810
     11  CE3       40.4690    7.0230   19.7430 C.ar  153  TRP153      0.0012
     12  CZ2       39.9570    7.1830   16.9540 C.ar  153  TRP153      0.0191
     13  CZ3       39.9870    5.9320   19.0310 C.ar  153  TRP153      0.0001
     14  CH2       39.7400    6.0160   17.6550 C.ar  153  TRP153      0.0015
     15  N         47.2670   13.2370   23.5790 N.3   158  GLY158     -0.1210
     16  CA        47.4980   14.5460   22.9920 C.3   158  GLY158      0.1956
     17  C         47.2270   14.4820   21.5070 C.2   158  GLY158      0.2611
     18  O         46.1840   13.9750   21.0750 O.2   158  GLY158     -0.2717
     19  N         48.1710   14.9450   20.7150 N.am  159  ASN159     -0.1974
     20  CA        47.9860   14.8690   19.2770 C.3   159  ASN159      0.1688
     21  C         49.2010   14.1540   18.6800 C.2   159  ASN159      0.2292
     22  O         49.7260   14.5480   17.6420 O.2   159  ASN159     -0.2864
     23  CB        47.7390   16.2750   18.7020 C.3   159  ASN159      0.1181
     24  CG        46.2620   16.6180   18.6330 C.2   159  ASN159      0.2629
     25  OD1       45.6320   16.9830   19.6350 O.2   159  ASN159     -0.2716
     26  ND2       45.6600   16.4520   17.4530 N.am  159  ASN159     -0.0877
     27  N         49.2640   10.7760   17.8880 N.3   161  TYR161     -0.1227
     28  CA        48.9130    9.5530   17.1670 C.3   161  TYR161      0.1736
     29  C         47.7910    9.6720   16.1420 C.2   161  TYR161      0.2595
     30  O         46.9000   10.5280   16.2410 O.2   161  TYR161     -0.2718
     31  CB        48.4520    8.4600   18.1660 C.3   161  TYR161      0.0548
     32  CG        49.3460    8.2200   19.3590 C.ar  161  TYR161     -0.0200
     33  CD1       50.4050    7.3230   19.2920 C.ar  161  TYR161     -0.0009
     34  CD2       49.0810    8.8240   20.5850 C.ar  161  TYR161     -0.0009
     35  CE1       51.2200    7.0790   20.3990 C.ar  161  TYR161      0.0417
     36  CE2       49.9020    8.6080   21.6930 C.ar  161  TYR161      0.0417
     37  CZ        50.9600    7.7180   21.6010 C.ar  161  TYR161      0.1957
     38  OH        51.7370    7.4550   22.7030 O.3   161  TYR161     -0.2866
     39  N         47.8470    8.7320   15.1810 N.am  162  ALA162     -0.1966
     40  CA        46.8600    8.3320   14.2000 C.3   162  ALA162      0.1728
     41  C         46.2780    7.0130   14.7720 C.2   162  ALA162      0.2616
     42  O         46.9470    6.3490   15.5720 O.2   162  ALA162     -0.2715
     43  CB        47.5100    8.1420   12.8350 C.3   162  ALA162      0.0334
     44  N         45.0330    6.6760   14.4650 N.am  163  TYR163     -0.1974
     45  CA        44.4080    5.5030   15.0780 C.3   163  TYR163      0.1639
     46  C         44.0380    4.4650   14.0250 C.2   163  TYR163      0.2290
     47  O         43.1830    4.7130   13.1830 O.2   163  TYR163     -0.2864
     48  CB        43.2040    5.9600   15.9150 C.3   163  TYR163      0.0560
     49  CG        43.6440    6.8470   17.0650 C.ar  163  TYR163     -0.0198
     50  CD1       43.8250    8.2190   16.8870 C.ar  163  TYR163     -0.0009
     51  CD2       43.9190    6.3100   18.3200 C.ar  163  TYR163     -0.0009
     52  CE1       44.3010    9.0250   17.9180 C.ar  163  TYR163      0.0417
     53  CE2       44.3950    7.1080   19.3580 C.ar  163  TYR163      0.0417
     54  CZ        44.5600    8.4680   19.1610 C.ar  163  TYR163      0.1957
     55  OH        44.9790    9.2610   20.2000 O.3   163  TYR163     -0.2866
     56  N         52.6720    9.3110   15.1890 N.3   289  ILE289     -0.1245
     57  CA        52.7930   10.2220   14.0430 C.3   289  ILE289      0.1561
     58  C         54.2920   10.3780   13.6220 C.2   289  ILE289      0.2260
     59  O         54.5950   10.4690   12.4320 O.2   289  ILE289     -0.2867
     60  CB        52.1250   11.5810   14.4280 C.3   289  ILE289      0.0252
     61  CG1       50.6000   11.5190   14.1940 C.3   289  ILE289      0.0019
     62  CG2       52.7550   12.7860   13.7380 C.3   289  ILE289      0.0019
     63  CD1       49.7870   12.6000   14.9820 C.3   289  ILE289      0.0001
     64  N         38.0750   14.3060    7.8480 N.3   307  LYS307     -0.1231
     65  CA        39.4390   13.7510    7.8410 C.3   307  LYS307      0.1693
     66  C         39.7650   12.9100    9.0920 C.2   307  LYS307      0.2592
     67  O         39.3210   13.2450   10.1910 O.2   307  LYS307     -0.2718
     68  CB        40.4660   14.8920    7.7210 C.3   307  LYS307      0.0285
     69  CG        40.6120   15.4020    6.3000 C.3   307  LYS307      0.0035
     70  CD        41.6100   16.5530    6.1110 C.3   307  LYS307      0.0206
     71  CE        43.0450   16.3710    6.6280 C.3   307  LYS307      0.1093
     72  NZ        43.7420   15.1470    6.1300 N.3   307  LYS307     -0.1314
     73  N         40.5660   11.8330    8.9220 N.am  308  ARG308     -0.1966
     74  CA        41.0410   10.9870   10.0250 C.3   308  ARG308      0.1729
     75  C         42.5850   10.8630    9.9920 C.2   308  ARG308      0.2616
     76  O         43.1750   10.2950   10.9120 O.2   308  ARG308     -0.2715
     77  CB        40.3540    9.5990   10.0890 C.3   308  ARG308      0.0348
     78  CG        40.3680    8.7210    8.8270 C.3   308  ARG308      0.0492
     79  CD        39.1090    8.9660    8.0420 C.3   308  ARG308      0.2205
     80  NE        38.8260    7.9130    7.0810 N.pl3 308  ARG308     -0.0865
     81  CZ        38.9780    8.0070    5.7650 C.cat 308  ARG308      0.5346
     82  NH1       39.4840    9.1080    5.2220 N.pl3 308  ARG308      0.1354
     83  NH2       38.6340    6.9970    4.9810 N.pl3 308  ARG308      0.1354
     84  N         43.2440   11.4240    8.9660 N.am  309  VAL309     -0.1964
     85  CA        44.7010   11.4530    8.9230 C.3   309  VAL309      0.1712
     86  C         45.1090   12.7610    9.6430 C.2   309  VAL309      0.2458
     87  O         44.6060   13.8490    9.2890 O.2   309  VAL309     -0.2730
     88  CB        45.3350   11.3480    7.4870 C.3   309  VAL309      0.0289
     89  CG1       46.8580   11.4390    7.5400 C.3   309  VAL309      0.0023
     90  CG2       44.9230   10.0690    6.7690 C.3   309  VAL309      0.0023
     91  N         46.0190   12.6900   10.6400 N.am  310  PRO310     -0.2727
     92  CA        46.5010   13.9320   11.2570 C.3   310  PRO310      0.1402
     93  C         47.1070   14.8790   10.1940 C.2   310  PRO310      0.2269
     94  O         47.8540   14.4400    9.3070 O.2   310  PRO310     -0.2865
     95  CB        47.5390   13.4320   12.2630 C.3   310  PRO310      0.0296
     96  CG        47.1670   11.9780   12.5150 C.3   310  PRO310      0.0237
     97  CD        46.7190   11.5080   11.1880 C.3   310  PRO310      0.0939
@<TRIPOS>BOND
     1    83    81    1
     2    82    81    1
     3    81    80    2
     4    70    69    1
     5    70    71    1
     6    72    71    1
     7    69    68    1
     8    90    88    1
     9    80    79    1
    10    88    89    1
    11    88    85    1
    12    68    65    1
    13    65    64    1
    14    65    66    1
    15    79    78    1
    16    78    77    1
    17    73    66   am
    18    73    74    1
    19    85    84    1
    20    85    86    1
    21    84    75   am
    22    66    67    2
    23    87    86    2
    24    94    93    2
    25    86    91   am
    26    75    74    1
    27    75    76    2
    28    74    77    1
    29    93    92    1
    30    91    97    1
    31    91    92    1
    32    97    96    1
    33    92    95    1
    34    95    96    1
    35    59    58    2
    36    43    40    1
    37    47    46    2
    38    58    57    1
    39    62    60    1
    40    46    45    1
    41    57    60    1
    42    57    56    1
    43    61    60    1
    44    61    63    1
    45    40    41    1
    46    40    39    1
    47    44    41   am
    48    44    45    1
    49    41    42    2
    50    45    48    1
    51    39    29   am
    52    48    49    1
    53    29    30    2
    54    29    28    1
    55    50    49   ar
    56    50    52   ar
    57    12    14   ar
    58    12    10   ar
    59    49    51   ar
    60    28    27    1
    61    28    31    1
    62     9    10   ar
    63     9     7   ar
    64    26    24   am
    65    22    21    2
    66    14    13   ar
    67    10     8   ar
    68    52    54   ar
    69    31    32    1
    70    51    53   ar
    71     7     6   ar
    72    24    23    1
    73    24    25    2
    74    21    20    1
    75    23    20    1
    76    13    11   ar
    77     8     6   ar
    78     8    11   ar
    79    54    53   ar
    80    54    55    1
    81    20    19    1
    82    33    32   ar
    83    33    35   ar
    84    32    34   ar
    85     6     5    1
    86    35    37   ar
    87    34    36   ar
    88    19    17   am
    89     5     2    1
    90    18    17    2
    91    17    16    1
    92     1     2    1
    93    37    36   ar
    94    37    38    1
    95     2     3    1
    96    16    15    1
    97     3     4    2
