@<TRIPOS>MOLECULE
tmp/4q24A00.pdb
 172 163 0 0 0
SMALL
GASTEIGER

@<TRIPOS>ATOM
      1  N         25.1660   -7.3250   -5.2040 N.3    24  LEU24      -0.1245
      2  CA        26.5270   -7.6940   -5.5820 C.3    24  LEU24       0.1561
      3  C         27.0120   -8.7420   -4.6040 C.2    24  LEU24       0.2260
      4  O         27.0450   -8.5020   -3.3870 O.2    24  LEU24      -0.2867
      5  CB        27.5210   -6.5070   -5.6390 C.3    24  LEU24       0.0270
      6  CG        29.0280   -6.8910   -5.6290 C.3    24  LEU24       0.0019
      7  CD1       29.4820   -7.5190   -6.9580 C.3    24  LEU24       0.0001
      8  CD2       29.9120   -5.7290   -5.2030 C.3    24  LEU24       0.0001
      9  N         30.2690  -10.9070   -3.7090 N.3    26  GLY26      -0.1210
     10  CA        31.7150  -11.0110   -3.8330 C.3    26  GLY26       0.1956
     11  C         32.2420  -12.2870   -3.2140 C.2    26  GLY26       0.2612
     12  O         32.0790  -12.5010   -2.0090 O.2    26  GLY26      -0.2717
     13  N         32.8360  -13.1630   -4.0410 N.am   27  ILE27      -0.1965
     14  CA        33.3760  -14.4360   -3.5700 C.3    27  ILE27       0.1727
     15  C         34.9170  -14.4520   -3.5060 C.2    27  ILE27       0.2616
     16  O         35.6110  -13.7960   -4.2770 O.2    27  ILE27      -0.2715
     17  CB        32.6820  -15.6840   -4.2060 C.3    27  ILE27       0.0290
     18  CG1       31.1610  -15.5930   -4.0160 C.3    27  ILE27       0.0022
     19  CG2       33.2070  -17.0060   -3.6080 C.3    27  ILE27       0.0023
     20  CD1       30.3700  -16.3010   -4.9940 C.3    27  ILE27       0.0001
     21  N         35.4270  -15.1800   -2.5380 N.am   28  CYS28      -0.1968
     22  CA        36.8310  -15.2320   -2.2270 C.3    28  CYS28       0.1712
     23  C         37.3940  -16.6370   -2.1600 C.2    28  CYS28       0.2296
     24  O         36.8100  -17.5380   -1.5280 O.2    28  CYS28      -0.2864
     25  CB        36.8410  -14.7380   -0.8060 C.3    28  CYS28       0.0983
     26  SG        38.1140  -13.5370   -0.5940 S.3    28  CYS28      -0.0798
     27  N         38.5620  -18.7370    1.5770 N.3    31  ASN31      -0.1240
     28  CA        37.6930  -18.3570    2.6910 C.3    31  ASN31       0.1653
     29  C         36.7690  -19.5480    2.9910 C.2    31  ASN31       0.2266
     30  O         36.0690  -20.0310    2.0800 O.2    31  ASN31      -0.2867
     31  CB        36.8810  -17.0990    2.3410 C.3    31  ASN31       0.1155
     32  CG        36.2480  -16.3720    3.5090 C.2    31  ASN31       0.2627
     33  OD1       35.5660  -16.9500    4.3780 O.2    31  ASN31      -0.2716
     34  ND2       36.3930  -15.0560    3.5010 N.am   31  ASN31      -0.0877
     35  N         30.7110  -11.7900   -8.5080 N.3    56  VAL56      -0.1245
     36  CA        32.1060  -11.5430   -8.8550 C.3    56  VAL56       0.1561
     37  C         33.0500  -12.4080   -8.0030 C.2    56  VAL56       0.2260
     38  O         33.0360  -12.2950   -6.7650 O.2    56  VAL56      -0.2867
     39  CB        32.4680  -10.0370   -8.7970 C.3    56  VAL56       0.0252
     40  CG1       33.9570   -9.8040   -9.0920 C.3    56  VAL56       0.0019
     41  CG2       31.5930   -9.2210   -9.7430 C.3    56  VAL56       0.0019
     42  N         36.8620  -13.2040   -7.0160 N.3    58  VAL58      -0.1245
     43  CA        38.2050  -12.6150   -6.9950 C.3    58  VAL58       0.1561
     44  C         39.2670  -13.6250   -7.4350 C.2    58  VAL58       0.2260
     45  O         39.4640  -14.6480   -6.7640 O.2    58  VAL58      -0.2867
     46  CB        38.5510  -11.8880   -5.6630 C.3    58  VAL58       0.0252
     47  CG1       39.8360  -11.0760   -5.8030 C.3    58  VAL58       0.0019
     48  CG2       37.4030  -10.9880   -5.2020 C.3    58  VAL58       0.0019
     49  N         41.8080   -2.0460    5.6230 N.3   143  MET143     -0.1245
     50  CA        41.3750   -3.1470    4.7530 C.3   143  MET143      0.1570
     51  C         42.5900   -3.9400    4.2240 C.2   143  MET143      0.2261
     52  O         42.5120   -5.1620    4.1140 O.2   143  MET143     -0.2867
     53  CB        40.5070   -2.6020    3.6060 C.3   143  MET143      0.0387
     54  CG        39.7860   -3.6640    2.8160 C.3   143  MET143      0.0595
     55  SD        38.3760   -4.3380    3.6890 S.3   143  MET143     -0.1393
     56  CE        37.3070   -4.6960    2.2990 C.3   143  MET143      0.0692
     57  N         43.8790   -6.0320    7.2310 N.3   146  ALA146     -0.1231
     58  CA        42.8690   -7.0720    7.3970 C.3   146  ALA146      0.1694
     59  C         43.0450   -8.1590    6.3470 C.2   146  ALA146      0.2591
     60  O         42.8590   -9.3410    6.6490 O.2   146  ALA146     -0.2718
     61  CB        41.4870   -6.4560    7.2890 C.3   146  ALA146      0.0304
     62  N         43.4250   -7.7650    5.1130 N.am  147  VAL147     -0.1980
     63  CA        43.6630   -8.7140    4.0270 C.3   147  VAL147      0.1595
     64  C         44.9080   -9.5400    4.3370 C.2   147  VAL147      0.2287
     65  O         44.8270  -10.7670    4.3480 O.2   147  VAL147     -0.2864
     66  CB        43.6790   -8.0220    2.6450 C.3   147  VAL147      0.0276
     67  CG1       44.3950   -8.8630    1.5920 C.3   147  VAL147      0.0022
     68  CG2       42.2570   -7.6920    2.2040 C.3   147  VAL147      0.0022
     69  N         44.6430  -11.9760    7.4730 N.3   150  ASN150     -0.1240
     70  CA        43.7080  -13.0740    7.2580 C.3   150  ASN150      0.1653
     71  C         43.9700  -13.8330    5.9620 C.2   150  ASN150      0.2266
     72  O         43.1850  -14.7150    5.6290 O.2   150  ASN150     -0.2867
     73  CB        42.2650  -12.5580    7.3590 C.3   150  ASN150      0.1155
     74  CG        41.9470  -12.0370    8.7550 C.2   150  ASN150      0.2627
     75  OD1       41.9520  -12.7810    9.7460 O.2   150  ASN150     -0.2716
     76  ND2       41.7240  -10.7390    8.8820 N.am  150  ASN150     -0.0877
     77  N         45.3830   -5.7290   -4.2680 N.3   169  TYR169     -0.1241
     78  CA        44.1420   -6.4980   -4.1020 C.3   169  TYR169      0.1605
     79  C         42.9600   -5.5770   -3.7100 C.2   169  TYR169      0.2264
     80  O         41.9130   -5.5950   -4.3530 O.2   169  TYR169     -0.2867
     81  CB        44.3850   -7.5570   -3.0110 C.3   169  TYR169      0.0534
     82  CG        43.3210   -8.6150   -2.8280 C.ar  169  TYR169     -0.0201
     83  CD1       42.2600   -8.4200   -1.9460 C.ar  169  TYR169     -0.0009
     84  CD2       43.4620   -9.8760   -3.4070 C.ar  169  TYR169     -0.0009
     85  CE1       41.3040   -9.4130   -1.7330 C.ar  169  TYR169      0.0417
     86  CE2       42.5220  -10.8870   -3.1880 C.ar  169  TYR169      0.0417
     87  CZ        41.4400  -10.6530   -2.3520 C.ar  169  TYR169      0.1957
     88  OH        40.5210  -11.6640   -2.1480 O.3   169  TYR169     -0.2866
     89  N         39.3790   -4.0860   -5.8940 N.3   173  GLU173     -0.1245
     90  CA        38.0260   -4.2160   -5.3130 C.3   173  GLU173      0.1567
     91  C         37.2770   -2.9000   -5.0660 C.2   173  GLU173      0.2260
     92  O         36.0540   -2.8820   -5.2070 O.2   173  GLU173     -0.2867
     93  CB        38.0810   -4.9470   -3.9740 C.3   173  GLU173      0.0388
     94  CG        38.4120   -6.4140   -4.0640 C.3   173  GLU173      0.1160
     95  CD        38.5890   -7.0190   -2.6890 C.2   173  GLU173      0.3649
     96  OE1       39.1660   -6.3500   -1.7980 O.co2 173  GLU173     -0.2457
     97  OE2       38.1340   -8.1690   -2.5010 O.co2 173  GLU173     -0.2457
     98  N         33.9320   -1.6300   -6.7980 N.3   176  LEU176     -0.1231
     99  CA        32.7810   -2.4320   -6.3980 C.3   176  LEU176      0.1693
    100  C         32.2520   -1.9860   -5.0450 C.2   176  LEU176      0.2592
    101  O         31.0490   -2.0360   -4.8360 O.2   176  LEU176     -0.2718
    102  CB        33.1470   -3.9370   -6.3710 C.3   176  LEU176      0.0284
    103  CG        33.3630   -4.6040   -7.7410 C.3   176  LEU176      0.0019
    104  CD1       34.8170   -4.5900   -8.1390 C.3   176  LEU176      0.0001
    105  CD2       32.8710   -6.0270   -7.7230 C.3   176  LEU176      0.0001
    106  N         33.1440   -1.5560   -4.1280 N.am  177  PHE177     -0.1976
    107  CA        32.7880   -1.0710   -2.7940 C.3   177  PHE177      0.1639
    108  C         32.2040    0.3190   -2.8390 C.2   177  PHE177      0.2290
    109  O         31.2230    0.5720   -2.1570 O.2   177  PHE177     -0.2864
    110  CB        34.0080   -1.0850   -1.8600 C.3   177  PHE177      0.0560
    111  CG        34.3070   -2.4560   -1.3210 C.ar  177  PHE177     -0.0200
    112  CD1       35.1050   -3.3430   -2.0360 C.ar  177  PHE177     -0.0042
    113  CD2       33.7380   -2.8910   -0.1290 C.ar  177  PHE177     -0.0042
    114  CE1       35.3320   -4.6430   -1.5630 C.ar  177  PHE177     -0.0003
    115  CE2       33.9640   -4.1910    0.3430 C.ar  177  PHE177     -0.0003
    116  CZ        34.7600   -5.0580   -0.3750 C.ar  177  PHE177     -0.0000
    117  N         25.7900   -4.1530   -1.7400 N.3   191  LEU191     -0.1231
    118  CA        26.9650   -4.9880   -1.4920 C.3   191  LEU191      0.1693
    119  C         26.6260   -5.9150   -0.3260 C.2   191  LEU191      0.2592
    120  O         26.3780   -5.4650    0.8060 O.2   191  LEU191     -0.2718
    121  CB        28.1900   -4.1310   -1.1570 C.3   191  LEU191      0.0284
    122  CG        29.5410   -4.8070   -1.3470 C.3   191  LEU191      0.0019
    123  CD1       30.5070   -3.8770   -2.0390 C.3   191  LEU191      0.0001
    124  CD2       30.0990   -5.3440   -0.0120 C.3   191  LEU191      0.0001
    125  N         26.5710   -7.2100   -0.6320 N.am  192  CYS192     -0.1956
    126  CA        26.2140   -8.2450    0.3160 C.3   192  CYS192      0.1843
    127  C         27.4530   -9.0430    0.6750 C.2   192  CYS192      0.2625
    128  O         28.1970   -9.4640   -0.2210 O.2   192  CYS192     -0.2714
    129  CB        25.1180   -9.1280   -0.2700 C.3   192  CYS192      0.0997
    130  SG        23.7470   -8.2050   -1.0290 S.3   192  CYS192     -0.0797
    131  N         27.7110   -9.1900    1.9970 N.am  193  TYR193     -0.1974
    132  CA        28.8410   -9.9260    2.5780 C.3   193  TYR193      0.1639
    133  C         28.4750  -10.3640    3.9870 C.2   193  TYR193      0.2290
    134  O         27.6180   -9.7430    4.5860 O.2   193  TYR193     -0.2864
    135  CB        30.1190   -9.0770    2.5600 C.3   193  TYR193      0.0560
    136  CG        31.4060   -9.8610    2.6880 C.ar  193  TYR193     -0.0198
    137  CD1       31.8150  -10.7420    1.6840 C.ar  193  TYR193     -0.0009
    138  CD2       32.2540   -9.6710    3.7770 C.ar  193  TYR193     -0.0009
    139  CE1       33.0010  -11.4680    1.7950 C.ar  193  TYR193      0.0417
    140  CE2       33.4480  -10.3800    3.8950 C.ar  193  TYR193      0.0417
    141  CZ        33.8160  -11.2830    2.9040 C.ar  193  TYR193      0.1957
    142  OH        34.9830  -12.0040    3.0430 O.3   193  TYR193     -0.2866
    143  N         30.2340  -10.3070    6.7820 N.3   195  ILE195     -0.1231
    144  CA        30.8070   -9.5010    7.8660 C.3   195  ILE195      0.1692
    145  C         30.9990   -8.0570    7.4760 C.2   195  ILE195      0.2592
    146  O         31.1650   -7.7210    6.2990 O.2   195  ILE195     -0.2718
    147  CB        32.1380  -10.0670    8.4730 C.3   195  ILE195      0.0266
    148  CG1       33.1360  -10.5790    7.4040 C.3   195  ILE195      0.0019
    149  CG2       31.8890  -11.0620    9.5880 C.3   195  ILE195      0.0020
    150  CD1       34.4840   -9.9230    7.4450 C.3   195  ILE195      0.0001
    151  N         31.0830   -7.2240    8.4920 N.am  196  ASP196     -0.1960
    152  CA        31.4480   -5.8420    8.3670 C.3   196  ASP196      0.1840
    153  C         32.9470   -5.8700    7.9540 C.2   196  ASP196      0.2623
    154  O         33.6590   -6.8150    8.3090 O.2   196  ASP196     -0.2715
    155  CB        31.2940   -5.2080    9.7590 C.3   196  ASP196      0.1450
    156  CG        31.4250   -3.7040    9.8220 C.2   196  ASP196      0.3671
    157  OD1       30.7370   -3.0170    9.0390 O.co2 196  ASP196     -0.2456
    158  OD2       32.1570   -3.2070   10.7190 O.co2 196  ASP196     -0.2456
    159  N         33.4120   -4.8900    7.1720 N.am  197  THR197     -0.1937
    160  CA        34.8320   -4.7890    6.7860 C.3   197  THR197      0.2013
    161  C         35.2820   -3.3210    6.9620 C.2   197  THR197      0.2484
    162  O         34.4040   -2.4570    6.9160 O.2   197  THR197     -0.2729
    163  CB        35.1100   -5.3320    5.3540 C.3   197  THR197      0.1807
    164  OG1       34.4990   -4.5180    4.3470 O.3   197  THR197     -0.2208
    165  CG2       34.7590   -6.8090    5.1790 C.3   197  THR197      0.0379
    166  N         36.5950   -2.9880    7.1620 N.am  198  PRO198     -0.2726
    167  CA        36.9850   -1.5690    7.2860 C.3   198  PRO198      0.1402
    168  C         36.3990   -0.6620    6.2000 C.2   198  PRO198      0.2269
    169  O         35.8030    0.3650    6.5480 O.2   198  PRO198     -0.2865
    170  CB        38.5100   -1.6180    7.2200 C.3   198  PRO198      0.0296
    171  CG        38.8360   -2.9180    7.8200 C.3   198  PRO198      0.0237
    172  CD        37.7790   -3.8600    7.3050 C.3   198  PRO198      0.0939
@<TRIPOS>BOND
     1    41    39    1
     2    40    39    1
     3    36    39    1
     4    36    35    1
     5    36    37    1
     6   104   103    1
     7    37    38    2
     8   103   105    1
     9   103   102    1
    10    44    43    1
    11    44    45    2
    12    42    43    1
    13    43    46    1
    14     7     6    1
    15    98    99    1
    16    99   102    1
    17    99   100    1
    18    89    90    1
    19    47    46    1
    20    46    48    1
    21     5     6    1
    22     5     2    1
    23     6     8    1
    24     2     1    1
    25     2     3    1
    26    90    91    1
    27    90    93    1
    28    92    91    2
    29   100   101    2
    30   100   106   am
    31    20    18    1
    32     3     4    2
    33    80    79    2
    34    16    15    2
    35    77    78    1
    36    17    18    1
    37    17    19    1
    38    17    14    1
    39   106   107    1
    40    78    79    1
    41    78    81    1
    42    94    93    1
    43    94    95    1
    44    13    14    1
    45    13    11   am
    46    10     9    1
    47    10    11    1
    48    14    15    1
    49    15    21   am
    50    84    86   ar
    51    84    82   ar
    52    11    12    2
    53    86    87   ar
    54    81    82    1
    55   108   107    1
    56   108   109    2
    57    82    83   ar
    58   107   110    1
    59    95    97   ar
    60    95    96   ar
    61    21    22    1
    62    87    88    1
    63    87    85   ar
    64    22    23    1
    65    22    25    1
    66    23    24    2
    67   123   122    1
    68   112   114   ar
    69   112   111   ar
    70    83    85   ar
    71   110   111    1
    72   117   118    1
    73   114   116   ar
    74   118   121    1
    75   118   119    1
    76   122   121    1
    77   122   124    1
    78   111   113   ar
    79   130   129    1
    80    25    26    1
    81   125   119   am
    82   125   126    1
    83   116   115   ar
    84   119   120    2
    85   129   126    1
    86   128   127    2
    87   113   115   ar
    88   126   127    1
    89   127   131   am
    90    27    28    1
    91    67    66    1
    92   137   139   ar
    93   137   136   ar
    94   139   141   ar
    95   131   132    1
    96    30    29    2
    97    68    66    1
    98    56    55    1
    99    31    28    1
   100    31    32    1
   101   135   132    1
   102   135   136    1
   103   132   133    1
   104    66    63    1
   105   136   138   ar
   106    28    29    1
   107    54    53    1
   108    54    55    1
   109   141   142    1
   110   141   140   ar
   111    34    32   am
   112    32    33    2
   113    53    50    1
   114   138   140   ar
   115   133   134    2
   116    63    64    1
   117    63    62    1
   118    52    51    2
   119    51    50    1
   120    64    65    2
   121   164   163    1
   122    50    49    1
   123    62    59   am
   124   165   163    1
   125   163   160    1
   126    72    71    2
   127    71    70    1
   128   168   169    2
   129   168   167    1
   130   146   145    2
   131    59    60    2
   132    59    58    1
   133   143   144    1
   134   160   161    1
   135   160   159    1
   136   162   161    2
   137   161   166   am
   138   166   167    1
   139   166   172    1
   140   159   153   am
   141   170   167    1
   142   170   171    1
   143    57    58    1
   144    70    73    1
   145    70    69    1
   146    61    58    1
   147   172   171    1
   148    73    74    1
   149   148   150    1
   150   148   147    1
   151   145   144    1
   152   145   151   am
   153   144   147    1
   154   153   154    2
   155   153   152    1
   156   152   151    1
   157   152   155    1
   158   147   149    1
   159    74    76   am
   160    74    75    2
   161   157   156   ar
   162   155   156    1
   163   156   158   ar
