@<TRIPOS>MOLECULE
tmp/4q27B00.pdb
 124 116 0 0 0
SMALL
GASTEIGER

@<TRIPOS>ATOM
      1  N         16.4170   -6.6120   17.2360 N.3    29  VAL29      -0.1245
      2  CA        15.0080   -6.7580   16.9870 C.3    29  VAL29       0.1561
      3  C         14.4410   -5.6020   16.2070 C.2    29  VAL29       0.2260
      4  O         14.7300   -4.4150   16.5100 O.2    29  VAL29      -0.2867
      5  CB        14.2020   -6.8850   18.3110 C.3    29  VAL29       0.0252
      6  CG1       12.7530   -6.8590   18.1230 C.3    29  VAL29       0.0019
      7  CG2       14.6350   -8.1350   19.0670 C.3    29  VAL29       0.0019
      8  N          7.7620   -9.7690   14.7010 N.3    42  HIS42      -0.1241
      9  CA         8.8940   -9.6500   15.5850 C.3    42  HIS42       0.1621
     10  C         10.0300  -10.2980   14.8430 C.2    42  HIS42       0.2264
     11  O         10.0180  -11.5290   14.6660 O.2    42  HIS42      -0.2867
     12  CB         8.5920  -10.3750   16.8980 C.3    42  HIS42       0.0745
     13  CG         9.7710  -10.5460   17.7870 C.ar   42  HIS42       0.0817
     14  ND1       10.2820   -9.5130   18.5480 N.ar   42  HIS42      -0.2268
     15  CD2       10.4380  -11.6590   18.1750 C.ar   42  HIS42       0.1154
     16  CE1       11.2730   -9.9700   19.3040 C.ar   42  HIS42       0.1986
     17  NE2       11.3740  -11.2760   19.0910 N.ar   42  HIS42      -0.2212
     18  N         13.8930  -11.0320   14.6580 N.3    44  ASN44      -0.1240
     19  CA        14.9500  -11.1120   15.6310 C.3    44  ASN44       0.1653
     20  C         16.1750  -11.9340   15.1600 C.2    44  ASN44       0.2266
     21  O         16.3200  -13.1190   15.5100 O.2    44  ASN44      -0.2867
     22  CB        14.3550  -11.6920   16.9360 C.3    44  ASN44       0.1155
     23  CG        15.3320  -11.8040   18.1010 C.2    44  ASN44       0.2627
     24  OD1       15.0740  -12.5570   19.0240 O.2    44  ASN44      -0.2716
     25  ND2       16.4240  -11.0840   18.0450 N.am   44  ASN44      -0.0877
     26  N         19.5850  -13.3680   15.6580 N.3    46  ARG46      -0.1245
     27  CA        20.3490  -13.7520   16.8200 C.3    46  ARG46       0.1563
     28  C         21.7210  -14.2450   16.3630 C.2    46  ARG46       0.2260
     29  O         21.8460  -15.2750   15.6890 O.2    46  ARG46      -0.2867
     30  CB        19.6390  -14.8200   17.6100 C.3    46  ARG46       0.0307
     31  CG        18.2970  -14.3950   18.1880 C.3    46  ARG46       0.0489
     32  CD        17.5410  -15.5070   18.7940 C.3    46  ARG46       0.2205
     33  NE        16.2670  -15.0700   19.3360 N.pl3  46  ARG46      -0.0865
     34  CZ        15.3970  -15.8130   19.9720 C.cat  46  ARG46       0.5346
     35  NH1       14.2550  -15.2850   20.3600 N.pl3  46  ARG46       0.1354
     36  NH2       15.6050  -17.1110   20.1670 N.pl3  46  ARG46       0.1354
     37  N         19.6540  -16.4460   23.3430 N.3    50  HIS50      -0.1226
     38  CA        18.4090  -17.1430   23.6270 C.3    50  HIS50       0.1752
     39  C         18.4000  -18.5260   23.0480 C.2    50  HIS50       0.2597
     40  O         17.3370  -19.0260   22.6050 O.2    50  HIS50      -0.2718
     41  CB        17.1680  -16.3660   23.1520 C.3    50  HIS50       0.0759
     42  CG        17.0900  -14.9560   23.6350 C.ar   50  HIS50       0.0818
     43  ND1       16.9010  -14.6250   24.9630 N.ar   50  HIS50      -0.2268
     44  CD2       17.2070  -13.7840   22.9670 C.ar   50  HIS50       0.1154
     45  CE1       16.8730  -13.3070   25.0840 C.ar   50  HIS50       0.1986
     46  NE2       17.0810  -12.7770   23.8910 N.ar   50  HIS50      -0.2212
     47  N         19.5620  -19.1790   23.0380 N.am   51  GLY51      -0.1942
     48  CA        19.6250  -20.5600   22.5900 C.3    51  GLY51       0.2014
     49  C         19.9670  -20.7430   21.1120 C.2    51  GLY51       0.2638
     50  O         20.0740  -21.8670   20.6260 O.2    51  GLY51      -0.2714
     51  N         20.1150  -19.6650   20.3630 N.am   52  ASP52      -0.1971
     52  CA        20.3250  -19.6880   18.9020 C.3    52  ASP52       0.1709
     53  C         21.6750  -19.0530   18.5470 C.2    52  ASP52       0.2293
     54  O         22.0900  -18.0560   19.1500 O.2    52  ASP52      -0.2864
     55  CB        19.2340  -18.9070   18.1940 C.3    52  ASP52       0.1436
     56  CG        17.8970  -19.6170   18.2310 C.2    52  ASP52       0.3671
     57  OD1       17.7270  -20.6900   17.5680 O.co2  52  ASP52      -0.2456
     58  OD2       16.9620  -19.1600   18.9460 O.co2  52  ASP52      -0.2456
     59  N         15.0460  -15.4730   14.1360 N.3    57  VAL57      -0.1245
     60  CA        13.7910  -15.9020   14.7310 C.3    57  VAL57       0.1561
     61  C         12.7360  -14.8820   14.4190 C.2    57  VAL57       0.2260
     62  O         12.9260  -13.6870   14.6970 O.2    57  VAL57      -0.2867
     63  CB        13.9150  -16.1190   16.2600 C.3    57  VAL57       0.0252
     64  CG1       12.5820  -16.5050   16.8970 C.3    57  VAL57       0.0019
     65  CG2       14.9650  -17.1830   16.5520 C.3    57  VAL57       0.0019
     66  N          8.4560  -14.0290   14.9890 N.3    59  ASN59      -0.1240
     67  CA         7.2500  -14.4050   15.6760 C.3    59  ASN59       0.1653
     68  C          6.2260  -13.2870   15.5000 C.2    59  ASN59       0.2266
     69  O          6.5260  -12.2360   14.8970 O.2    59  ASN59      -0.2867
     70  CB         7.4880  -14.6740   17.2000 C.3    59  ASN59       0.1155
     71  CG         6.5260  -15.6240   17.8260 C.2    59  ASN59       0.2627
     72  OD1        5.5020  -15.9420   17.2610 O.2    59  ASN59      -0.2716
     73  ND2        6.8730  -16.1040   18.9950 N.am   59  ASN59      -0.0877
     74  N          2.7850  -11.3620   17.8410 N.3    61  LYS61      -0.1245
     75  CA         2.2290  -11.1660   19.1490 C.3    61  LYS61       0.1561
     76  C          0.8150  -10.6790   18.9590 C.2    61  LYS61       0.2260
     77  O          0.5980   -9.7170   18.1990 O.2    61  LYS61      -0.2867
     78  CB         3.0710  -10.1810   19.9640 C.3    61  LYS61       0.0271
     79  CG         2.6400  -10.0740   21.3840 C.3    61  LYS61       0.0035
     80  CD         3.5600   -9.0690   22.1460 C.3    61  LYS61       0.0206
     81  CE         4.4790   -9.8170   23.0450 C.3    61  LYS61       0.1093
     82  NZ         5.2620   -8.9290   23.8710 N.3    61  LYS61      -0.1314
     83  N          2.5350  -14.0610   22.7030 N.3    66  TRP66      -0.1241
     84  CA         3.4430  -14.5210   21.6650 C.3    66  TRP66       0.1605
     85  C          2.8430  -15.6590   20.8820 C.2    66  TRP66       0.2264
     86  O          2.2660  -16.5870   21.4610 O.2    66  TRP66      -0.2867
     87  CB         4.7750  -14.9610   22.2440 C.3    66  TRP66       0.0550
     88  CG         5.6370  -13.8510   22.7490 C.ar   66  TRP66       0.0003
     89  CD1        5.9290  -13.5890   24.0350 C.ar   66  TRP66       0.0946
     90  CD2        6.3370  -12.8950   21.9500 C.ar   66  TRP66       0.0152
     91  NE1        6.7700  -12.5070   24.0860 N.ar   66  TRP66      -0.2442
     92  CE2        7.0300  -12.0580   22.8210 C.ar   66  TRP66       0.0810
     93  CE3        6.4210  -12.6590   20.5670 C.ar   66  TRP66       0.0012
     94  CZ2        7.8350  -10.9950   22.3780 C.ar   66  TRP66       0.0191
     95  CZ3        7.1780  -11.5920   20.1510 C.ar   66  TRP66       0.0001
     96  CH2        7.8760  -10.7630   21.0420 C.ar   66  TRP66       0.0015
     97  N          7.1450  -19.4170   17.1360 N.3    69  GLU69      -0.1245
     98  CA         8.3570  -18.9970   16.4380 C.3    69  GLU69       0.1567
     99  C          8.5430  -19.7180   15.1250 C.2    69  GLU69       0.2260
    100  O          8.2870  -20.9480   15.0320 O.2    69  GLU69      -0.2867
    101  CB         9.5700  -19.2630   17.2820 C.3    69  GLU69       0.0388
    102  CG         9.6180  -18.3940   18.5510 C.3    69  GLU69       0.1160
    103  CD        10.7700  -18.7270   19.5180 C.2    69  GLU69       0.3649
    104  OE1       11.4230  -19.7860   19.3570 O.co2  69  GLU69      -0.2457
    105  OE2       10.9770  -17.9690   20.4550 O.co2  69  GLU69      -0.2457
    106  N         11.8860  -20.1470   12.4630 N.3    71  ARG71      -0.1245
    107  CA        13.2790  -19.9120   12.2170 C.3    71  ARG71       0.1563
    108  C         13.6120  -19.9450   10.7710 C.2    71  ARG71       0.2260
    109  O         13.1770  -20.8460   10.0570 O.2    71  ARG71      -0.2867
    110  CB        14.1960  -20.8780   12.9700 C.3    71  ARG71       0.0307
    111  CG        14.2890  -20.4800   14.4720 C.3    71  ARG71       0.0489
    112  CD        14.9510  -21.5440   15.3610 C.3    71  ARG71       0.2205
    113  NE        15.0730  -21.0330   16.7370 N.pl3  71  ARG71      -0.0865
    114  CZ        14.0440  -20.8340   17.5760 C.cat  71  ARG71       0.5346
    115  NH1       12.7830  -21.0880   17.2200 N.pl3  71  ARG71       0.1354
    116  NH2       14.2590  -20.2990   18.7630 N.pl3  71  ARG71       0.1354
    117  N         15.0660   -2.7110   18.8880 N.3   120  ASP120     -0.1239
    118  CA        15.6800   -3.0360   20.1490 C.3   120  ASP120      0.1674
    119  C         16.9390   -3.8230   19.9190 C.2   120  ASP120      0.2266
    120  O         17.1970   -4.3730   18.8300 O.2   120  ASP120     -0.2867
    121  CB        14.6620   -3.8170   20.9900 C.3   120  ASP120      0.1410
    122  CG        14.9750   -3.8750   22.4730 C.2   120  ASP120      0.3668
    123  OD1       15.7850   -3.0570   22.9960 O.co2 120  ASP120     -0.2456
    124  OD2       14.3710   -4.7650   23.1230 O.co2 120  ASP120     -0.2456
@<TRIPOS>BOND
     1   109   108    2
     2   108   107    1
     3   107   106    1
     4   107   110    1
     5   110   111    1
     6    59    60    1
     7    61    62    2
     8    61    60    1
     9   111   112    1
    10    18    19    1
    11    11    10    2
    12     8     9    1
    13    60    63    1
    14    10     9    1
    15    69    68    2
    16    66    67    1
    17   100    99    2
    18    99    98    1
    19    20    21    2
    20    20    19    1
    21   112   113    1
    22    68    67    1
    23     9    12    1
    24    19    22    1
    25    26    27    1
    26    67    70    1
    27    29    28    2
    28     3     4    2
    29     3     2    1
    30    63    65    1
    31    63    64    1
    32    28    27    1
    33    98    97    1
    34    98   101    1
    35   113   114    2
    36    27    30    1
    37    12    13    1
    38    22    23    1
    39     2     1    1
    40     2     5    1
    41    70    71    1
    42   115   114    1
    43    72    71    2
    44   101   102    1
    45    57    56   ar
    46   114   116    1
    47    30    31    1
    48    13    15   ar
    49    13    14   ar
    50    71    73   am
    51    74    75    1
    52    25    23   am
    53    23    24    2
    54     6     5    1
    55    15    17   ar
    56    31    32    1
    57    55    56    1
    58    55    52    1
    59    77    76    2
    60    56    58   ar
    61     5     7    1
    62    53    52    1
    63    53    54    2
    64    14    16   ar
    65   102   103    1
    66    32    33    1
    67   120   119    2
    68   117   118    1
    69    52    51    1
    70    76    75    1
    71    17    16   ar
    72    75    78    1
    73    33    34    2
    74   104   103   ar
    75   103   105   ar
    76   119   118    1
    77    78    79    1
    78    34    36    1
    79    34    35    1
    80   118   121    1
    81    95    93   ar
    82    95    96   ar
    83    51    49   am
    84    93    90   ar
    85    50    49    2
    86    85    86    2
    87    85    84    1
    88   121   122    1
    89    96    94   ar
    90    49    48    1
    91    79    80    1
    92    84    87    1
    93    84    83    1
    94    90    88   ar
    95    90    92   ar
    96    80    81    1
    97    87    88    1
    98    94    92   ar
    99   122   123   ar
   100   122   124   ar
   101    48    47    1
   102    40    39    2
   103    88    89   ar
   104    92    91   ar
   105    44    42   ar
   106    44    46   ar
   107    47    39   am
   108    81    82    1
   109    39    38    1
   110    41    38    1
   111    41    42    1
   112    37    38    1
   113    42    43   ar
   114    46    45   ar
   115    89    91   ar
   116    43    45   ar
