@<TRIPOS>MOLECULE
tmp/4q2dA00.pdb
 216 204 0 0 0
SMALL
GASTEIGER

@<TRIPOS>ATOM
      1  N        -11.3550    5.1060    1.0580 N.3   275  TYR275     -0.1227
      2  CA       -11.8550    4.1670    0.0550 C.3   275  TYR275      0.1736
      3  C        -11.0130    4.0940   -1.2230 C.2   275  TYR275      0.2595
      4  O        -11.0320    3.0760   -1.9160 O.2   275  TYR275     -0.2718
      5  CB       -13.3390    4.4090   -0.2660 C.3   275  TYR275      0.0548
      6  CG       -13.6740    5.7640   -0.8550 C.ar  275  TYR275     -0.0200
      7  CD1      -14.0950    6.8090   -0.0430 C.ar  275  TYR275     -0.0009
      8  CD2      -13.5970    5.9880   -2.2230 C.ar  275  TYR275     -0.0009
      9  CE1      -14.4130    8.0450   -0.5750 C.ar  275  TYR275      0.0417
     10  CE2      -13.9130    7.2210   -2.7650 C.ar  275  TYR275      0.0417
     11  CZ       -14.3210    8.2450   -1.9360 C.ar  275  TYR275      0.1957
     12  OH       -14.6390    9.4730   -2.4670 O.3   275  TYR275     -0.2866
     13  N        -10.2790    5.1570   -1.5420 N.am  276  ILE276     -0.1966
     14  CA        -9.3730    5.0950   -2.6900 C.3   276  ILE276      0.1727
     15  C         -7.9680    4.6060   -2.3230 C.2   276  ILE276      0.2616
     16  O         -7.3170    5.1400   -1.4230 O.2   276  ILE276     -0.2715
     17  CB        -9.3100    6.4240   -3.4980 C.3   276  ILE276      0.0290
     18  CG1       -8.3310    6.2900   -4.6640 C.3   276  ILE276      0.0022
     19  CG2       -8.9030    7.5910   -2.6220 C.3   276  ILE276      0.0023
     20  CD1       -8.5930    5.0880   -5.5440 C.3   276  ILE276      0.0001
     21  N         -7.5170    3.5800   -3.0390 N.am  277  ARG277     -0.1963
     22  CA        -6.1790    3.0370   -2.8810 C.3   277  ARG277      0.1729
     23  C         -5.2060    3.7990   -3.7770 C.2   277  ARG277      0.2616
     24  O         -4.2910    4.4620   -3.2910 O.2   277  ARG277     -0.2715
     25  CB        -6.1800    1.5550   -3.2550 C.3   277  ARG277      0.0348
     26  CG        -7.4000    0.8040   -2.7450 C.3   277  ARG277      0.0492
     27  CD        -7.7010   -0.4190   -3.5950 C.3   277  ARG277      0.2205
     28  NE        -9.0370   -0.9490   -3.3290 N.pl3 277  ARG277     -0.0865
     29  CZ       -10.1430   -0.5270   -3.9360 C.cat 277  ARG277      0.5346
     30  NH1      -10.0790    0.4340   -4.8480 N.pl3 277  ARG277      0.1354
     31  NH2      -11.3160   -1.0660   -3.6310 N.pl3 277  ARG277      0.1354
     32  N         -5.4140    3.7010   -5.0870 N.am  278  GLN278     -0.1977
     33  CA        -4.5610    4.3810   -6.0590 C.3   278  GLN278      0.1601
     34  C         -5.3030    5.5080   -6.7730 C.2   278  GLN278      0.2287
     35  O         -6.2180    5.2530   -7.5540 O.2   278  GLN278     -0.2864
     36  CB        -4.0180    3.3820   -7.0830 C.3   278  GLN278      0.0394
     37  CG        -3.1020    3.9950   -8.1310 C.3   278  GLN278      0.0908
     38  CD        -1.7720    4.4460   -7.5580 C.2   278  GLN278      0.2608
     39  OE1       -1.3990    4.0680   -6.4470 O.2   278  GLN278     -0.2717
     40  NE2       -1.0460    5.2580   -8.3180 N.am  278  GLN278     -0.0878
     41  N         -6.7150    8.5140   -9.1220 N.3   280  THR280     -0.1218
     42  CA        -6.8610    8.6980  -10.5610 C.3   280  THR280      0.1862
     43  C         -5.9400    9.8110  -11.0330 C.2   280  THR280      0.2287
     44  O         -5.5250   10.6590  -10.2440 O.2   280  THR280     -0.2866
     45  CB        -8.3080    9.0320  -10.9640 C.3   280  THR280      0.1770
     46  OG1       -8.7720   10.1460  -10.1940 O.3   280  THR280     -0.2211
     47  CG2       -9.2210    7.8380  -10.7290 C.3   280  THR280      0.0375
     48  N         -6.7380   13.2720  -10.1570 N.3   283  GLN283     -0.1245
     49  CA        -6.4660   13.5000   -8.7440 C.3   283  GLN283      0.1566
     50  C         -4.9740   13.6610   -8.4770 C.2   283  GLN283      0.2260
     51  O         -4.5720   14.3330   -7.5280 O.2   283  GLN283     -0.2867
     52  CB        -7.0400   12.3620   -7.9020 C.3   283  GLN283      0.0367
     53  CG        -8.5580   12.3410   -7.8550 C.3   283  GLN283      0.0905
     54  CD        -9.1050   11.0360   -7.3160 C.2   283  GLN283      0.2608
     55  OE1       -8.3670   10.0650   -7.1450 O.2   283  GLN283     -0.2717
     56  NE2      -10.4050   11.0040   -7.0510 N.am  283  GLN283     -0.0878
     57  N        -12.9420   13.1680  -18.0390 N.3   304  PRO304     -0.2116
     58  CA       -14.0840   12.3260  -18.4080 C.3   304  PRO304      0.1372
     59  C        -14.8840   11.9220  -17.1750 C.2   304  PRO304      0.2244
     60  O        -14.3160   11.7590  -16.0970 O.2   304  PRO304     -0.2868
     61  CB       -13.4210   11.0920  -19.0250 C.3   304  PRO304      0.0268
     62  CG       -12.1150   11.5810  -19.5250 C.3   304  PRO304      0.0207
     63  CD       -11.6710   12.6190  -18.5410 C.3   304  PRO304      0.0892
     64  N        -16.8700   10.0900  -14.2410 N.3   305  GLY305     -0.1210
     65  CA       -16.5470    8.8980  -13.4800 C.3   305  GLY305      0.1956
     66  C        -15.0800    8.7960  -13.1060 C.2   305  GLY305      0.2612
     67  O        -14.6520    7.8030  -12.5190 O.2   305  GLY305     -0.2717
     68  N        -14.3070    9.8220  -13.4490 N.am  306  GLU306     -0.1965
     69  CA       -12.8770    9.8350  -13.1500 C.3   306  GLU306      0.1733
     70  C        -12.5750   10.3420  -11.7380 C.2   306  GLU306      0.2617
     71  O        -11.4200   10.3630  -11.3140 O.2   306  GLU306     -0.2715
     72  CB       -12.1040   10.6440  -14.1960 C.3   306  GLU306      0.0429
     73  CG       -10.6900   10.1370  -14.4680 C.3   306  GLU306      0.1163
     74  CD       -10.6620    8.8670  -15.3070 C.2   306  GLU306      0.3649
     75  OE1      -11.2120    7.8350  -14.8660 O.co2 306  GLU306     -0.2457
     76  OE2      -10.0830    8.9020  -16.4140 O.co2 306  GLU306     -0.2457
     77  N        -13.6160   10.7500  -11.0160 N.am  307  GLY307     -0.1940
     78  CA       -13.4620   11.1970   -9.6410 C.3   307  GLY307      0.2014
     79  C        -12.9410   12.6120   -9.4570 C.2   307  GLY307      0.2639
     80  O        -12.0750   12.8560   -8.6170 O.2   307  GLY307     -0.2714
     81  N        -13.4640   13.5430  -10.2490 N.am  308  LYS308     -0.1963
     82  CA       -13.0630   14.9450  -10.1630 C.3   308  LYS308      0.1728
     83  C        -13.3980   15.5880   -8.8140 C.2   308  LYS308      0.2617
     84  O        -12.6950   16.4950   -8.3510 O.2   308  LYS308     -0.2715
     85  CB       -13.7270   15.7490  -11.2860 C.3   308  LYS308      0.0311
     86  CG       -13.2740   15.3710  -12.6870 C.3   308  LYS308      0.0038
     87  CD       -13.9210   16.2690  -13.7330 C.3   308  LYS308      0.0206
     88  CE       -15.4080   15.9870  -13.8730 C.3   308  LYS308      0.1093
     89  NZ       -15.6630   14.6440  -14.4630 N.3   308  LYS308     -0.1314
     90  N        -14.4730   15.1210   -8.1860 N.am  309  THR309     -0.1937
     91  CA       -14.9520   15.7480   -6.9600 C.3   309  THR309      0.2028
     92  C        -13.9570   15.6310   -5.8120 C.2   309  THR309      0.2642
     93  O        -13.8280   16.5520   -5.0090 O.2   309  THR309     -0.2714
     94  CB       -16.3130   15.1780   -6.5230 C.3   309  THR309      0.1808
     95  OG1      -16.1410   13.8560   -6.0000 O.3   309  THR309     -0.2208
     96  CG2      -17.2680   15.1400   -7.7050 C.3   309  THR309      0.0379
     97  N        -13.2390   14.5130   -5.7450 N.am  310  GLU310     -0.1976
     98  CA       -12.2050   14.3550   -4.7280 C.3   310  GLU310      0.1602
     99  C        -11.0550   15.3290   -4.9600 C.2   310  GLU310      0.2287
    100  O        -10.4230   15.7960   -4.0110 O.2   310  GLU310     -0.2864
    101  CB       -11.6830   12.9160   -4.6830 C.3   310  GLU310      0.0415
    102  CG       -12.5780   11.9420   -3.9260 C.3   310  GLU310      0.1163
    103  CD       -13.7870   11.5010   -4.7300 C.2   310  GLU310      0.3649
    104  OE1      -14.7650   11.0170   -4.1210 O.co2 310  GLU310     -0.2457
    105  OE2      -13.7570   11.6280   -5.9720 O.co2 310  GLU310     -0.2457
    106  N        -20.6670   12.2570    1.1460 N.3   340  ARG340     -0.1245
    107  CA       -19.2740   12.3140    0.7240 C.3   340  ARG340      0.1563
    108  C        -18.5970   13.5100    1.3860 C.2   340  ARG340      0.2260
    109  O        -17.4630   13.4150    1.8800 O.2   340  ARG340     -0.2867
    110  CB       -19.1960   12.4270   -0.8010 C.3   340  ARG340      0.0307
    111  CG       -17.9020   11.9130   -1.4110 C.3   340  ARG340      0.0489
    112  CD       -18.1720   10.7550   -2.3580 C.3   340  ARG340      0.2205
    113  NE       -19.0440   11.1410   -3.4650 N.pl3 340  ARG340     -0.0865
    114  CZ       -18.6220   11.3690   -4.7060 C.cat 340  ARG340      0.5346
    115  NH1      -17.3370   11.2440   -5.0070 N.pl3 340  ARG340      0.1354
    116  NH2      -19.4880   11.7160   -5.6490 N.pl3 340  ARG340      0.1354
    117  N        -19.7270   21.8280   -8.7850 N.3   448  ASP448     -0.1225
    118  CA       -19.7780   20.4680   -9.2950 C.3   448  ASP448      0.1805
    119  C        -20.5180   20.4460  -10.6280 C.2   448  ASP448      0.2597
    120  O        -21.5750   21.0620  -10.7650 O.2   448  ASP448     -0.2718
    121  CB       -20.4860   19.5680   -8.2790 C.3   448  ASP448      0.1424
    122  CG       -20.5220   18.1130   -8.7030 C.2   448  ASP448      0.3668
    123  OD1      -19.5300   17.3970   -8.4530 O.co2 448  ASP448     -0.2456
    124  OD2      -21.5460   17.6820   -9.2720 O.co2 448  ASP448     -0.2456
    125  N        -19.9580   19.7270  -11.5970 N.am  449  GLU449     -0.1979
    126  CA       -20.6060   19.4720  -12.8860 C.3   449  GLU449      0.1602
    127  C        -21.1880   20.6990  -13.6120 C.2   449  GLU449      0.2287
    128  O        -22.3620   21.0310  -13.4450 O.2   449  GLU449     -0.2864
    129  CB       -21.6820   18.3940  -12.7170 C.3   449  GLU449      0.0415
    130  CG       -22.2860   17.8860  -14.0140 C.3   449  GLU449      0.1163
    131  CD       -23.3040   16.7870  -13.7830 C.2   449  GLU449      0.3649
    132  OE1      -24.3450   16.7850  -14.4730 O.co2 449  GLU449     -0.2457
    133  OE2      -23.0610   15.9250  -12.9120 O.co2 449  GLU449     -0.2457
    134  N        -15.8530   22.0150  -11.8480 N.3   477  LEU477     -0.1245
    135  CA       -15.7670   20.6780  -12.4190 C.3   477  LEU477      0.1561
    136  C        -16.5500   20.5970  -13.7240 C.2   477  LEU477      0.2260
    137  O        -17.6380   21.1600  -13.8360 O.2   477  LEU477     -0.2867
    138  CB       -16.2730   19.6340  -11.4250 C.3   477  LEU477      0.0270
    139  CG       -15.4900   19.5680  -10.1130 C.3   477  LEU477      0.0019
    140  CD1      -15.9910   18.4240   -9.2480 C.3   477  LEU477      0.0001
    141  CD2      -13.9960   19.4380  -10.3850 C.3   477  LEU477      0.0001
    142  N        -17.1190   17.7660  -17.3730 N.3   479  ALA479     -0.1245
    143  CA       -16.7370   16.6470  -18.2220 C.3   479  ALA479      0.1562
    144  C        -15.9470   17.1480  -19.4280 C.2   479  ALA479      0.2260
    145  O        -14.9770   16.5170  -19.8520 O.2   479  ALA479     -0.2867
    146  CB       -17.9680   15.8840  -18.6720 C.3   479  ALA479      0.0290
    147  N        -22.6100    2.6140   -6.2930 N.3   619  ARG619     -0.1245
    148  CA       -21.4160    1.7780   -6.3820 C.3   619  ARG619      0.1563
    149  C        -21.4160    0.6290   -5.3710 C.2   619  ARG619      0.2260
    150  O        -20.9240   -0.4620   -5.6630 O.2   619  ARG619     -0.2867
    151  CB       -20.1610    2.6440   -6.2080 C.3   619  ARG619      0.0307
    152  CG       -18.9640    1.9210   -5.6070 C.3   619  ARG619      0.0489
    153  CD       -17.7180    2.7920   -5.6170 C.3   619  ARG619      0.2205
    154  NE       -17.1600    2.9300   -6.9590 N.pl3 619  ARG619     -0.0865
    155  CZ       -16.2780    2.0890   -7.4910 C.cat 619  ARG619      0.5346
    156  NH1      -15.8480    1.0450   -6.7930 N.pl3 619  ARG619      0.1354
    157  NH2      -15.8240    2.2900   -8.7210 N.pl3 619  ARG619      0.1354
    158  N        -25.0910   14.8370  -11.4150 N.3   638  SER638     -0.1217
    159  CA       -24.4710   14.6120  -10.1030 C.3   638  SER638      0.1889
    160  C        -24.5050   13.1910   -9.5290 C.2   638  SER638      0.2288
    161  O        -23.5050   12.7300   -8.9800 O.2   638  SER638     -0.2866
    162  CB       -25.0120   15.6030   -9.0670 C.3   638  SER638      0.2089
    163  OG       -24.4250   15.3820   -7.7960 O.3   638  SER638     -0.2183
    164  N        -24.3120    9.3870   -8.4620 N.3   640  ASP640     -0.1239
    165  CA       -23.3250    8.3440   -8.7210 C.3   640  ASP640      0.1674
    166  C        -23.9940    7.0000   -9.0050 C.2   640  ASP640      0.2266
    167  O        -23.9350    6.0810   -8.1880 O.2   640  ASP640     -0.2867
    168  CB       -22.3720    8.2180   -7.5290 C.3   640  ASP640      0.1410
    169  CG       -21.1280    7.4150   -7.8550 C.2   640  ASP640      0.3668
    170  OD1      -20.6590    7.4850   -9.0110 O.co2 640  ASP640     -0.2456
    171  OD2      -20.6150    6.7180   -6.9540 O.co2 640  ASP640     -0.2456
    172  N        -23.2320   13.4210  -20.3800 N.3   657  GLN657     -0.1245
    173  CA       -23.3610   13.4470  -18.9290 C.3   657  GLN657      0.1566
    174  C        -24.3040   12.3400  -18.4660 C.2   657  GLN657      0.2260
    175  O        -24.1010   11.7380  -17.4110 O.2   657  GLN657     -0.2867
    176  CB       -23.8720   14.8090  -18.4570 C.3   657  GLN657      0.0367
    177  CG       -23.3880   15.2060  -17.0720 C.3   657  GLN657      0.0905
    178  CD       -21.9400   15.6570  -17.0720 C.2   657  GLN657      0.2608
    179  OE1      -21.5120   16.4050  -17.9510 O.2   657  GLN657     -0.2717
    180  NE2      -21.1760   15.1990  -16.0870 N.am  657  GLN657     -0.0878
    181  N        -22.4520    9.0460  -18.6540 N.3   659  GLY659     -0.1210
    182  CA       -21.4470    8.8030  -17.6390 C.3   659  GLY659      0.1956
    183  C        -21.9180    7.7910  -16.6140 C.2   659  GLY659      0.2611
    184  O        -21.1130    7.1950  -15.9000 O.2   659  GLY659     -0.2717
    185  N        -23.2310    7.5930  -16.5470 N.am  660  ARG660     -0.1979
    186  CA       -23.8090    6.5880  -15.6650 C.3   660  ARG660      0.1597
    187  C        -23.7330    5.1940  -16.2880 C.2   660  ARG660      0.2287
    188  O        -23.9860    4.1920  -15.6210 O.2   660  ARG660     -0.2864
    189  CB       -25.2620    6.9410  -15.3360 C.3   660  ARG660      0.0334
    190  CG       -25.4780    8.4000  -14.9660 C.3   660  ARG660      0.0492
    191  CD       -24.6730    8.7910  -13.7400 C.3   660  ARG660      0.2205
    192  NE       -24.6800   10.2340  -13.5190 N.pl3 660  ARG660     -0.0865
    193  CZ       -23.7640   11.0670  -14.0030 C.cat 660  ARG660      0.5346
    194  NH1      -22.7620   10.6010  -14.7370 N.pl3 660  ARG660      0.1354
    195  NH2      -23.8470   12.3660  -13.7520 N.pl3 660  ARG660      0.1354
    196  N        -20.3910    2.9960  -15.2310 N.3   663  ARG663     -0.1231
    197  CA       -19.6110    3.9510  -14.4510 C.3   663  ARG663      0.1694
    198  C        -18.6360    3.2930  -13.4710 C.2   663  ARG663      0.2592
    199  O        -17.5360    3.7990  -13.2480 O.2   663  ARG663     -0.2718
    200  CB       -20.5560    4.8940  -13.7000 C.3   663  ARG663      0.0321
    201  CG       -19.8680    5.8840  -12.7750 C.3   663  ARG663      0.0489
    202  CD       -20.8730    6.8500  -12.1700 C.3   663  ARG663      0.2205
    203  NE       -20.7870    8.1780  -12.7690 N.pl3 663  ARG663     -0.0865
    204  CZ       -20.4230    9.2700  -12.1060 C.cat 663  ARG663      0.5346
    205  NH1      -20.1190    9.1940  -10.8170 N.pl3 663  ARG663      0.1354
    206  NH2      -20.3700   10.4390  -12.7270 N.pl3 663  ARG663      0.1354
    207  N        -19.0320    2.1570  -12.9060 N.am  664  HIS664     -0.1976
    208  CA       -18.2220    1.4920  -11.8870 C.3   664  HIS664      0.1656
    209  C        -17.6290    0.1740  -12.3710 C.2   664  HIS664      0.2291
    210  O        -18.3640   -0.7670  -12.6730 O.2   664  HIS664     -0.2864
    211  CB       -19.0300    1.2740  -10.6060 C.3   664  HIS664      0.0771
    212  CG       -19.5940    2.5340  -10.0280 C.ar  664  HIS664      0.0820
    213  ND1      -20.9410    2.8230  -10.0450 N.ar  664  HIS664     -0.2267
    214  CD2      -18.9910    3.5860   -9.4260 C.ar  664  HIS664      0.1154
    215  CE1      -21.1450    3.9970   -9.4730 C.ar  664  HIS664      0.1986
    216  NE2      -19.9770    4.4800   -9.0890 N.ar  664  HIS664     -0.2212
@<TRIPOS>BOND
     1   172   173    1
     2   145   144    2
     3    62    61    1
     4    62    63    1
     5   144   143    1
     6    61    58    1
     7   173   174    1
     8   173   176    1
     9   146   143    1
    10   181   182    1
    11    63    57    1
    12   174   175    2
    13   176   177    1
    14    58    57    1
    15    58    59    1
    16   143   142    1
    17   179   178    2
    18   182   183    1
    19    59    60    2
    20   177   178    1
    21   178   180   am
    22   183   185   am
    23   183   184    2
    24   185   186    1
    25    76    74   ar
    26   187   186    1
    27   187   188    2
    28   186   189    1
    29   189   190    1
    30    74    75   ar
    31    74    73    1
    32   196   197    1
    33   190   191    1
    34   194   193    1
    35   132   131   ar
    36    73    72    1
    37    89    88    1
    38   197   200    1
    39   197   198    1
    40    64    65    1
    41    72    69    1
    42   130   131    1
    43   130   129    1
    44   193   195    1
    45   193   192    2
    46    88    87    1
    47   137   136    2
    48   131   133   ar
    49   191   192    1
    50    87    86    1
    51   136   135    1
    52   200   201    1
    53   127   128    2
    54   127   126    1
    55    65    66    1
    56   198   199    2
    57   198   207   am
    58    68    69    1
    59    68    66   am
    60    69    70    1
    61    66    67    2
    62   207   208    1
    63   126   129    1
    64   126   125    1
    65   201   202    1
    66   203   202    1
    67   203   204    2
    68   206   204    1
    69    86    85    1
    70   210   209    2
    71   135   134    1
    72   135   138    1
    73   209   208    1
    74   204   205    1
    75   208   211    1
    76    70    71    2
    77    70    77   am
    78   125   119   am
    79   138   139    1
    80   158   159    1
    81    85    82    1
    82    43    42    1
    83    43    44    2
    84    77    78    1
    85    45    47    1
    86    45    42    1
    87    45    46    1
    88   120   119    2
    89   119   118    1
    90   211   212    1
    91    42    41    1
    92   141   139    1
    93    81    82    1
    94    81    79   am
    95    82    83    1
    96    48    49    1
    97   139   140    1
    98   159   160    1
    99   159   162    1
   100   213   212   ar
   101   213   215   ar
   102   212   214   ar
   103    78    79    1
   104   160   161    2
   105   215   216   ar
   106    79    80    2
   107   214   216   ar
   108   118   117    1
   109   118   121    1
   110   124   122   ar
   111   162   163    1
   112   170   169   ar
   113   166   165    1
   114   166   167    2
   115    83    84    2
   116    83    90   am
   117    49    50    1
   118    49    52    1
   119   157   155    1
   120   165   164    1
   121   165   168    1
   122   122   123   ar
   123   122   121    1
   124    50    51    2
   125    40    38   am
   126    90    91    1
   127    37    38    1
   128    37    36    1
   129    52    53    1
   130    53    54    1
   131   169   168    1
   132   169   171   ar
   133    96    94    1
   134    38    39    2
   135    35    34    2
   136   155   154    2
   137   155   156    1
   138    54    55    2
   139    54    56   am
   140    36    33    1
   141    91    94    1
   142    91    92    1
   143   154   153    1
   144    34    33    1
   145    94    95    1
   146   148   147    1
   147   148   151    1
   148   148   149    1
   149   151   152    1
   150    33    32    1
   151   105   103   ar
   152    92    97   am
   153    92    93    2
   154    97    98    1
   155   150   149    2
   156   116   114    1
   157   153   152    1
   158    20    18    1
   159    32    23   am
   160   115   114    1
   161    99    98    1
   162    99   100    2
   163    30    29    1
   164   103   104   ar
   165   103   102    1
   166    98   101    1
   167   114   113    2
   168   101   102    1
   169    18    17    1
   170    29    31    1
   171    29    28    2
   172    23    24    2
   173    23    22    1
   174    27    28    1
   175    27    26    1
   176    17    14    1
   177    17    19    1
   178   113   112    1
   179    25    22    1
   180    25    26    1
   181    21    22    1
   182    21    15   am
   183    10     8   ar
   184    10    11   ar
   185    14    15    1
   186    14    13    1
   187    12    11    1
   188   112   111    1
   189    15    16    2
   190     8     6   ar
   191    11     9   ar
   192     4     3    2
   193    13     3   am
   194   111   110    1
   195     3     2    1
   196     6     5    1
   197     6     7   ar
   198   110   107    1
   199     9     7   ar
   200     5     2    1
   201     2     1    1
   202   107   106    1
   203   107   108    1
   204   108   109    2
