@<TRIPOS>MOLECULE
tmp/4q2fB00.pdb
 152 145 0 0 0
SMALL
GASTEIGER

@<TRIPOS>ATOM
      1  N         22.1370  -10.0200   19.3200 N.3    27  SER27      -0.1202
      2  CA        20.7310  -10.1450   18.9490 C.3    27  SER27       0.2020
      3  C         20.2040   -8.7700   18.6110 C.2    27  SER27       0.2619
      4  O         20.6020   -7.8030   19.2650 O.2    27  SER27      -0.2717
      5  CB        19.9830  -10.6840   20.1840 C.3    27  SER27       0.2103
      6  OG        18.5930  -10.7300   19.9780 O.3    27  SER27      -0.2182
      7  N         19.3200   -8.6410   17.6210 N.am   28  PHE28      -0.1961
      8  CA        18.5430   -7.4130   17.5090 C.3    28  PHE28       0.1771
      9  C         17.1260   -7.7230   17.1010 C.2    28  PHE28       0.2619
     10  O         16.8270   -8.8370   16.6730 O.2    28  PHE28      -0.2715
     11  CB        19.2120   -6.3570   16.6170 C.3    28  PHE28       0.0574
     12  CG        19.2160   -6.6520   15.1310 C.ar   28  PHE28      -0.0200
     13  CD1       18.1480   -6.2580   14.3360 C.ar   28  PHE28      -0.0042
     14  CD2       20.3100   -7.2340   14.5400 C.ar   28  PHE28      -0.0042
     15  CE1       18.1790   -6.4750   12.9640 C.ar   28  PHE28      -0.0003
     16  CE2       20.3380   -7.4530   13.1750 C.ar   28  PHE28      -0.0003
     17  CZ        19.2670   -7.0540   12.4010 C.ar   28  PHE28      -0.0000
     18  N         16.2490   -6.7380   17.2630 N.am   29  VAL29      -0.1977
     19  CA        14.8290   -6.9160   17.0350 C.3    29  VAL29       0.1596
     20  C         14.2430   -5.7350   16.2970 C.2    29  VAL29       0.2287
     21  O         14.5480   -4.5830   16.6110 O.2    29  VAL29      -0.2864
     22  CB        14.0670   -7.0540   18.3830 C.3    29  VAL29       0.0276
     23  CG1       12.5780   -7.0160   18.1740 C.3    29  VAL29       0.0022
     24  CG2       14.4350   -8.3620   19.0530 C.3    29  VAL29       0.0022
     25  N         10.2180   -4.8900   15.6110 N.3    31  ASN31      -0.1240
     26  CA         8.8380   -5.2420   15.8130 C.3    31  ASN31       0.1653
     27  C          7.9790   -4.3620   14.9290 C.2    31  ASN31       0.2266
     28  O          8.1920   -3.1430   14.8950 O.2    31  ASN31      -0.2867
     29  CB         8.4810   -5.0060   17.2600 C.3    31  ASN31       0.1155
     30  CG         9.0300   -6.0620   18.1730 C.2    31  ASN31       0.2627
     31  OD1        9.3270   -7.1700   17.7460 O.2    31  ASN31      -0.2716
     32  ND2        9.1670   -5.7360   19.4420 N.am   31  ASN31      -0.0877
     33  N          7.6220   -9.8880   14.6800 N.3    42  HIS42      -0.1241
     34  CA         8.7120   -9.7340   15.6000 C.3    42  HIS42       0.1621
     35  C          9.8470  -10.4130   14.8770 C.2    42  HIS42       0.2264
     36  O          9.8260  -11.6210   14.7010 O.2    42  HIS42      -0.2867
     37  CB         8.3680  -10.4470   16.9050 C.3    42  HIS42       0.0745
     38  CG         9.5270  -10.6460   17.8200 C.ar   42  HIS42       0.0817
     39  ND1       10.0460   -9.6410   18.6080 N.ar   42  HIS42      -0.2268
     40  CD2       10.2220  -11.7660   18.1150 C.ar   42  HIS42       0.1154
     41  CE1       11.0310  -10.1310   19.3380 C.ar   42  HIS42       0.1986
     42  NE2       11.1650  -11.4120   19.0500 N.ar   42  HIS42      -0.2212
     43  N         13.7320  -11.1700   14.6910 N.3    44  ASN44      -0.1240
     44  CA        14.8060  -11.2760   15.6650 C.3    44  ASN44       0.1653
     45  C         15.9990  -12.1100   15.1580 C.2    44  ASN44       0.2266
     46  O         16.1110  -13.3130   15.4430 O.2    44  ASN44      -0.2867
     47  CB        14.1990  -11.8650   16.9430 C.3    44  ASN44       0.1155
     48  CG        15.2040  -12.0670   18.0750 C.2    44  ASN44       0.2627
     49  OD1       15.0160  -12.9430   18.9120 O.2    44  ASN44      -0.2716
     50  ND2       16.2730  -11.2830   18.0850 N.am   44  ASN44      -0.0877
     51  N         19.3800  -13.5510   15.5860 N.3    46  ARG46      -0.1245
     52  CA        20.1750  -13.9420   16.7310 C.3    46  ARG46       0.1563
     53  C         21.5560  -14.3710   16.2520 C.2    46  ARG46       0.2260
     54  O         21.6950  -15.3910   15.5630 O.2    46  ARG46      -0.2867
     55  CB        19.5030  -15.0860   17.5010 C.3    46  ARG46       0.0307
     56  CG        18.1480  -14.6960   18.0590 C.3    46  ARG46       0.0489
     57  CD        17.4340  -15.8150   18.7430 C.3    46  ARG46       0.2205
     58  NE        16.1540  -15.3550   19.2960 N.pl3  46  ARG46      -0.0865
     59  CZ        15.2800  -16.1230   19.9390 C.cat  46  ARG46       0.5346
     60  NH1       14.1480  -15.5810   20.3740 N.pl3  46  ARG46       0.1354
     61  NH2       15.5210  -17.4130   20.1170 N.pl3  46  ARG46       0.1354
     62  N         19.6320  -16.7790   23.3010 N.3    50  HIS50      -0.1226
     63  CA        18.4270  -17.5650   23.6190 C.3    50  HIS50       0.1752
     64  C         18.4680  -18.9390   22.9980 C.2    50  HIS50       0.2597
     65  O         17.4460  -19.4640   22.5530 O.2    50  HIS50      -0.2718
     66  CB        17.1500  -16.8420   23.1930 C.3    50  HIS50       0.0759
     67  CG        17.0340  -15.4720   23.7640 C.ar   50  HIS50       0.0818
     68  ND1       16.7910  -15.2380   25.0990 N.ar   50  HIS50      -0.2268
     69  CD2       17.1710  -14.2620   23.1860 C.ar   50  HIS50       0.1154
     70  CE1       16.7680  -13.9340   25.3140 C.ar   50  HIS50       0.1986
     71  NE2       16.9970  -13.3190   24.1690 N.ar   50  HIS50      -0.2212
     72  N         19.6650  -19.5030   22.9660 N.am   51  GLY51      -0.1942
     73  CA        19.8490  -20.8660   22.5210 C.3    51  GLY51       0.2014
     74  C         20.1200  -21.0360   21.0330 C.2    51  GLY51       0.2638
     75  O         20.2170  -22.1630   20.5580 O.2    51  GLY51      -0.2714
     76  N         20.2590  -19.9240   20.3120 N.am   52  ASP52      -0.1971
     77  CA        20.4100  -19.9180   18.8480 C.3    52  ASP52       0.1709
     78  C         21.6820  -19.2080   18.3720 C.2    52  ASP52       0.2293
     79  O         22.0690  -18.1740   18.9110 O.2    52  ASP52      -0.2864
     80  CB        19.2420  -19.1800   18.1830 C.3    52  ASP52       0.1436
     81  CG        17.9410  -19.9510   18.2200 C.2    52  ASP52       0.3671
     82  OD1       17.8840  -21.0630   17.6460 O.co2  52  ASP52      -0.2456
     83  OD2       16.9640  -19.4260   18.7940 O.co2  52  ASP52      -0.2456
     84  N         14.8310  -15.6070   14.0530 N.3    57  VAL57      -0.1245
     85  CA        13.5880  -16.0970   14.6040 C.3    57  VAL57       0.1561
     86  C         12.5200  -15.0360   14.3640 C.2    57  VAL57       0.2260
     87  O         12.7520  -13.8340   14.6220 O.2    57  VAL57      -0.2867
     88  CB        13.7540  -16.3390   16.1030 C.3    57  VAL57       0.0252
     89  CG1       12.4390  -16.7130   16.7660 C.3    57  VAL57       0.0019
     90  CG2       14.8700  -17.3750   16.3820 C.3    57  VAL57       0.0019
     91  N          8.2660  -14.1050   14.9920 N.3    59  ASN59      -0.1240
     92  CA         7.0360  -14.4780   15.6720 C.3    59  ASN59       0.1653
     93  C          5.9960  -13.3690   15.4760 C.2    59  ASN59       0.2266
     94  O          6.3110  -12.3230   14.9290 O.2    59  ASN59      -0.2867
     95  CB         7.3030  -14.7200   17.1610 C.3    59  ASN59       0.1155
     96  CG         6.3390  -15.6980   17.7890 C.2    59  ASN59       0.2627
     97  OD1        5.3010  -16.0400   17.2400 O.2    59  ASN59      -0.2716
     98  ND2        6.6900  -16.1510   18.9840 N.am   59  ASN59      -0.0877
     99  N          2.2630  -14.1510   22.6810 N.3    66  TRP66      -0.1241
    100  CA         3.1710  -14.5990   21.6330 C.3    66  TRP66       0.1605
    101  C          2.6110  -15.7850   20.8640 C.2    66  TRP66       0.2264
    102  O          2.0330  -16.7240   21.4380 O.2    66  TRP66      -0.2867
    103  CB         4.5080  -14.9940   22.2350 C.3    66  TRP66       0.0550
    104  CG         5.3320  -13.8690   22.7200 C.ar   66  TRP66       0.0003
    105  CD1        5.6360  -13.5810   24.0040 C.ar   66  TRP66       0.0946
    106  CD2        5.9860  -12.8810   21.9190 C.ar   66  TRP66       0.0152
    107  NE1        6.4510  -12.4830   24.0600 N.ar   66  TRP66      -0.2442
    108  CE2        6.6870  -12.0350   22.7810 C.ar   66  TRP66       0.0810
    109  CE3        6.0560  -12.6420   20.5440 C.ar   66  TRP66       0.0012
    110  CZ2        7.4110  -10.9290   22.3340 C.ar   66  TRP66       0.0191
    111  CZ3        6.7880  -11.5550   20.0950 C.ar   66  TRP66       0.0001
    112  CH2        7.4640  -10.7230   20.9790 C.ar   66  TRP66       0.0015
    113  N          6.9850  -19.4950   17.2030 N.3    69  GLU69      -0.1245
    114  CA         8.1800  -19.0640   16.4810 C.3    69  GLU69       0.1567
    115  C          8.3750  -19.8130   15.1890 C.2    69  GLU69       0.2260
    116  O          8.1310  -21.0310   15.0970 O.2    69  GLU69      -0.2867
    117  CB         9.4150  -19.2840   17.3420 C.3    69  GLU69       0.0388
    118  CG         9.4650  -18.3710   18.5380 C.3    69  GLU69       0.1160
    119  CD        10.6390  -18.6620   19.4730 C.2    69  GLU69       0.3649
    120  OE1       11.2600  -19.7400   19.3970 O.co2  69  GLU69      -0.2457
    121  OE2       10.9360  -17.7830   20.2990 O.co2  69  GLU69      -0.2457
    122  N         11.6650  -20.2950   12.4650 N.3    71  ARG71      -0.1245
    123  CA        13.0910  -20.1180   12.2690 C.3    71  ARG71       0.1563
    124  C         13.4280  -20.1300   10.7990 C.2    71  ARG71       0.2260
    125  O         13.0380  -21.0600   10.0760 O.2    71  ARG71      -0.2867
    126  CB        13.9030  -21.1980   12.9950 C.3    71  ARG71       0.0307
    127  CG        13.9080  -20.9200   14.5060 C.3    71  ARG71       0.0489
    128  CD        14.7280  -21.8720   15.4190 C.3    71  ARG71       0.2205
    129  NE        14.9170  -21.2570   16.7580 N.pl3  71  ARG71      -0.0865
    130  CZ        13.9270  -20.9650   17.6140 C.cat  71  ARG71       0.5346
    131  NH1       12.6620  -21.2020   17.3110 N.pl3  71  ARG71       0.1354
    132  NH2       14.1770  -20.4060   18.7850 N.pl3  71  ARG71       0.1354
    133  N         14.9760   -2.8040   18.9510 N.3   120  ASP120     -0.1225
    134  CA        15.6250   -3.0910   20.2200 C.3   120  ASP120      0.1805
    135  C         16.8940   -3.8390   19.8980 C.2   120  ASP120      0.2598
    136  O         17.0340   -4.4360   18.8170 O.2   120  ASP120     -0.2718
    137  CB        14.6880   -3.9460   21.0770 C.3   120  ASP120      0.1424
    138  CG        15.0800   -3.9820   22.5720 C.2   120  ASP120      0.3668
    139  OD1       15.9970   -3.2200   23.0090 O.co2 120  ASP120     -0.2456
    140  OD2       14.4350   -4.7940   23.2900 O.co2 120  ASP120     -0.2456
    141  N         17.8040   -3.8370   20.8510 N.am  121  GLY121     -0.1942
    142  CA        18.9920   -4.6510   20.7480 C.3   121  GLY121      0.2014
    143  C         20.0810   -4.0000   19.9970 C.2   121  GLY121      0.2638
    144  O         20.2090   -2.7890   19.9650 O.2   121  GLY121     -0.2714
    145  N         20.8740   -4.8500   19.3730 N.am  122  ASP122     -0.1971
    146  CA        22.1360   -4.4090   18.8550 C.3   122  ASP122      0.1709
    147  C         22.0310   -3.8660   17.4310 C.2   122  ASP122      0.2293
    148  O         22.8210   -4.2450   16.5620 O.2   122  ASP122     -0.2864
    149  CB        23.0970   -5.5940   18.9490 C.3   122  ASP122      0.1436
    150  CG        23.3100   -6.0520   20.3910 C.2   122  ASP122      0.3671
    151  OD1       23.3840   -7.2850   20.6360 O.co2 122  ASP122     -0.2456
    152  OD2       23.3810   -5.1660   21.2710 O.co2 122  ASP122     -0.2456
@<TRIPOS>BOND
     1   125   124    2
     2   124   123    1
     3   123   122    1
     4   123   126    1
     5    17    15   ar
     6    17    16   ar
     7    15    13   ar
     8   126   127    1
     9    16    14   ar
    10    84    85    1
    11    13    12   ar
    12    86    85    1
    13    86    87    2
    14   127   128    1
    15    14    12   ar
    16    85    88    1
    17    33    34    1
    18    43    44    1
    19    36    35    2
    20    35    34    1
    21    28    27    2
    22    94    93    2
    23    27    26    1
    24    91    92    1
    25   116   115    2
    26    12    11    1
    27    45    46    2
    28    45    44    1
    29   115   114    1
    30   128   129    1
    31    93    92    1
    32    54    53    2
    33    51    52    1
    34    34    37    1
    35    25    26    1
    36    44    47    1
    37    92    95    1
    38    26    29    1
    39    88    90    1
    40    88    89    1
    41    53    52    1
    42    20    21    2
    43    20    19    1
    44   114   113    1
    45   114   117    1
    46   148   147    2
    47    11     8    1
    48    10     9    2
    49    52    55    1
    50   129   130    2
    51    37    38    1
    52    47    48    1
    53    19    18    1
    54    19    22    1
    55     9    18   am
    56     9     8    1
    57    95    96    1
    58    97    96    2
    59    29    30    1
    60   131   130    1
    61   117   118    1
    62   147   146    1
    63    55    56    1
    64     8     7    1
    65   130   132    1
    66     7     3   am
    67    82    81   ar
    68    31    30    2
    69    96    98   am
    70    38    40   ar
    71    38    39   ar
    72    56    57    1
    73    48    50   am
    74    48    49    2
    75    40    42   ar
    76    30    32   am
    77    23    22    1
    78    80    81    1
    79    80    77    1
    80    81    83   ar
    81    78    77    1
    82    78    79    2
    83    22    24    1
    84   118   119    1
    85    39    41   ar
    86     3     2    1
    87     3     4    2
    88    57    58    1
    89   136   135    2
    90    77    76    1
    91   146   149    1
    92   146   145    1
    93     2     1    1
    94     2     5    1
    95   149   150    1
    96   133   134    1
    97    42    41   ar
    98    58    59    2
    99   145   143   am
   100   120   119   ar
   101   119   121   ar
   102   135   134    1
   103   135   141   am
   104    59    61    1
   105    59    60    1
   106   144   143    2
   107     6     5    1
   108   143   142    1
   109   111   109   ar
   110   111   112   ar
   111   134   137    1
   112    76    74   am
   113   150   151   ar
   114   150   152   ar
   115   109   106   ar
   116    75    74    2
   117   142   141    1
   118   101   102    2
   119   101   100    1
   120   112   110   ar
   121    74    73    1
   122   137   138    1
   123   100   103    1
   124   100    99    1
   125   106   104   ar
   126   106   108   ar
   127   103   104    1
   128   110   108   ar
   129    73    72    1
   130    65    64    2
   131   138   139   ar
   132   138   140   ar
   133   104   105   ar
   134   108   107   ar
   135    72    64   am
   136    64    63    1
   137    69    67   ar
   138    69    71   ar
   139    66    63    1
   140    66    67    1
   141    62    63    1
   142    67    68   ar
   143   105   107   ar
   144    71    70   ar
   145    68    70   ar
