@<TRIPOS>MOLECULE
tmp/4q2gB00.pdb
 161 150 0 0 0
SMALL
GASTEIGER

@<TRIPOS>ATOM
      1  N         62.6770   35.9750   16.5720 N.3    13  VAL13      -0.1231
      2  CA        61.4330   35.5090   17.1950 C.3    13  VAL13       0.1692
      3  C         60.2010   36.1890   16.5910 C.2    13  VAL13       0.2591
      4  O         59.2850   35.5160   16.1220 O.2    13  VAL13      -0.2718
      5  CB        61.4550   35.7150   18.7400 C.3    13  VAL13       0.0266
      6  CG1       60.0550   35.6950   19.3090 C.3    13  VAL13       0.0020
      7  CG2       62.2680   34.6180   19.3970 C.3    13  VAL13       0.0020
      8  N         60.2080   37.5180   16.5510 N.am   14  ALA14      -0.1980
      9  CA        59.0820   38.2570   15.9980 C.3    14  ALA14       0.1597
     10  C         58.8230   37.9620   14.5150 C.2    14  ALA14       0.2287
     11  O         57.7520   37.4700   14.1760 O.2    14  ALA14      -0.2864
     12  CB        59.2340   39.7660   16.2520 C.3    14  ALA14       0.0319
     13  N         58.1760   34.0090   13.3260 N.3    17  VAL17      -0.1245
     14  CA        56.7840   33.6880   13.5590 C.3    17  VAL17       0.1561
     15  C         55.9220   34.2420   12.4270 C.2    17  VAL17       0.2260
     16  O         55.3160   33.4920   11.6700 O.2    17  VAL17      -0.2867
     17  CB        56.3410   34.2770   14.9010 C.3    17  VAL17       0.0252
     18  CG1       54.8460   34.3760   14.9820 C.3    17  VAL17       0.0019
     19  CG2       56.8710   33.4190   16.0230 C.3    17  VAL17       0.0019
     20  N         53.0270   32.7870    8.9030 N.3    21  PHE21      -0.1241
     21  CA        51.6140   32.9370    8.5700 C.3    21  PHE21       0.1605
     22  C         51.3080   33.0230    7.0810 C.2    21  PHE21       0.2264
     23  O         50.1620   33.2630    6.6860 O.2    21  PHE21      -0.2867
     24  CB        51.0310   34.1510    9.2600 C.3    21  PHE21       0.0534
     25  CG        50.7440   33.9330   10.6950 C.ar   21  PHE21      -0.0203
     26  CD1       51.7300   33.4560   11.5470 C.ar   21  PHE21      -0.0042
     27  CD2       49.4880   34.2140   11.2040 C.ar   21  PHE21      -0.0042
     28  CE1       51.4680   33.2660   12.8890 C.ar   21  PHE21      -0.0003
     29  CE2       49.2160   34.0270   12.5420 C.ar   21  PHE21      -0.0003
     30  CZ        50.2060   33.5540   13.3890 C.ar   21  PHE21      -0.0000
     31  N         51.8750   27.6140    8.6980 N.3    27  LEU27      -0.1245
     32  CA        51.2480   27.8700    9.9850 C.3    27  LEU27       0.1561
     33  C         51.2650   26.5860   10.7900 C.2    27  LEU27       0.2260
     34  O         51.6930   26.5710   11.9440 O.2    27  LEU27      -0.2867
     35  CB        49.8140   28.3590    9.7970 C.3    27  LEU27       0.0270
     36  CG        49.0770   28.6050   11.1070 C.3    27  LEU27       0.0019
     37  CD1       49.8750   29.5110   12.0260 C.3    27  LEU27       0.0001
     38  CD2       47.7460   29.1980   10.8170 C.3    27  LEU27       0.0001
     39  N         54.6260   25.7610   12.3150 N.3    30  LEU30      -0.1231
     40  CA        55.0020   26.6160   13.4270 C.3    30  LEU30       0.1693
     41  C         54.2940   26.0400   14.6450 C.2    30  LEU30       0.2591
     42  O         54.9490   25.6720   15.6250 O.2    30  LEU30      -0.2718
     43  CB        54.5320   28.0540   13.1810 C.3    30  LEU30       0.0284
     44  CG        54.8040   29.0910   14.2740 C.3    30  LEU30       0.0019
     45  CD1       56.2850   29.4250   14.3150 C.3    30  LEU30       0.0001
     46  CD2       53.9790   30.3420   14.0190 C.3    30  LEU30       0.0001
     47  N         52.9640   25.9060   14.5420 N.am   31  VAL31      -0.1980
     48  CA        52.1360   25.3670   15.6230 C.3    31  VAL31       0.1595
     49  C         52.6750   24.0280   16.0970 C.2    31  VAL31       0.2287
     50  O         52.7730   23.7880   17.2930 O.2    31  VAL31      -0.2864
     51  CB        50.6570   25.2170   15.2200 C.3    31  VAL31       0.0276
     52  CG1       49.9050   24.5110   16.3200 C.3    31  VAL31       0.0022
     53  CG2       50.0260   26.5790   14.9970 C.3    31  VAL31       0.0022
     54  N         55.9910   24.7590   18.0880 N.3    34  ILE34      -0.1245
     55  CA        55.6180   25.3560   19.3720 C.3    34  ILE34       0.1561
     56  C         54.9960   24.3570   20.3610 C.2    34  ILE34       0.2260
     57  O         55.1890   24.4710   21.5710 O.2    34  ILE34      -0.2867
     58  CB        54.6420   26.5030   19.1440 C.3    34  ILE34       0.0252
     59  CG1       55.3560   27.6320   18.4170 C.3    34  ILE34       0.0019
     60  CG2       54.0760   26.9840   20.4300 C.3    34  ILE34       0.0019
     61  CD1       54.4300   28.6580   17.8030 C.3    34  ILE34       0.0001
     62  N         45.7220   25.8840   21.2050 N.3   117  LEU117     -0.1245
     63  CA        46.6640   26.5500   20.3370 C.3   117  LEU117      0.1561
     64  C         46.4000   26.2600   18.8740 C.2   117  LEU117      0.2260
     65  O         46.5480   27.1510   18.0340 O.2   117  LEU117     -0.2867
     66  CB        48.1110   26.1650   20.6650 C.3   117  LEU117      0.0270
     67  CG        49.1450   26.9490   19.8340 C.3   117  LEU117      0.0019
     68  CD1       49.3860   28.3210   20.4820 C.3   117  LEU117      0.0001
     69  CD2       50.4500   26.1500   19.6720 C.3   117  LEU117      0.0001
     70  N         44.4700   28.1930   15.7190 N.3   120  PHE120     -0.1241
     71  CA        44.9470   29.0950   14.6840 C.3   120  PHE120      0.1605
     72  C         44.6230   28.4490   13.3500 C.2   120  PHE120      0.2264
     73  O         44.2320   29.1460   12.4040 O.2   120  PHE120     -0.2867
     74  CB        46.4600   29.3500   14.8010 C.3   120  PHE120      0.0534
     75  CG        46.8200   30.4280   15.7890 C.ar  120  PHE120     -0.0203
     76  CD1       46.5160   31.7600   15.5230 C.ar  120  PHE120     -0.0042
     77  CD2       47.4050   30.1070   17.0120 C.ar  120  PHE120     -0.0042
     78  CE1       46.7820   32.7580   16.4670 C.ar  120  PHE120     -0.0003
     79  CE2       47.6770   31.0940   17.9620 C.ar  120  PHE120     -0.0003
     80  CZ        47.3620   32.4200   17.6880 C.ar  120  PHE120     -0.0000
     81  N         47.2510   36.7720   17.1140 N.3   136  LEU136     -0.1245
     82  CA        48.5610   36.5050   17.7070 C.3   136  LEU136      0.1561
     83  C         49.3150   37.7150   18.2620 C.2   136  LEU136      0.2260
     84  O         49.7550   37.6940   19.4150 O.2   136  LEU136     -0.2867
     85  CB        49.4640   35.7920   16.7160 C.3   136  LEU136      0.0270
     86  CG        50.9030   35.7430   17.2130 C.3   136  LEU136      0.0019
     87  CD1       51.0080   34.9440   18.4890 C.3   136  LEU136      0.0001
     88  CD2       51.7650   35.1550   16.1540 C.3   136  LEU136      0.0001
     89  N         50.5170   40.2970   22.1280 N.3   140  TRP140     -0.1241
     90  CA        51.8210   40.9110   22.3890 C.3   140  TRP140      0.1605
     91  C         51.5800   42.3920   22.7020 C.2   140  TRP140      0.2264
     92  O         52.1190   42.9330   23.6630 O.2   140  TRP140     -0.2867
     93  CB        52.7140   40.7880   21.1520 C.3   140  TRP140      0.0550
     94  CG        53.1760   39.3980   20.8430 C.ar  140  TRP140      0.0003
     95  CD1       53.2310   38.3340   21.7080 C.ar  140  TRP140      0.0946
     96  CD2       53.7500   38.9340   19.6060 C.ar  140  TRP140      0.0152
     97  NE1       53.8230   37.2460   21.0910 N.ar  140  TRP140     -0.2442
     98  CE2       54.1530   37.5920   19.8060 C.ar  140  TRP140      0.0810
     99  CE3       53.9780   39.5280   18.3570 C.ar  140  TRP140      0.0012
    100  CZ2       54.7600   36.8370   18.7970 C.ar  140  TRP140      0.0191
    101  CZ3       54.5830   38.7750   17.3570 C.ar  140  TRP140      0.0001
    102  CH2       54.9710   37.4480   17.5860 C.ar  140  TRP140      0.0015
    103  N         49.8040   42.8390   25.9630 N.3   143  ASP143     -0.1239
    104  CA        50.8040   42.5510   26.9920 C.3   143  ASP143      0.1674
    105  C         51.6820   43.7300   27.4020 C.2   143  ASP143      0.2266
    106  O         51.9270   43.9490   28.5930 O.2   143  ASP143     -0.2867
    107  CB        51.6830   41.3830   26.5470 C.3   143  ASP143      0.1410
    108  CG        52.1450   40.5280   27.7070 C.2   143  ASP143      0.3668
    109  OD1       52.6160   41.0980   28.7200 O.co2 143  ASP143     -0.2456
    110  OD2       52.0330   39.2850   27.6060 O.co2 143  ASP143     -0.2456
    111  N         63.6760   27.3450   24.9920 N.3   237  LEU237     -0.1245
    112  CA        64.3230   28.3710   24.1820 C.3   237  LEU237      0.1561
    113  C         65.2700   29.1570   25.0980 C.2   237  LEU237      0.2260
    114  O         64.9300   29.4480   26.2580 O.2   237  LEU237     -0.2867
    115  CB        63.2910   29.3330   23.5590 C.3   237  LEU237      0.0270
    116  CG        62.5880   29.0140   22.2290 C.3   237  LEU237      0.0019
    117  CD1       61.7500   30.2270   21.8050 C.3   237  LEU237      0.0001
    118  CD2       63.6030   28.6760   21.1360 C.3   237  LEU237      0.0001
    119  N         58.7090   28.4520   27.1490 N.3   243  MET243     -0.1245
    120  CA        57.8580   28.4890   25.9620 C.3   243  MET243      0.1570
    121  C         56.3760   28.5280   26.3430 C.2   243  MET243      0.2261
    122  O         55.5990   29.2740   25.7440 O.2   243  MET243     -0.2867
    123  CB        58.1730   27.3110   25.0330 C.3   243  MET243      0.0387
    124  CG        57.3900   27.3090   23.7200 C.3   243  MET243      0.0595
    125  SD        57.3000   28.9160   22.8790 S.3   243  MET243     -0.1393
    126  CE        58.3330   28.6630   21.4650 C.3   243  MET243      0.0692
    127  N         55.2290   29.7890   29.0040 N.3   245  ASP245     -0.1225
    128  CA        55.0330   31.1130   29.6040 C.3   245  ASP245      0.1805
    129  C         54.7560   32.2460   28.5910 C.2   245  ASP245      0.2598
    130  O         54.0290   33.1920   28.9090 O.2   245  ASP245     -0.2718
    131  CB        56.2380   31.4900   30.4810 C.3   245  ASP245      0.1424
    132  CG        56.2750   30.7250   31.8030 C.2   245  ASP245      0.3668
    133  OD1       55.4780   31.0480   32.7080 O.co2 245  ASP245     -0.2456
    134  OD2       57.1080   29.8100   31.9480 O.co2 245  ASP245     -0.2456
    135  N         55.3480   32.1540   27.3940 N.am  246  ARG246     -0.1966
    136  CA        55.1640   33.1550   26.3250 C.3   246  ARG246      0.1729
    137  C         53.8170   32.9930   25.5870 C.2   246  ARG246      0.2616
    138  O         53.3750   33.8850   24.8500 O.2   246  ARG246     -0.2715
    139  CB        56.2980   33.0420   25.2880 C.3   246  ARG246      0.0348
    140  CG        57.7110   33.4560   25.7310 C.3   246  ARG246      0.0492
    141  CD        58.5780   33.6190   24.4810 C.3   246  ARG246      0.2205
    142  NE        60.0230   33.6570   24.7140 N.pl3 246  ARG246     -0.0865
    143  CZ        60.9260   33.8830   23.7550 C.cat 246  ARG246      0.5346
    144  NH1       60.5340   34.1000   22.5010 N.pl3 246  ARG246      0.1354
    145  NH2       62.2250   33.8650   24.0390 N.pl3 246  ARG246      0.1354
    146  N         53.1810   31.8470   25.8670 N.am  247  ILE247     -0.1977
    147  CA        51.9200   31.4460   25.2380 C.3   247  ILE247      0.1596
    148  C         50.6700   31.4930   26.1250 C.2   247  ILE247      0.2287
    149  O         49.5880   31.8360   25.6370 O.2   247  ILE247     -0.2864
    150  CB        52.0680   29.9920   24.7330 C.3   247  ILE247      0.0276
    151  CG1       52.9010   29.9540   23.4460 C.3   247  ILE247      0.0022
    152  CG2       50.6950   29.3710   24.5170 C.3   247  ILE247      0.0022
    153  CD1       53.2410   28.5690   22.9650 C.3   247  ILE247      0.0001
    154  N         47.4890   33.3670   25.4160 N.3   250  LEU250     -0.1245
    155  CA        47.1750   33.1090   24.0070 C.3   250  LEU250      0.1561
    156  C         46.3100   31.8670   23.8770 C.2   250  LEU250      0.2260
    157  O         45.4520   31.7880   22.9630 O.2   250  LEU250     -0.2867
    158  CB        48.4820   32.9080   23.2070 C.3   250  LEU250      0.0270
    159  CG        48.4010   32.5470   21.7170 C.3   250  LEU250      0.0019
    160  CD1       47.8460   33.7150   20.9360 C.3   250  LEU250      0.0001
    161  CD2       49.7800   32.1960   21.2120 C.3   250  LEU250      0.0001
@<TRIPOS>BOND
     1    23    22    2
     2    22    21    1
     3    21    20    1
     4    21    24    1
     5    31    32    1
     6    24    25    1
     7    35    32    1
     8    35    36    1
     9    32    33    1
    10    25    27   ar
    11    25    26   ar
    12    33    34    2
    13    38    36    1
    14    36    37    1
    15    27    29   ar
    16    26    28   ar
    17    16    15    2
    18    39    40    1
    19    73    72    2
    20    15    14    1
    21    29    30   ar
    22    28    30   ar
    23    43    40    1
    24    43    44    1
    25    13    14    1
    26    72    71    1
    27    40    41    1
    28    14    17    1
    29    46    44    1
    30    11    10    2
    31    44    45    1
    32    10     9    1
    33    47    41   am
    34    47    48    1
    35    41    42    2
    36    71    74    1
    37    71    70    1
    38    74    75    1
    39    17    18    1
    40    17    19    1
    41    53    51    1
    42    51    48    1
    43    51    52    1
    44    76    75   ar
    45    76    78   ar
    46    48    49    1
    47    75    77   ar
    48     9    12    1
    49     9     8    1
    50    49    50    2
    51     4     3    2
    52    88    86    1
    53    78    80   ar
    54     8     3   am
    55     1     2    1
    56     3     2    1
    57    85    86    1
    58    85    82    1
    59    77    79   ar
    60    81    82    1
    61     2     5    1
    62    86    87    1
    63   101   102   ar
    64   101    99   ar
    65   102   100   ar
    66    80    79   ar
    67    82    83    1
    68    61    59    1
    69    65    64    2
    70    54    55    1
    71    83    84    2
    72    99    96   ar
    73    59    58    1
    74     5     6    1
    75     5     7    1
    76   100    98   ar
    77    64    63    1
    78    58    55    1
    79    58    60    1
    80    55    56    1
    81    96    98   ar
    82    96    94   ar
    83    69    67    1
    84    98    97   ar
    85    67    68    1
    86    67    66    1
    87    63    66    1
    88    63    62    1
    89    56    57    2
    90    94    93    1
    91    94    95   ar
    92   160   159    1
    93    97    95   ar
    94   118   116    1
    95    93    90    1
    96   161   159    1
    97   126   125    1
    98   159   158    1
    99   117   116    1
   100    89    90    1
   101   116   115    1
   102    90    91    1
   103   144   143    1
   104    91    92    2
   105   125   124    1
   106   157   156    2
   107   153   151    1
   108   158   155    1
   109   151   150    1
   110   115   112    1
   111   124   123    1
   112   143   145    1
   113   143   142    2
   114   156   155    1
   115   155   154    1
   116   112   111    1
   117   112   113    1
   118   141   142    1
   119   141   140    1
   120   152   150    1
   121   150   147    1
   122   138   137    2
   123   123   120    1
   124   113   114    2
   125   147   146    1
   126   147   148    1
   127   139   140    1
   128   139   136    1
   129   137   146   am
   130   137   136    1
   131   149   148    2
   132   122   121    2
   133   120   121    1
   134   120   119    1
   135   103   104    1
   136   136   135    1
   137   107   104    1
   138   107   108    1
   139   104   105    1
   140   135   129   am
   141   105   106    2
   142   110   108   ar
   143   108   109   ar
   144   129   130    2
   145   129   128    1
   146   127   128    1
   147   128   131    1
   148   131   132    1
   149   132   134   ar
   150   132   133   ar
