@<TRIPOS>MOLECULE
tmp/4q2kD00.pdb
 165 160 0 0 0
SMALL
GASTEIGER

@<TRIPOS>ATOM
      1  N         56.3930  -16.3220   20.6890 N.3    36  PHE36      -0.1241
      2  CA        57.1600  -16.0040   21.8990 C.3    36  PHE36       0.1605
      3  C         58.1330  -17.1130   22.3170 C.2    36  PHE36       0.2264
      4  O         58.8830  -16.9540   23.2860 O.2    36  PHE36      -0.2867
      5  CB        56.2190  -15.6900   23.0620 C.3    36  PHE36       0.0534
      6  CG        55.2960  -16.8230   23.4220 C.ar   36  PHE36      -0.0203
      7  CD1       55.6780  -17.7860   24.3370 C.ar   36  PHE36      -0.0042
      8  CD2       54.0430  -16.9160   22.8520 C.ar   36  PHE36      -0.0042
      9  CE1       54.8310  -18.8140   24.6650 C.ar   36  PHE36      -0.0003
     10  CE2       53.1950  -17.9340   23.1780 C.ar   36  PHE36      -0.0003
     11  CZ        53.5860  -18.8860   24.0830 C.ar   36  PHE36      -0.0000
     12  N         59.7340  -21.8680   31.0810 N.3    52  HIS52      -0.1241
     13  CA        59.7340  -20.4270   31.3090 C.3    52  HIS52       0.1621
     14  C         58.9090  -19.6910   30.2590 C.2    52  HIS52       0.2264
     15  O         58.6160  -18.5040   30.4130 O.2    52  HIS52      -0.2867
     16  CB        61.1570  -19.8910   31.3740 C.3    52  HIS52       0.0745
     17  CG        61.7640  -19.5980   30.0410 C.ar   52  HIS52       0.0817
     18  ND1       62.7720  -20.3710   29.5000 N.ar   52  HIS52      -0.2268
     19  CD2       61.5400  -18.5980   29.1490 C.ar   52  HIS52       0.1154
     20  CE1       63.1250  -19.8730   28.3310 C.ar   52  HIS52       0.1986
     21  NE2       62.3890  -18.7970   28.0900 N.ar   52  HIS52      -0.2212
     22  N         62.6680  -23.9410   35.3400 N.3    89  ILE89      -0.1231
     23  CA        62.9590  -23.1820   36.5570 C.3    89  ILE89       0.1692
     24  C         62.2190  -23.7140   37.7880 C.2    89  ILE89       0.2592
     25  O         61.4920  -22.9680   38.4220 O.2    89  ILE89      -0.2718
     26  CB        62.6140  -21.7180   36.3460 C.3    89  ILE89       0.0266
     27  CG1       63.3660  -21.1590   35.1460 C.3    89  ILE89       0.0019
     28  CG2       62.9170  -20.9240   37.6130 C.3    89  ILE89       0.0020
     29  CD1       62.8160  -19.7650   34.8130 C.3    89  ILE89       0.0001
     30  N         62.4680  -24.9560   38.2020 N.am   90  ASN90      -0.1974
     31  CA        63.6330  -25.7070   37.7790 C.3    90  ASN90       0.1688
     32  C         63.2800  -26.8610   36.8620 C.2    90  ASN90       0.2292
     33  O         62.1650  -27.4010   36.8910 O.2    90  ASN90      -0.2864
     34  CB        64.4240  -26.1880   38.9900 C.3    90  ASN90       0.1181
     35  CG        65.2960  -25.0720   39.5860 C.2    90  ASN90       0.2629
     36  OD1       65.6770  -24.1250   38.8860 O.2    90  ASN90      -0.2716
     37  ND2       65.6130  -25.1870   40.8470 N.am   90  ASN90      -0.0877
     38  N         63.6900  -26.4350   33.1020 N.3    92  ASP92      -0.1239
     39  CA        62.9580  -25.6010   32.1900 C.3    92  ASP92       0.1674
     40  C         62.2930  -26.4660   31.1250 C.2    92  ASP92       0.2266
     41  O         62.6210  -26.3750   29.9500 O.2    92  ASP92      -0.2867
     42  CB        63.9100  -24.5880   31.5620 C.3    92  ASP92       0.1410
     43  CG        63.1780  -23.4480   30.9050 C.2    92  ASP92       0.3668
     44  OD1       63.7980  -22.7180   30.1170 O.co2  92  ASP92      -0.2456
     45  OD2       61.9760  -23.3010   31.1770 O.co2  92  ASP92      -0.2456
     46  N         79.7510  -20.4090   33.2770 N.3   159  TRP159     -0.1241
     47  CA        78.5200  -20.1400   34.0320 C.3   159  TRP159      0.1605
     48  C         78.5410  -20.4980   35.5240 C.2   159  TRP159      0.2264
     49  O         77.5910  -20.1830   36.2490 O.2   159  TRP159     -0.2867
     50  CB        77.3280  -20.8220   33.3560 C.3   159  TRP159      0.0550
     51  CG        76.9560  -20.2500   31.9960 C.ar  159  TRP159      0.0003
     52  CD1       77.0400  -20.8810   30.7780 C.ar  159  TRP159      0.0946
     53  CD2       76.4430  -18.9420   31.7300 C.ar  159  TRP159      0.0152
     54  NE1       76.6080  -20.0450   29.7840 N.ar  159  TRP159     -0.2442
     55  CE2       76.2320  -18.8500   30.3410 C.ar  159  TRP159      0.0810
     56  CE3       76.1320  -17.8380   32.5360 C.ar  159  TRP159      0.0012
     57  CZ2       75.7300  -17.6930   29.7400 C.ar  159  TRP159      0.0191
     58  CZ3       75.6270  -16.6990   31.9360 C.ar  159  TRP159      0.0001
     59  CH2       75.4360  -16.6340   30.5550 C.ar  159  TRP159      0.0015
     60  N         75.6670  -22.2680   38.2240 N.3   162  LYS162     -0.1245
     61  CA        74.3780  -22.2960   37.5250 C.3   162  LYS162      0.1561
     62  C         74.0720  -23.5890   36.7390 C.2   162  LYS162      0.2260
     63  O         72.9210  -24.0200   36.6590 O.2   162  LYS162     -0.2867
     64  CB        74.2730  -21.0990   36.5860 C.3   162  LYS162      0.0271
     65  CG        73.8890  -19.8180   37.2740 C.3   162  LYS162      0.0035
     66  CD        74.0820  -18.6570   36.3310 C.3   162  LYS162      0.0206
     67  CE        74.5840  -17.4430   37.0640 C.3   162  LYS162      0.1093
     68  NZ        73.5170  -16.8930   37.9210 N.3   162  LYS162     -0.1314
     69  N         70.9460  -29.9150   33.1200 N.3   167  MET167     -0.1245
     70  CA        71.1640  -29.0110   31.9810 C.3   167  MET167      0.1570
     71  C         72.3330  -29.4820   31.1270 C.2   167  MET167      0.2261
     72  O         73.2210  -30.1960   31.6150 O.2   167  MET167     -0.2867
     73  CB        71.4830  -27.5770   32.4270 C.3   167  MET167      0.0387
     74  CG        70.4730  -26.9000   33.3320 C.3   167  MET167      0.0595
     75  SD        71.1600  -25.3440   33.9900 S.3   167  MET167     -0.1393
     76  CE        69.9310  -24.9670   35.2350 C.3   167  MET167      0.0692
     77  N         75.1080  -18.9750   18.3200 N.3   176  SER176     -0.1202
     78  CA        74.4770  -18.9770   19.6280 C.3   176  SER176      0.2020
     79  C         72.9610  -18.9520   19.5220 C.2   176  SER176      0.2619
     80  O         72.4060  -18.3760   18.5940 O.2   176  SER176     -0.2717
     81  CB        74.9620  -17.7950   20.4690 C.3   176  SER176      0.2103
     82  OG        74.2710  -17.7740   21.7020 O.3   176  SER176     -0.2182
     83  N         72.2910  -19.5760   20.4800 N.am  177  SER177     -0.1937
     84  CA        70.8460  -19.4370   20.5860 C.3   177  SER177      0.2055
     85  C         70.6060  -18.0230   21.0920 C.2   177  SER177      0.2643
     86  O         71.5190  -17.3980   21.6120 O.2   177  SER177     -0.2714
     87  CB        70.2610  -20.4870   21.5450 C.3   177  SER177      0.2130
     88  OG        70.2750  -21.7810   20.9620 O.3   177  SER177     -0.2179
     89  N         69.3970  -17.5060   20.9260 N.am  178  CYS178     -0.1953
     90  CA        69.1330  -16.0960   21.2280 C.3   178  CYS178      0.1843
     91  C         67.6540  -15.9090   21.5420 C.2   178  CYS178      0.2625
     92  O         66.8830  -16.8560   21.4040 O.2   178  CYS178     -0.2714
     93  CB        69.5490  -15.2170   20.0420 C.3   178  CYS178      0.0997
     94  SG        70.0430  -13.4960   20.4510 S.3   178  CYS178     -0.0797
     95  N         67.2620  -14.7020   21.9640 N.am  179  MET179     -0.1963
     96  CA        65.8650  -14.4060   22.3060 C.3   179  MET179      0.1736
     97  C         64.9320  -14.8500   21.1910 C.2   179  MET179      0.2617
     98  O         65.2100  -14.5930   20.0210 O.2   179  MET179     -0.2715
     99  CB        65.6650  -12.9100   22.5770 C.3   179  MET179      0.0427
    100  CG        66.4810  -12.3760   23.7340 C.3   179  MET179      0.0599
    101  SD        68.1810  -12.0590   23.2210 S.3   179  MET179     -0.1393
    102  CE        68.9870  -12.0460   24.8280 C.3   179  MET179      0.0692
    103  N         63.8450  -15.5370   21.5480 N.am  180  GLY180     -0.1955
    104  CA        62.9410  -16.1080   20.5530 C.3   180  GLY180      0.1869
    105  C         63.1700  -17.5870   20.2620 C.2   180  GLY180      0.2309
    106  O         62.2550  -18.3080   19.8450 O.2   180  GLY180     -0.2863
    107  N         63.9190  -19.8150   22.5860 N.3   182  SER182     -0.1217
    108  CA        63.5410  -20.6080   23.7640 C.3   182  SER182      0.1889
    109  C         62.4630  -21.6810   23.5370 C.2   182  SER182      0.2288
    110  O         61.5290  -21.4920   22.7620 O.2   182  SER182     -0.2866
    111  CB        63.1300  -19.6880   24.9230 C.3   182  SER182      0.2089
    112  OG        64.2540  -18.9930   25.4490 O.3   182  SER182     -0.2183
    113  N         66.0500  -25.3750   24.3070 N.3   200  VAL200     -0.1231
    114  CA        66.6460  -24.0380   24.3950 C.3   200  VAL200      0.1692
    115  C         66.1370  -23.3720   25.6540 C.2   200  VAL200      0.2593
    116  O         64.9380  -23.2470   25.8430 O.2   200  VAL200     -0.2718
    117  CB        66.2980  -23.1450   23.1780 C.3   200  VAL200      0.0266
    118  CG1       67.1080  -21.8340   23.2160 C.3   200  VAL200      0.0020
    119  CG2       66.5400  -23.8770   21.8710 C.3   200  VAL200      0.0020
    120  N         67.0540  -23.0000   26.5390 N.am  201  SER201     -0.1938
    121  CA        66.6720  -22.4600   27.8310 C.3   201  SER201      0.2055
    122  C         67.2020  -21.0490   28.0390 C.2   201  SER201      0.2643
    123  O         66.4180  -20.1050   28.0840 O.2   201  SER201     -0.2714
    124  CB        67.1460  -23.3540   28.9690 C.3   201  SER201      0.2130
    125  OG        66.6190  -22.8990   30.2030 O.3   201  SER201     -0.2179
    126  N         68.5220  -20.9130   28.1680 N.am  202  TRP202     -0.1959
    127  CA        69.1220  -19.6220   28.5100 C.3   202  TRP202      0.1771
    128  C         70.5630  -19.4770   28.0400 C.2   202  TRP202      0.2620
    129  O         71.1300  -20.3990   27.4640 O.2   202  TRP202     -0.2715
    130  CB        68.9950  -19.3470   30.0100 C.3   202  TRP202      0.0590
    131  CG        69.6350  -20.3590   30.9240 C.ar  202  TRP202      0.0006
    132  CD1       69.0940  -21.5280   31.3620 C.ar  202  TRP202      0.0946
    133  CD2       70.9200  -20.2590   31.5420 C.ar  202  TRP202      0.0152
    134  NE1       69.9700  -22.1770   32.2030 N.ar  202  TRP202     -0.2442
    135  CE2       71.1010  -21.4190   32.3250 C.ar  202  TRP202      0.0810
    136  CE3       71.9440  -19.3150   31.4920 C.ar  202  TRP202      0.0012
    137  CZ2       72.2630  -21.6430   33.0700 C.ar  202  TRP202      0.0191
    138  CZ3       73.0930  -19.5400   32.2250 C.ar  202  TRP202      0.0001
    139  CH2       73.2440  -20.6950   33.0030 C.ar  202  TRP202      0.0015
    140  N         71.1430  -18.2980   28.2580 N.am  203  GLY203     -0.1940
    141  CA        72.4940  -18.0090   27.8070 C.3   203  GLY203      0.2014
    142  C         72.8090  -16.5240   27.8790 C.2   203  GLY203      0.2640
    143  O         72.0720  -15.7770   28.5240 O.2   203  GLY203     -0.2714
    144  N         73.9080  -16.1220   27.2340 N.am  204  SER204     -0.1935
    145  CA        74.3970  -14.7400   27.2240 C.3   204  SER204      0.2055
    146  C         73.3390  -13.6770   26.9400 C.2   204  SER204      0.2643
    147  O         72.5660  -13.7510   25.9770 O.2   204  SER204     -0.2714
    148  CB        75.5760  -14.5840   26.2480 C.3   204  SER204      0.2130
    149  OG        75.6730  -13.2580   25.7150 O.3   204  SER204     -0.2179
    150  N         73.3030  -12.6990   27.8290 N.am  205  SER205     -0.1949
    151  CA        72.4940  -11.4990   27.6780 C.3   205  SER205      0.1924
    152  C         72.5780  -10.8820   26.2900 C.2   205  SER205      0.2314
    153  O         71.6640  -10.1700   25.8860 O.2   205  SER205     -0.2863
    154  CB        72.9880  -10.4530   28.6680 C.3   205  SER205      0.2116
    155  OG        74.2470   -9.9690   28.2320 O.3   205  SER205     -0.2180
    156  N         73.7100  -12.8780   23.5220 N.3   207  CYS207     -0.1235
    157  CA        73.8440  -14.0030   22.5950 C.3   207  CYS207      0.1677
    158  C         75.2490  -14.1030   21.9930 C.2   207  CYS207      0.2270
    159  O         75.4140  -14.4720   20.8260 O.2   207  CYS207     -0.2867
    160  CB        72.7820  -13.9130   21.4940 C.3   207  CYS207      0.0956
    161  SG        71.1310  -13.6120   22.1700 S.3   207  CYS207     -0.0801
    162  N         75.4240  -21.6960   25.1400 N.3   213  GLY213     -0.1225
    163  CA        74.0220  -21.5490   25.4710 C.3   213  GLY213      0.1811
    164  C         73.6840  -22.7430   26.3370 C.2   213  GLY213      0.2280
    165  O         74.3600  -23.7700   26.2640 O.2   213  GLY213     -0.2866
@<TRIPOS>BOND
     1    77    78    1
     2    80    79    2
     3    79    78    1
     4    79    83   am
     5    78    81    1
     6   106   105    2
     7    98    97    2
     8    93    94    1
     9    93    90    1
    10   105   104    1
    11    94   161    1
    12    81    82    1
    13    83    84    1
    14   104   103    1
    15    84    85    1
    16    84    87    1
    17     1     2    1
    18   159   158    2
    19    89    85   am
    20    89    90    1
    21    88    87    1
    22    85    86    2
    23    97   103   am
    24    97    96    1
    25    90    91    1
    26    92    91    2
    27   160   161    1
    28   160   157    1
    29    91    95   am
    30   119   117    1
    31     2     3    1
    32     2     5    1
    33    95    96    1
    34   158   157    1
    35    96    99    1
    36     3     4    2
    37    99   100    1
    38   107   108    1
    39   157   156    1
    40   110   109    2
    41     8    10   ar
    42     8     6   ar
    43     5     6    1
    44    10    11   ar
    45   117   118    1
    46   117   114    1
    47   101   100    1
    48   101   102    1
    49     6     7   ar
    50   109   108    1
    51   108   111    1
    52    11     9   ar
    53   113   114    1
    54     7     9   ar
    55   114   115    1
    56   111   112    1
    57   162   163    1
    58   163   164    1
    59   115   116    2
    60   115   120   am
    61   149   148    1
    62   153   152    2
    63   147   146    2
    64   148   145    1
    65   165   164    2
    66   152   151    1
    67   120   121    1
    68   146   145    1
    69   146   150   am
    70   145   144    1
    71   144   142   am
    72   129   128    2
    73   151   150    1
    74   151   154    1
    75   141   142    1
    76   141   140    1
    77   121   122    1
    78   121   124    1
    79   142   143    2
    80   122   123    2
    81   122   126   am
    82   128   140   am
    83   128   127    1
    84    21    20   ar
    85    21    19   ar
    86   126   127    1
    87   155   154    1
    88    20    18   ar
    89   127   130    1
    90   124   125    1
    91    19    17   ar
    92    18    17   ar
    93    57    55   ar
    94    57    59   ar
    95    54    55   ar
    96    54    52   ar
    97    41    40    2
    98   130   131    1
    99    17    16    1
   100    44    43   ar
   101    14    15    2
   102    14    13    1
   103    55    53   ar
   104    59    58   ar
   105    52    51   ar
   106    43    45   ar
   107    43    42    1
   108   131   132   ar
   109   131   133   ar
   110    12    13    1
   111    40    39    1
   112    71    72    2
   113    71    70    1
   114    13    16    1
   115   132   134   ar
   116   136   133   ar
   117   136   138   ar
   118   133   135   ar
   119    42    39    1
   120    53    51   ar
   121    53    56   ar
   122    58    56   ar
   123    70    73    1
   124    70    69    1
   125    51    50    1
   126    39    38    1
   127   134   135   ar
   128   138   139   ar
   129   135   137   ar
   130    73    74    1
   131   139   137   ar
   132    46    47    1
   133    74    75    1
   134    50    47    1
   135    75    76    1
   136    47    48    1
   137    29    27    1
   138    27    26    1
   139    22    23    1
   140    48    49    2
   141    66    67    1
   142    66    65    1
   143    26    23    1
   144    26    28    1
   145    23    24    1
   146    64    65    1
   147    64    61    1
   148    63    62    2
   149    62    61    1
   150    32    33    2
   151    32    31    1
   152    67    68    1
   153    61    60    1
   154    31    30    1
   155    31    34    1
   156    24    30   am
   157    24    25    2
   158    36    35    2
   159    34    35    1
   160    35    37   am
