@<TRIPOS>MOLECULE
tmp/4q2tA00.pdb
 137 130 0 0 0
SMALL
GASTEIGER

@<TRIPOS>ATOM
      1  N         84.5380   57.3790  236.6650 N.3   127  ASP127     -0.1239
      2  CA        85.4220   58.3780  236.1180 C.3   127  ASP127      0.1674
      3  C         84.7920   59.6810  236.5220 C.2   127  ASP127      0.2266
      4  O         83.7830   60.0660  235.9540 O.2   127  ASP127     -0.2867
      5  CB        85.5140   58.1720  234.5820 C.3   127  ASP127      0.1410
      6  CG        86.3290   59.2380  233.8440 C.2   127  ASP127      0.3668
      7  OD1       86.1050   60.4630  234.0300 O.co2 127  ASP127     -0.2456
      8  OD2       87.1640   58.8280  233.0060 O.co2 127  ASP127     -0.2456
      9  N         85.1390   63.7670  238.8550 N.3   129  SER129     -0.1202
     10  CA        85.9140   64.9380  239.2240 C.3   129  SER129      0.2020
     11  C         86.7000   65.4220  238.0150 C.2   129  SER129      0.2619
     12  O         86.2170   66.2610  237.2610 O.2   129  SER129     -0.2717
     13  CB        86.8440   64.6380  240.4060 C.3   129  SER129      0.2103
     14  OG        87.3080   65.8430  240.9730 O.3   129  SER129     -0.2182
     15  N         87.9140   64.8940  237.8540 N.am  130  SER130     -0.1951
     16  CA        88.7650   65.1230  236.6770 C.3   130  SER130      0.1924
     17  C         88.9640   66.5870  236.3030 C.2   130  SER130      0.2314
     18  O         88.6540   66.9820  235.1720 O.2   130  SER130     -0.2863
     19  CB        88.1900   64.3760  235.4740 C.3   130  SER130      0.2116
     20  OG        87.8800   63.0390  235.8420 O.3   130  SER130     -0.2180
     21  N         91.2030   70.0680  235.3430 N.3   132  ASN132     -0.1240
     22  CA        92.3510   70.2580  234.4560 C.3   132  ASN132      0.1653
     23  C         93.5160   70.9030  235.2060 C.2   132  ASN132      0.2266
     24  O         93.3460   71.9420  235.8360 O.2   132  ASN132     -0.2867
     25  CB        91.9650   71.1200  233.2500 C.3   132  ASN132      0.1155
     26  CG        90.9100   70.4660  232.3700 C.2   132  ASN132      0.2627
     27  OD1       91.0500   69.3100  231.9330 O.2   132  ASN132     -0.2716
     28  ND2       89.8150   71.1910  232.1450 N.am  132  ASN132     -0.0877
     29  N         86.6250   73.9860  238.7920 N.3   138  HIS138     -0.1241
     30  CA        85.3910   74.7790  238.8710 C.3   138  HIS138      0.1621
     31  C         84.1710   73.9830  239.3370 C.2   138  HIS138      0.2264
     32  O         84.2690   72.7800  239.5610 O.2   138  HIS138     -0.2867
     33  CB        85.0960   75.3980  237.5110 C.3   138  HIS138      0.0745
     34  CG        84.9830   74.3980  236.4060 C.ar  138  HIS138      0.0817
     35  ND1       84.1720   73.2860  236.4870 N.ar  138  HIS138     -0.2268
     36  CD2       85.5520   74.3570  235.1780 C.ar  138  HIS138      0.1154
     37  CE1       84.2650   72.5910  235.3660 C.ar  138  HIS138      0.1986
     38  NE2       85.0880   73.2270  234.5520 N.ar  138  HIS138     -0.2212
     39  N         83.3400   70.5990  237.9480 N.3   141  HIS141     -0.1241
     40  CA        84.1190   69.5410  238.5940 C.3   141  HIS141      0.1621
     41  C         83.6120   69.1650  240.0040 C.2   141  HIS141      0.2264
     42  O         83.7540   68.0210  240.4440 O.2   141  HIS141     -0.2867
     43  CB        85.5810   69.9700  238.6830 C.3   141  HIS141      0.0745
     44  CG        86.2460   70.1650  237.3540 C.ar  141  HIS141      0.0817
     45  ND1       86.6800   71.3960  236.9160 N.ar  141  HIS141     -0.2268
     46  CD2       86.5840   69.2810  236.3860 C.ar  141  HIS141      0.1154
     47  CE1       87.2510   71.2670  235.7320 C.ar  141  HIS141      0.1986
     48  NE2       87.2110   69.9910  235.3890 N.ar  141  HIS141     -0.2212
     49  N         90.3240   61.2230  236.1570 N.3   167  HIS167     -0.1241
     50  CA        90.8110   61.3560  234.7810 C.3   167  HIS167      0.1621
     51  C         91.2920   62.7650  234.5320 C.2   167  HIS167      0.2264
     52  O         90.6920   63.4850  233.7650 O.2   167  HIS167     -0.2867
     53  CB        89.6920   61.0160  233.8060 C.3   167  HIS167      0.0745
     54  CG        90.1610   60.7520  232.4180 C.ar  167  HIS167      0.0817
     55  ND1       90.6070   59.5130  232.0110 N.ar  167  HIS167     -0.2268
     56  CD2       90.2510   61.5630  231.3360 C.ar  167  HIS167      0.1154
     57  CE1       90.9570   59.5750  230.7410 C.ar  167  HIS167      0.1986
     58  NE2       90.7540   60.8070  230.3100 N.ar  167  HIS167     -0.2212
     59  N         93.0480   66.3070  233.5700 N.3   169  GLY169     -0.1225
     60  CA        93.5550   66.9190  232.3630 C.3   169  GLY169      0.1811
     61  C         94.9850   67.3740  232.5430 C.2   169  GLY169      0.2280
     62  O         95.2470   68.5540  232.7240 O.2   169  GLY169     -0.2866
     63  N         95.3270   61.9220  231.6780 N.3   265  GLU265     -0.1245
     64  CA        95.4970   61.5820  230.2750 C.3   265  GLU265      0.1567
     65  C         96.9340   61.0980  229.9960 C.2   265  GLU265      0.2260
     66  O         97.1500   60.1970  229.1700 O.2   265  GLU265     -0.2867
     67  CB        95.1210   62.7860  229.3910 C.3   265  GLU265      0.0388
     68  CG        93.6310   63.0750  229.3740 C.3   265  GLU265      0.1160
     69  CD        93.2570   64.3260  228.5950 C.2   265  GLU265      0.3649
     70  OE1       92.7560   65.2850  229.2120 O.co2 265  GLU265     -0.2457
     71  OE2       93.4290   64.3640  227.3550 O.co2 265  GLU265     -0.2457
     72  N         92.3320   64.9120  223.2380 N.3   314  TYR314     -0.1241
     73  CA        91.2990   64.4300  224.1510 C.3   314  TYR314      0.1605
     74  C         90.5330   63.2230  223.5960 C.2   314  TYR314      0.2264
     75  O         90.1640   62.3290  224.3580 O.2   314  TYR314     -0.2867
     76  CB        90.3430   65.5850  224.4570 C.3   314  TYR314      0.0534
     77  CG        89.3530   65.3980  225.5950 C.ar  314  TYR314     -0.0201
     78  CD1       89.7760   65.1010  226.8970 C.ar  314  TYR314     -0.0009
     79  CD2       87.9920   65.5830  225.3780 C.ar  314  TYR314     -0.0009
     80  CE1       88.8500   64.9580  227.9430 C.ar  314  TYR314      0.0417
     81  CE2       87.0730   65.4390  226.3970 C.ar  314  TYR314      0.0417
     82  CZ        87.5010   65.1320  227.6750 C.ar  314  TYR314      0.1957
     83  OH        86.5640   65.0020  228.6620 O.3   314  TYR314     -0.2866
     84  N         90.7480   59.4530  225.3640 N.3   318  ASP318     -0.1239
     85  CA        89.5040   58.8060  225.7720 C.3   318  ASP318      0.1674
     86  C         89.4050   57.4530  225.0930 C.2   318  ASP318      0.2266
     87  O         88.9630   56.4740  225.6920 O.2   318  ASP318     -0.2867
     88  CB        88.2810   59.6800  225.4600 C.3   318  ASP318      0.1410
     89  CG        87.6660   60.3130  226.7350 C.2   318  ASP318      0.3668
     90  OD1       87.5370   59.6090  227.7700 O.co2 318  ASP318     -0.2456
     91  OD2       87.3110   61.5160  226.7130 O.co2 318  ASP318     -0.2456
     92  N         80.9490   57.2700  233.2810 N.3   336  TYR336     -0.1227
     93  CA        81.5940   58.5580  233.0510 C.3   336  TYR336      0.1736
     94  C         80.7520   59.6890  233.6340 C.2   336  TYR336      0.2595
     95  O         79.6630   59.9590  233.1460 O.2   336  TYR336     -0.2718
     96  CB        81.8200   58.7730  231.5460 C.3   336  TYR336      0.0548
     97  CG        82.8750   57.8670  230.9600 C.ar  336  TYR336     -0.0200
     98  CD1       82.5820   56.5510  230.6150 C.ar  336  TYR336     -0.0009
     99  CD2       84.1610   58.3290  230.7440 C.ar  336  TYR336     -0.0009
    100  CE1       83.5390   55.7170  230.0740 C.ar  336  TYR336      0.0417
    101  CE2       85.1300   57.5140  230.1840 C.ar  336  TYR336      0.0417
    102  CZ        84.8190   56.2080  229.8590 C.ar  336  TYR336      0.1957
    103  OH        85.8010   55.3990  229.3390 O.3   336  TYR336     -0.2866
    104  N         81.2240   60.3220  234.6980 N.am  337  VAL337     -0.1966
    105  CA        80.4670   61.3830  235.3400 C.3   337  VAL337      0.1727
    106  C         80.9780   62.7160  234.8400 C.2   337  VAL337      0.2616
    107  O         81.9170   63.2680  235.4070 O.2   337  VAL337     -0.2715
    108  CB        80.5750   61.3060  236.8860 C.3   337  VAL337      0.0290
    109  CG1       79.6200   62.3230  237.5800 C.3   337  VAL337      0.0023
    110  CG2       80.2620   59.9030  237.3400 C.3   337  VAL337      0.0023
    111  N         80.3890   63.2130  233.7550 N.am  338  VAL338     -0.1977
    112  CA        80.9030   64.4090  233.0760 C.3   338  VAL338      0.1596
    113  C         79.7620   65.3260  232.6850 C.2   338  VAL338      0.2287
    114  O         78.6250   64.8630  232.5500 O.2   338  VAL338     -0.2864
    115  CB        81.7100   64.0520  231.8080 C.3   338  VAL338      0.0276
    116  CG1       82.4530   65.2660  231.3080 C.3   338  VAL338      0.0022
    117  CG2       82.6840   62.9160  232.0930 C.3   338  VAL338      0.0022
    118  N         79.2970   67.3940  227.0690 N.3   342  GLN342     -0.1245
    119  CA        80.2330   66.4640  226.4460 C.3   342  GLN342      0.1566
    120  C         79.5310   65.1870  225.9920 C.2   342  GLN342      0.2260
    121  O         80.1840   64.1830  225.6630 O.2   342  GLN342     -0.2867
    122  CB        81.3810   66.1310  227.4200 C.3   342  GLN342      0.0367
    123  CG        82.1950   67.3510  227.8670 C.3   342  GLN342      0.0905
    124  CD        83.5250   66.9860  228.5110 C.2   342  GLN342      0.2608
    125  OE1       84.1620   66.0030  228.1290 O.2   342  GLN342     -0.2717
    126  NE2       83.9500   67.7800  229.4910 N.am  342  GLN342     -0.0878
    127  N         81.0570   61.7900  224.2890 N.3   346  PHE346     -0.1241
    128  CA        81.0910   60.4300  224.7850 C.3   346  PHE346      0.1605
    129  C         80.2700   59.4980  223.9260 C.2   346  PHE346      0.2264
    130  O         80.6660   58.3490  223.7310 O.2   346  PHE346     -0.2867
    131  CB        80.6430   60.3660  226.2520 C.3   346  PHE346      0.0534
    132  CG        81.6760   60.8800  227.1940 C.ar  346  PHE346     -0.0203
    133  CD1       82.7900   60.1160  227.4860 C.ar  346  PHE346     -0.0042
    134  CD2       81.5720   62.1540  227.7250 C.ar  346  PHE346     -0.0042
    135  CE1       83.7690   60.6070  228.3110 C.ar  346  PHE346     -0.0003
    136  CE2       82.5370   62.6460  228.5290 C.ar  346  PHE346     -0.0003
    137  CZ        83.6460   61.8690  228.8320 C.ar  346  PHE346     -0.0000
@<TRIPOS>BOND
     1    72    73    1
     2    74    73    1
     3    74    75    2
     4   130   129    2
     5   129   128    1
     6    73    76    1
     7   127   128    1
     8    76    77    1
     9   128   131    1
    10    86    87    2
    11    86    85    1
    12    84    85    1
    13    79    77   ar
    14    79    81   ar
    15    88    85    1
    16    88    89    1
    17    77    78   ar
    18   121   120    2
    19   120   119    1
    20   131   132    1
    21    81    82   ar
    22   119   118    1
    23   119   122    1
    24    91    89   ar
    25    89    90   ar
    26    78    80   ar
    27   132   133   ar
    28   132   134   ar
    29    71    69   ar
    30   122   123    1
    31   133   135   ar
    32    82    80   ar
    33    82    83    1
    34   134   136   ar
    35   123   124    1
    36   125   124    2
    37   135   137   ar
    38   124   126   am
    39   136   137   ar
    40    69    70   ar
    41    69    68    1
    42    66    65    2
    43   103   102    1
    44    68    67    1
    45    67    64    1
    46   102   100   ar
    47   102   101   ar
    48    65    64    1
    49   100    98   ar
    50   101    99   ar
    51    64    63    1
    52    58    57   ar
    53    58    56   ar
    54    98    97   ar
    55    57    55   ar
    56    99    97   ar
    57    97    96    1
    58   116   115    1
    59    56    54   ar
    60    96    93    1
    61   115   117    1
    62   115   112    1
    63    27    26    2
    64    55    54   ar
    65    28    26   am
    66    60    61    1
    67    60    59    1
    68    26    25    1
    69    54    53    1
    70    61    62    2
    71   114   113    2
    72   113   112    1
    73     8     6   ar
    74    93    92    1
    75    93    94    1
    76   112   111    1
    77    95    94    2
    78    25    22    1
    79    94   104   am
    80   111   106   am
    81    52    51    2
    82    53    50    1
    83     6     7   ar
    84     6     5    1
    85    22    23    1
    86    22    21    1
    87    51    50    1
    88    38    36   ar
    89    38    37   ar
    90     5     2    1
    91   104   105    1
    92    50    49    1
    93   106   105    1
    94   106   107    2
    95    18    17    2
    96    36    34   ar
    97    23    24    2
    98   105   108    1
    99    37    35   ar
   100    48    47   ar
   101    48    46   ar
   102    19    20    1
   103    19    16    1
   104    47    45   ar
   105     4     3    2
   106     2     3    1
   107     2     1    1
   108    17    16    1
   109    46    44   ar
   110    34    35   ar
   111    34    33    1
   112    16    15    1
   113   108   110    1
   114   108   109    1
   115    45    44   ar
   116    12    11    2
   117    44    43    1
   118    33    30    1
   119    15    11   am
   120    39    40    1
   121    11    10    1
   122    40    43    1
   123    40    41    1
   124    29    30    1
   125     9    10    1
   126    30    31    1
   127    10    13    1
   128    31    32    2
   129    41    42    2
   130    13    14    1
