@<TRIPOS>MOLECULE
tmp/4q2xB00.pdb
 138 130 0 0 0
SMALL
GASTEIGER

@<TRIPOS>ATOM
      1  N         64.9600   -4.2690 -113.8870 N.3   124  ASP124     -0.1239
      2  CA        64.1270   -5.3340 -114.4070 C.3   124  ASP124      0.1674
      3  C         64.7440   -6.6620 -114.0040 C.2   124  ASP124      0.2266
      4  O         65.7520   -7.1190 -114.5770 O.2   124  ASP124     -0.2867
      5  CB        64.0210   -5.2030 -115.9230 C.3   124  ASP124      0.1410
      6  CG        63.0900   -6.2180 -116.5410 C.2   124  ASP124      0.3668
      7  OD1       63.1980   -7.4420 -116.2510 O.co2 124  ASP124     -0.2456
      8  OD2       62.2520   -5.7910 -117.3690 O.co2 124  ASP124     -0.2456
      9  N         64.4200  -10.6180 -111.5660 N.3   126  SER126     -0.1202
     10  CA        63.7100  -11.8370 -111.2020 C.3   126  SER126      0.2020
     11  C         62.9910  -12.3430 -112.4400 C.2   126  SER126      0.2619
     12  O         63.5410  -13.1720 -113.1820 O.2   126  SER126     -0.2717
     13  CB        62.7420  -11.6010 -110.0410 C.3   126  SER126      0.2103
     14  OG        62.2990  -12.8390 -109.5090 O.3   126  SER126     -0.2182
     15  N         61.7730  -11.8330 -112.6490 N.am  127  SER127     -0.1951
     16  CA        60.9970  -12.0500 -113.8840 C.3   127  SER127      0.1924
     17  C         60.7820  -13.5010 -114.2760 C.2   127  SER127      0.2314
     18  O         61.1400  -13.8790 -115.3870 O.2   127  SER127     -0.2863
     19  CB        61.6940  -11.3530 -115.0590 C.3   127  SER127      0.2116
     20  OG        61.9920   -9.9950 -114.7540 O.3   127  SER127     -0.2180
     21  N         58.6060  -17.1020 -115.3150 N.3   129  ASN129     -0.1240
     22  CA        57.4610  -17.3460 -116.2110 C.3   129  ASN129      0.1653
     23  C         56.3510  -18.1280 -115.4950 C.2   129  ASN129      0.2266
     24  O         56.5840  -19.2490 -115.0300 O.2   129  ASN129     -0.2867
     25  CB        57.8990  -18.0920 -117.4850 C.3   129  ASN129      0.1155
     26  CG        58.8430  -17.2530 -118.3670 C.2   129  ASN129      0.2627
     27  OD1       58.5590  -16.0930 -118.6790 O.2   129  ASN129     -0.2716
     28  ND2       59.9720  -17.8420 -118.7660 N.am  129  ASN129     -0.0877
     29  N         63.0120  -21.1270 -111.6870 N.3   135  HIS135     -0.1241
     30  CA        64.2510  -21.8990 -111.7240 C.3   135  HIS135      0.1621
     31  C         65.4480  -21.0820 -111.2550 C.2   135  HIS135      0.2264
     32  O         65.3570  -19.8650 -111.1080 O.2   135  HIS135     -0.2867
     33  CB        64.5050  -22.4250 -113.1590 C.3   135  HIS135      0.0745
     34  CG        64.6560  -21.3440 -114.1930 C.ar  135  HIS135      0.0817
     35  ND1       65.8210  -20.6160 -114.3520 N.ar  135  HIS135     -0.2268
     36  CD2       63.7920  -20.8770 -115.1290 C.ar  135  HIS135      0.1154
     37  CE1       65.6610  -19.7380 -115.3270 C.ar  135  HIS135      0.1986
     38  NE2       64.4410  -19.8790 -115.8210 N.ar  135  HIS135     -0.2212
     39  N         66.2360  -17.7430 -112.6550 N.3   138  HIS138     -0.1241
     40  CA        65.3480  -16.7390 -112.0980 C.3   138  HIS138      0.1621
     41  C         65.8610  -16.3160 -110.7050 C.2   138  HIS138      0.2264
     42  O         65.6990  -15.1530 -110.3060 O.2   138  HIS138     -0.2867
     43  CB        63.9290  -17.2720 -111.9900 C.3   138  HIS138      0.0745
     44  CG        63.2030  -17.3760 -113.2980 C.ar  138  HIS138      0.0817
     45  ND1       62.4560  -18.4850 -113.6480 N.ar  138  HIS138     -0.2268
     46  CD2       63.0580  -16.4920 -114.3180 C.ar  138  HIS138      0.1154
     47  CE1       61.8930  -18.2840 -114.8250 C.ar  138  HIS138      0.1986
     48  NE2       62.2470  -17.0850 -115.2590 N.ar  138  HIS138     -0.2212
     49  N         59.2630   -8.3820 -114.2760 N.3   164  HIS164     -0.1241
     50  CA        58.8090   -8.5100 -115.6670 C.3   164  HIS164      0.1621
     51  C         58.3780   -9.9280 -115.9680 C.2   164  HIS164      0.2264
     52  O         59.1050  -10.6730 -116.6060 O.2   164  HIS164     -0.2867
     53  CB        59.9150   -8.1090 -116.6300 C.3   164  HIS164      0.0745
     54  CG        59.4340   -7.8680 -118.0270 C.ar  164  HIS164      0.0817
     55  ND1       59.0980   -6.6150 -118.4940 N.ar  164  HIS164     -0.2268
     56  CD2       59.2270   -8.7260 -119.0560 C.ar  164  HIS164      0.1154
     57  CE1       58.7080   -6.7090 -119.7560 C.ar  164  HIS164      0.1986
     58  NE2       58.7810   -7.9760 -120.1210 N.ar  164  HIS164     -0.2212
     59  N         56.6810  -13.4650 -117.2080 N.3   166  GLY166     -0.1225
     60  CA        56.1040  -14.0780 -118.3890 C.3   166  GLY166      0.1811
     61  C         54.6960  -14.5890 -118.1390 C.2   166  GLY166      0.2280
     62  O         54.4900  -15.8010 -117.9590 O.2   166  GLY166     -0.2866
     63  N         54.3210   -9.0580 -118.9520 N.3   262  GLU262     -0.1245
     64  CA        54.1740   -8.7410 -120.3650 C.3   262  GLU262      0.1567
     65  C         52.7510   -8.2640 -120.6890 C.2   262  GLU262      0.2260
     66  O         52.5540   -7.3520 -121.5220 O.2   262  GLU262     -0.2867
     67  CB        54.5510   -9.9560 -121.2170 C.3   262  GLU262      0.0388
     68  CG        56.0130  -10.3890 -121.0820 C.3   262  GLU262      0.1160
     69  CD        56.3700  -11.5810 -121.9630 C.2   262  GLU262      0.3649
     70  OE1       56.9020  -12.5840 -121.4250 O.co2 262  GLU262     -0.2457
     71  OE2       56.1030  -11.5270 -123.1930 O.co2 262  GLU262     -0.2457
     72  N         57.6380  -11.8820 -127.4540 N.3   311  TYR311     -0.1241
     73  CA        58.5890  -11.3790 -126.4670 C.3   311  TYR311      0.1605
     74  C         59.2190  -10.0650 -126.9790 C.2   311  TYR311      0.2264
     75  O         59.3370   -9.0750 -126.2210 O.2   311  TYR311     -0.2867
     76  CB        59.6580  -12.4490 -126.2250 C.3   311  TYR311      0.0534
     77  CG        60.4970  -12.3740 -124.9660 C.ar  311  TYR311     -0.0201
     78  CD1       59.9230  -12.2810 -123.6950 C.ar  311  TYR311     -0.0009
     79  CD2       61.8800  -12.4650 -125.0470 C.ar  311  TYR311     -0.0009
     80  CE1       60.7220  -12.2510 -122.5580 C.ar  311  TYR311      0.0417
     81  CE2       62.6740  -12.4310 -123.9140 C.ar  311  TYR311      0.0417
     82  CZ        62.0900  -12.3320 -122.6900 C.ar  311  TYR311      0.1957
     83  OH        62.9170  -12.3050 -121.6060 O.3   311  TYR311     -0.2866
     84  N         58.9270   -6.3580 -125.1980 N.3   315  ASP315     -0.1239
     85  CA        60.1250   -5.6400 -124.7310 C.3   315  ASP315      0.1674
     86  C         60.3260   -4.3160 -125.4570 C.2   315  ASP315      0.2266
     87  O         60.9380   -3.3820 -124.9150 O.2   315  ASP315     -0.2867
     88  CB        61.3790   -6.5040 -124.8890 C.3   315  ASP315      0.1410
     89  CG        61.6070   -7.4380 -123.6990 C.2   315  ASP315      0.3668
     90  OD1       61.0110   -8.5390 -123.6830 O.co2 315  ASP315     -0.2456
     91  OD2       62.3790   -7.0770 -122.7780 O.co2 315  ASP315     -0.2456
     92  N         68.4840   -4.2120 -117.1330 N.3   333  TYR333     -0.1241
     93  CA        67.8840   -5.5290 -117.3650 C.3   333  TYR333      0.1605
     94  C         68.7790   -6.5980 -116.7540 C.2   333  TYR333      0.2264
     95  O         69.9520   -6.7150 -117.1230 O.2   333  TYR333     -0.2867
     96  CB        67.6790   -5.7860 -118.8780 C.3   333  TYR333      0.0534
     97  CG        66.6540   -4.8630 -119.5120 C.ar  333  TYR333     -0.0201
     98  CD1       66.9980   -3.5620 -119.8630 C.ar  333  TYR333     -0.0009
     99  CD2       65.3540   -5.2920 -119.7580 C.ar  333  TYR333     -0.0009
    100  CE1       66.0870   -2.7110 -120.4090 C.ar  333  TYR333      0.0417
    101  CE2       64.4260   -4.4460 -120.3080 C.ar  333  TYR333      0.0417
    102  CZ        64.7980   -3.1470 -120.6320 C.ar  333  TYR333      0.1957
    103  OH        63.8950   -2.2710 -121.2060 O.3   333  TYR333     -0.2866
    104  N         69.0100  -10.1800 -116.8160 N.3   335  VAL335     -0.1231
    105  CA        68.5090  -11.3910 -117.4840 C.3   335  VAL335      0.1692
    106  C         69.6490  -12.2700 -117.9460 C.2   335  VAL335      0.2592
    107  O         70.7080  -11.7370 -118.2960 O.2   335  VAL335     -0.2718
    108  CB        67.6170  -11.0310 -118.6620 C.3   335  VAL335      0.0266
    109  CG1       67.1190  -12.2720 -119.3820 C.3   335  VAL335      0.0020
    110  CG2       66.4590  -10.1730 -118.1670 C.3   335  VAL335      0.0020
    111  N         69.4500  -13.5930 -117.9600 N.am  336  ASP336     -0.1974
    112  CA        70.5570  -14.5210 -118.2350 C.3   336  ASP336      0.1709
    113  C         71.2980  -14.1650 -119.5200 C.2   336  ASP336      0.2293
    114  O         70.7300  -13.5540 -120.4280 O.2   336  ASP336     -0.2864
    115  CB        70.0470  -15.9480 -118.3370 C.3   336  ASP336      0.1436
    116  CG        69.0440  -16.0930 -119.4220 C.2   336  ASP336      0.3671
    117  OD1       69.4600  -16.3080 -120.5900 O.co2 336  ASP336     -0.2456
    118  OD2       67.8440  -15.9120 -119.1110 O.co2 336  ASP336     -0.2456
    119  N         70.3510  -14.3340 -123.4330 N.3   339  GLN339     -0.1245
    120  CA        69.5380  -13.3830 -124.1460 C.3   339  GLN339      0.1566
    121  C         70.3120  -12.1060 -124.4070 C.2   339  GLN339      0.2260
    122  O         69.6950  -11.0710 -124.6380 O.2   339  GLN339     -0.2867
    123  CB        68.2570  -13.0870 -123.3570 C.3   339  GLN339      0.0367
    124  CG        67.4140  -14.3500 -123.0200 C.3   339  GLN339      0.0905
    125  CD        66.1620  -14.0600 -122.1700 C.2   339  GLN339      0.2608
    126  OE1       65.5580  -12.9840 -122.2670 O.2   339  GLN339     -0.2717
    127  NE2       65.7700  -15.0340 -121.3390 N.am  339  GLN339     -0.0878
    128  N         68.7350   -8.6850 -126.2940 N.3   343  PHE343     -0.1241
    129  CA        68.6720   -7.3250 -125.8030 C.3   343  PHE343      0.1605
    130  C         69.4750   -6.3490 -126.6490 C.2   343  PHE343      0.2264
    131  O         69.0630   -5.1840 -126.7620 O.2   343  PHE343     -0.2867
    132  CB        69.1340   -7.2660 -124.3400 C.3   343  PHE343      0.0534
    133  CG        68.1280   -7.8030 -123.3950 C.ar  343  PHE343     -0.0203
    134  CD1       67.0020   -7.0580 -123.0720 C.ar  343  PHE343     -0.0042
    135  CD2       68.2640   -9.0830 -122.8840 C.ar  343  PHE343     -0.0042
    136  CE1       66.0330   -7.5710 -122.2160 C.ar  343  PHE343     -0.0003
    137  CE2       67.3140   -9.6090 -122.0420 C.ar  343  PHE343     -0.0003
    138  CZ        66.1890   -8.8540 -121.6970 C.ar  343  PHE343     -0.0000
@<TRIPOS>BOND
     1    72    73    1
     2    74    73    1
     3    74    75    2
     4   131   130    2
     5   130   129    1
     6    73    76    1
     7   128   129    1
     8    76    77    1
     9   129   132    1
    10    86    87    2
    11    86    85    1
    12    84    85    1
    13    79    77   ar
    14    79    81   ar
    15    77    78   ar
    16    88    85    1
    17    88    89    1
    18   122   121    2
    19   121   120    1
    20   132   133    1
    21   120   119    1
    22   120   123    1
    23    81    82   ar
    24    89    90   ar
    25    89    91   ar
    26    78    80   ar
    27   133   134   ar
    28   133   135   ar
    29   123   124    1
    30    71    69   ar
    31   134   136   ar
    32   124   125    1
    33   135   137   ar
    34    82    80   ar
    35    82    83    1
    36   126   125    2
    37   136   138   ar
    38   125   127   am
    39   137   138   ar
    40    69    70   ar
    41    69    68    1
    42    66    65    2
    43    67    68    1
    44    67    64    1
    45   103   102    1
    46    65    64    1
    47   102   100   ar
    48   102   101   ar
    49   117   116   ar
    50   114   113    2
    51   100    98   ar
    52    64    63    1
    53   101    99   ar
    54    58    57   ar
    55    58    56   ar
    56    98    97   ar
    57    99    97   ar
    58    57    55   ar
    59   113   112    1
    60    97    96    1
    61   116   118   ar
    62   116   115    1
    63   109   108    1
    64    56    54   ar
    65    96    93    1
    66    28    26   am
    67    27    26    2
    68   108   110    1
    69   108   105    1
    70    55    54   ar
    71    60    61    1
    72    60    59    1
    73    26    25    1
    74   115   112    1
    75   107   106    2
    76   112   111    1
    77    61    62    2
    78    54    53    1
    79   111   106   am
    80   106   105    1
    81    25    22    1
    82   105   104    1
    83     8     6   ar
    84    93    92    1
    85    93    94    1
    86    95    94    2
    87    53    50    1
    88    52    51    2
    89     6     7   ar
    90     6     5    1
    91    22    23    1
    92    22    21    1
    93    51    50    1
    94     5     2    1
    95    38    37   ar
    96    38    36   ar
    97    50    49    1
    98    23    24    2
    99    18    17    2
   100    37    35   ar
   101    48    47   ar
   102    48    46   ar
   103    36    34   ar
   104    19    20    1
   105    19    16    1
   106    47    45   ar
   107     4     3    2
   108     2     3    1
   109     2     1    1
   110    35    34   ar
   111    46    44   ar
   112    17    16    1
   113    34    33    1
   114    16    15    1
   115    45    44   ar
   116    44    43    1
   117    12    11    2
   118    33    30    1
   119    39    40    1
   120    15    11   am
   121    11    10    1
   122    40    43    1
   123    40    41    1
   124    30    29    1
   125    30    31    1
   126     9    10    1
   127    31    32    2
   128    10    13    1
   129    41    42    2
   130    13    14    1
