@<TRIPOS>MOLECULE
tmp/4q32B00.pdb
 81 73 0 0 0
SMALL
GASTEIGER

@<TRIPOS>ATOM
      1  N         49.6770   -1.0540    6.1010 N.3   120  THR120     -0.1203
      2  CA        49.7100   -0.2370    7.3000 C.3   120  THR120      0.1994
      3  C         48.7310    0.9130    7.1220 C.2   120  THR120      0.2618
      4  O         48.2140    1.1300    6.0240 O.2   120  THR120     -0.2717
      5  CB        51.1210    0.3080    7.5860 C.3   120  THR120      0.1784
      6  OG1       51.1030    1.0890    8.7870 O.3   120  THR120     -0.2211
      7  CG2       51.5970    1.1710    6.4340 C.3   120  THR120      0.0376
      8  N         48.4710    1.6400    8.2030 N.am  121  ALA121     -0.1965
      9  CA        47.5830    2.7910    8.1470 C.3   121  ALA121      0.1728
     10  C         48.1200    3.8520    7.1880 C.2   121  ALA121      0.2616
     11  O         47.3690    4.4100    6.3930 O.2   121  ALA121     -0.2715
     12  CB        47.3910    3.3760    9.5320 C.3   121  ALA121      0.0334
     13  N         49.4230    4.1140    7.2580 N.am  122  HIS122     -0.1973
     14  CA        50.0570    5.1150    6.4040 C.3   122  HIS122      0.1656
     15  C         51.1570    4.5000    5.5420 C.2   122  HIS122      0.2291
     16  O         52.3040    4.3830    5.9700 O.2   122  HIS122     -0.2864
     17  CB        50.6340    6.2490    7.2520 C.3   122  HIS122      0.0771
     18  CG        51.0460    7.4490    6.4580 C.ar  122  HIS122      0.0820
     19  ND1       50.7150    7.6110    5.1300 N.ar  122  HIS122     -0.2267
     20  CD2       51.7580    8.5460    6.8060 C.ar  122  HIS122      0.1154
     21  CE1       51.2060    8.7570    4.6940 C.ar  122  HIS122      0.1986
     22  NE2       51.8430    9.3440    5.6910 N.ar  122  HIS122     -0.2212
     23  N         55.0430    6.0900    4.3260 N.3   125  SER125     -0.1217
     24  CA        55.9150    6.3390    5.4630 C.3   125  SER125      0.1889
     25  C         57.3070    5.7830    5.2030 C.2   125  SER125      0.2288
     26  O         57.5000    4.9690    4.3000 O.2   125  SER125     -0.2866
     27  CB        55.3330    5.7150    6.7310 C.3   125  SER125      0.2089
     28  OG        55.3070    4.3020    6.6300 O.3   125  SER125     -0.2183
     29  N         35.8560    1.9860    9.3700 N.3   176  CYS176     -0.1235
     30  CA        36.9560    2.9350    9.5290 C.3   176  CYS176      0.1677
     31  C         36.5130    4.2770   10.1090 C.2   176  CYS176      0.2270
     32  O         35.4820    4.8290    9.7150 O.2   176  CYS176     -0.2867
     33  CB        37.6390    3.1660    8.1810 C.3   176  CYS176      0.0956
     34  SG        38.8530    4.4980    8.1830 S.3   176  CYS176     -0.0801
     35  N         39.1850    6.6730   10.6510 N.3   178  THR178     -0.1218
     36  CA        40.4120    7.4400   10.4490 C.3   178  THR178      0.1862
     37  C         40.1450    8.8860   10.0220 C.2   178  THR178      0.2287
     38  O         40.7730    9.8160   10.5280 O.2   178  THR178     -0.2866
     39  CB        41.3180    6.7620    9.3950 C.3   178  THR178      0.1770
     40  OG1       41.6270    5.4270    9.8190 O.3   178  THR178     -0.2211
     41  CG2       42.6140    7.5440    9.1990 C.3   178  THR178      0.0375
     42  N         40.5710   -3.4730   11.9450 N.3   259  MET259     -0.1230
     43  CA        41.8910   -3.9070   12.3710 C.3   259  MET259      0.1702
     44  C         42.4810   -2.9150   13.3640 C.2   259  MET259      0.2592
     45  O         43.3050   -3.2750   14.2050 O.2   259  MET259     -0.2718
     46  CB        42.8150   -4.0680   11.1660 C.3   259  MET259      0.0401
     47  CG        43.6390   -5.3330   11.2100 C.3   259  MET259      0.0596
     48  SD        42.5940   -6.7750   11.4690 S.3   259  MET259     -0.1393
     49  CE        43.8350   -8.0540   11.6220 C.3   259  MET259      0.0692
     50  N         42.0480   -1.6620   13.2590 N.am  260  GLY260     -0.1957
     51  CA        42.4970   -0.6120   14.1530 C.3   260  GLY260      0.1869
     52  C         41.4890   -0.3240   15.2490 C.2   260  GLY260      0.2309
     53  O         41.5890    0.6890   15.9410 O.2   260  GLY260     -0.2863
     54  N         43.0580   -4.8330   18.5310 N.3   265  MET265     -0.1245
     55  CA        44.3190   -4.4440   19.1580 C.3   265  MET265      0.1570
     56  C         44.6670   -5.3180   20.3670 C.2   265  MET265      0.2261
     57  O         45.8370   -5.6170   20.6050 O.2   265  MET265     -0.2867
     58  CB        44.2730   -2.9700   19.5800 C.3   265  MET265      0.0387
     59  CG        44.3830   -1.9690   18.4300 C.3   265  MET265      0.0595
     60  SD        44.1870   -0.2780   19.0220 S.3   265  MET265     -0.1393
     61  CE        44.5000    0.6730   17.5260 C.3   265  MET265      0.0692
     62  N         46.3590   -8.6100   19.5350 N.3   268  GLY268     -0.1225
     63  CA        47.7740   -8.4740   19.2420 C.3   268  GLY268      0.1811
     64  C         48.0230   -8.1000   17.7940 C.2   268  GLY268      0.2280
     65  O         48.2480   -8.9680   16.9520 O.2   268  GLY268     -0.2866
     66  N         45.2300    4.7260   20.5240 N.3   269  VAL269     -0.1245
     67  CA        43.9850    5.3300   20.0570 C.3   269  VAL269      0.1561
     68  C         43.4370    4.5980   18.8330 C.2   269  VAL269      0.2260
     69  O         44.1250    4.4780   17.8190 O.2   269  VAL269     -0.2867
     70  CB        44.1800    6.8210   19.7210 C.3   269  VAL269      0.0252
     71  CG1       42.9500    7.3840   19.0210 C.3   269  VAL269      0.0019
     72  CG2       44.4830    7.5990   20.9850 C.3   269  VAL269      0.0019
     73  N         41.1930    3.4820   15.4800 N.3   271  GLU271     -0.1245
     74  CA        40.7070    4.0920   14.2470 C.3   271  GLU271      0.1567
     75  C         39.7120    3.1620   13.5490 C.2   271  GLU271      0.2260
     76  O         39.5720    3.1810   12.3270 O.2   271  GLU271     -0.2867
     77  CB        41.8760    4.4390   13.3160 C.3   271  GLU271      0.0388
     78  CG        42.8820    5.4100   13.9380 C.3   271  GLU271      0.1160
     79  CD        43.9220    5.9220   12.9540 C.2   271  GLU271      0.3649
     80  OE1       43.7060    5.8080   11.7270 O.co2 271  GLU271     -0.2457
     81  OE2       44.9590    6.4440   13.4170 O.co2 271  GLU271     -0.2457
@<TRIPOS>BOND
     1    26    25    2
     2    23    24    1
     3    21    19   ar
     4    21    22   ar
     5    19    18   ar
     6    25    24    1
     7    24    27    1
     8    15    16    2
     9    15    14    1
    10    22    20   ar
    11     4     3    2
    12     1     2    1
    13    11    10    2
    14    14    17    1
    15    14    13    1
    16     7     5    1
    17    18    20   ar
    18    18    17    1
    19    28    27    1
    20     3     2    1
    21     3     8   am
    22    10    13   am
    23    10     9    1
    24     2     5    1
    25     5     6    1
    26     9     8    1
    27     9    12    1
    28    33    34    1
    29    33    30    1
    30    41    39    1
    31    29    30    1
    32    39    40    1
    33    39    36    1
    34    30    31    1
    35    32    31    2
    36    37    36    1
    37    37    38    2
    38    36    35    1
    39    46    47    1
    40    46    43    1
    41    47    48    1
    42    48    49    1
    43    80    79   ar
    44    42    43    1
    45    76    75    2
    46    43    44    1
    47    79    81   ar
    48    79    78    1
    49    50    44   am
    50    50    51    1
    51    77    78    1
    52    77    74    1
    53    44    45    2
    54    75    74    1
    55    51    52    1
    56    74    73    1
    57    52    53    2
    58    65    64    2
    59    61    60    1
    60    64    63    1
    61    69    68    2
    62    59    60    1
    63    59    58    1
    64    54    55    1
    65    68    67    1
    66    71    70    1
    67    55    58    1
    68    55    56    1
    69    63    62    1
    70    70    67    1
    71    70    72    1
    72    67    66    1
    73    56    57    2
