@<TRIPOS>MOLECULE
tmp/4q33G02.pdb
 113 105 0 0 0
SMALL
GASTEIGER

@<TRIPOS>ATOM
      1  N         28.7830  -20.8870   54.4500 N.3    71  LYS71      -0.1245
      2  CA        30.1720  -21.2590   54.2160 C.3    71  LYS71       0.1561
      3  C         31.1500  -20.4760   55.0850 C.2    71  LYS71       0.2260
      4  O         32.3630  -20.5710   54.8990 O.2    71  LYS71      -0.2867
      5  CB        30.5220  -21.0510   52.7440 C.3    71  LYS71       0.0271
      6  CG        30.0280  -19.7210   52.2050 C.3    71  LYS71       0.0035
      7  CD        30.8780  -19.2230   51.0530 C.3    71  LYS71       0.0206
      8  CE        30.4830  -17.8070   50.6720 C.3    71  LYS71       0.1093
      9  NZ        30.4980  -16.9010   51.8540 N.3    71  LYS71      -0.1314
     10  N         27.6210  -19.3440   46.2780 N.3   121  ASP121     -0.1225
     11  CA        27.1610  -18.0800   46.8190 C.3   121  ASP121      0.1805
     12  C         28.1300  -16.9560   46.5560 C.2   121  ASP121      0.2598
     13  O         29.0860  -16.7590   47.2890 O.2   121  ASP121     -0.2718
     14  CB        26.9430  -18.2070   48.3120 C.3   121  ASP121      0.1424
     15  CG        25.4910  -18.2330   48.6840 C.2   121  ASP121      0.3668
     16  OD1       25.1750  -17.6850   49.7560 O.co2 121  ASP121     -0.2456
     17  OD2       24.6680  -18.7760   47.9150 O.co2 121  ASP121     -0.2456
     18  N         27.8870  -16.2110   45.4910 N.am  122  THR122     -0.1939
     19  CA        28.7270  -15.0630   45.2110 C.3   122  THR122      0.2028
     20  C         27.8930  -13.8420   44.8670 C.2   122  THR122      0.2642
     21  O         26.6910  -13.9370   44.6230 O.2   122  THR122     -0.2714
     22  CB        29.7310  -15.4080   44.1060 C.3   122  THR122      0.1808
     23  OG1       29.4600  -14.6690   42.9060 O.3   122  THR122     -0.2208
     24  CG2       29.6830  -16.9240   43.8510 C.3   122  THR122      0.0379
     25  N         28.5400  -12.6870   44.8860 N.am  123  ALA123     -0.1963
     26  CA        27.8350  -11.4380   44.6740 C.3   123  ALA123      0.1728
     27  C         27.5140  -11.2750   43.2010 C.2   123  ALA123      0.2616
     28  O         26.4680  -10.7470   42.8360 O.2   123  ALA123     -0.2715
     29  CB        28.6570  -10.2610   45.1800 C.3   123  ALA123      0.0334
     30  N         28.4210  -11.7420   42.3550 N.am  124  HIS124     -0.1973
     31  CA        28.2270  -11.6560   40.9180 C.3   124  HIS124      0.1656
     32  C         28.2920  -13.0310   40.2830 C.2   124  HIS124      0.2291
     33  O         29.3690  -13.5460   39.9950 O.2   124  HIS124     -0.2864
     34  CB        29.2750  -10.7420   40.3000 C.3   124  HIS124      0.0771
     35  CG        28.9580  -10.3120   38.9070 C.ar  124  HIS124      0.0820
     36  ND1       27.6720  -10.2740   38.4100 N.ar  124  HIS124     -0.2267
     37  CD2       29.7630   -9.8960   37.9020 C.ar  124  HIS124      0.1154
     38  CE1       27.7000   -9.8500   37.1610 C.ar  124  HIS124      0.1986
     39  NE2       28.9570   -9.6130   36.8280 N.ar  124  HIS124     -0.2212
     40  N         29.8510  -14.1410   36.2640 N.3   127  SER127     -0.1217
     41  CA        31.2750  -13.8260   36.1870 C.3   127  SER127      0.1889
     42  C         32.0970  -15.0510   35.7890 C.2   127  SER127      0.2288
     43  O         31.5900  -16.1720   35.7810 O.2   127  SER127     -0.2866
     44  CB        31.7720  -13.2660   37.5210 C.3   127  SER127      0.2089
     45  OG        31.4620  -14.1410   38.5910 O.3   127  SER127     -0.2183
     46  N         24.9380  -15.1540   42.2850 N.3   150  ASN150     -0.1240
     47  CA        23.5950  -14.6130   42.1170 C.3   150  ASN150      0.1653
     48  C         23.4950  -13.7880   40.8390 C.2   150  ASN150      0.2266
     49  O         24.4380  -13.0970   40.4640 O.2   150  ASN150     -0.2867
     50  CB        23.2120  -13.7580   43.3240 C.3   150  ASN150      0.1155
     51  CG        22.2630  -14.4690   44.2660 C.2   150  ASN150      0.2627
     52  OD1       22.2910  -15.6920   44.3890 O.2   150  ASN150     -0.2716
     53  ND2       21.4090  -13.7030   44.9300 N.am  150  ASN150     -0.0877
     54  N         21.0420   -5.2690   52.4060 N.3   178  CYS178     -0.1235
     55  CA        21.9130   -5.0590   51.2520 C.3   178  CYS178      0.1677
     56  C         22.1090   -3.5840   50.9020 C.2   178  CYS178      0.2270
     57  O         21.1530   -2.8090   50.8810 O.2   178  CYS178     -0.2867
     58  CB        21.3570   -5.8020   50.0380 C.3   178  CYS178      0.0956
     59  SG        22.2950   -5.5330   48.5260 S.3   178  CYS178     -0.0801
     60  N         24.3990   -2.9260   48.1790 N.3   180  THR180     -0.1218
     61  CA        25.0350   -3.0430   46.8660 C.3   180  THR180      0.1862
     62  C         24.5450   -1.9920   45.8670 C.2   180  THR180      0.2287
     63  O         25.3490   -1.3430   45.1960 O.2   180  THR180     -0.2866
     64  CB        24.8120   -4.4480   46.2660 C.3   180  THR180      0.1770
     65  OG1       25.5370   -5.4180   47.0320 O.3   180  THR180     -0.2211
     66  CG2       25.2860   -4.5040   44.8210 C.3   180  THR180      0.0375
     67  N         26.3390  -10.9260   54.7650 N.3   261  MET261     -0.1230
     68  CA        27.5850  -11.6790   54.6660 C.3   261  MET261      0.1702
     69  C         28.7280  -10.8160   54.1460 C.2   261  MET261      0.2592
     70  O         29.8990  -11.1130   54.3800 O.2   261  MET261     -0.2718
     71  CB        27.3970  -12.8980   53.7610 C.3   261  MET261      0.0401
     72  CG        26.4390  -13.9360   54.3170 C.3   261  MET261      0.0596
     73  SD        27.1140  -14.8030   55.7480 S.3   261  MET261     -0.1393
     74  CE        28.3280  -15.8590   54.9620 C.3   261  MET261      0.0692
     75  N         28.3840   -9.7490   53.4350 N.am  262  GLY262     -0.1957
     76  CA        29.3780   -8.8350   52.9080 C.3   262  GLY262      0.1869
     77  C         29.5420   -7.6160   53.7880 C.2   262  GLY262      0.2309
     78  O         30.3230   -6.7190   53.4770 O.2   262  GLY262     -0.2863
     79  N         32.6310  -10.4660   57.6330 N.3   267  MET267     -0.1245
     80  CA        33.8850  -10.8010   56.9740 C.3   267  MET267      0.1570
     81  C         35.0630  -10.6700   57.9350 C.2   267  MET267      0.2261
     82  O         36.1410  -10.2090   57.5610 O.2   267  MET267     -0.2867
     83  CB        34.0920   -9.9150   55.7430 C.3   267  MET267      0.0387
     84  CG        33.0100  -10.0820   54.6850 C.3   267  MET267      0.0595
     85  SD        33.4080   -9.2920   53.1120 S.3   267  MET267     -0.1393
     86  CE        33.5310   -7.5760   53.6100 C.3   267  MET267      0.0692
     87  N         37.8070   -5.6050   49.5590 N.3   270  PHE270     -0.1227
     88  CA        36.5540   -5.0370   49.0810 C.3   270  PHE270      0.1736
     89  C         35.7310   -4.3970   50.1980 C.2   270  PHE270      0.2595
     90  O         35.5380   -4.9840   51.2660 O.2   270  PHE270     -0.2718
     91  CB        35.7250   -6.1140   48.3750 C.3   270  PHE270      0.0547
     92  CG        36.4200   -6.7500   47.2000 C.ar  270  PHE270     -0.0202
     93  CD1       37.5770   -6.2000   46.6710 C.ar  270  PHE270     -0.0042
     94  CD2       35.9040   -7.8940   46.6180 C.ar  270  PHE270     -0.0042
     95  CE1       38.2120   -6.7830   45.5960 C.ar  270  PHE270     -0.0003
     96  CE2       36.5310   -8.4800   45.5400 C.ar  270  PHE270     -0.0003
     97  CZ        37.6890   -7.9240   45.0270 C.ar  270  PHE270     -0.0000
     98  N         35.2550   -3.1840   49.9290 N.am  271  VAL271     -0.1980
     99  CA        34.3720   -2.4590   50.8370 C.3   271  VAL271      0.1595
    100  C         33.0680   -3.2110   51.0750 C.2   271  VAL271      0.2287
    101  O         32.5600   -3.8660   50.1700 O.2   271  VAL271     -0.2864
    102  CB        34.0140   -1.0580   50.2880 C.3   271  VAL271      0.0276
    103  CG1       35.2320   -0.1640   50.2340 C.3   271  VAL271      0.0022
    104  CG2       33.3700   -1.1780   48.9270 C.3   271  VAL271      0.0022
    105  N         29.2310   -4.3810   51.4370 N.3   273  GLU273     -0.1245
    106  CA        28.0250   -4.2060   50.6360 C.3   273  GLU273      0.1567
    107  C         26.7950   -4.6730   51.4180 C.2   273  GLU273      0.2260
    108  O         25.7620   -5.0080   50.8360 O.2   273  GLU273     -0.2867
    109  CB        28.1350   -4.9670   49.3100 C.3   273  GLU273      0.0388
    110  CG        29.0810   -4.3420   48.2880 C.3   273  GLU273      0.1160
    111  CD        28.9280   -4.9660   46.9120 C.2   273  GLU273      0.3649
    112  OE1       28.6040   -6.1700   46.8460 O.co2 273  GLU273     -0.2457
    113  OE2       29.1170   -4.2560   45.9010 O.co2 273  GLU273     -0.2457
@<TRIPOS>BOND
     1    43    42    2
     2    42    41    1
     3    41    40    1
     4    41    44    1
     5    39    38   ar
     6    39    37   ar
     7    38    36   ar
     8    44    45    1
     9    37    35   ar
    10    36    35   ar
    11    35    34    1
    12    33    32    2
    13    32    31    1
    14    34    31    1
    15    49    48    2
    16    48    47    1
    17    31    30    1
    18    47    46    1
    19    47    50    1
    20    30    27   am
    21    28    27    2
    22    23    22    1
    23    27    26    1
    24    50    51    1
    25    24    22    1
    26    22    19    1
    27    51    52    2
    28    51    53   am
    29    21    20    2
    30    26    25    1
    31    26    29    1
    32    66    64    1
    33    20    25   am
    34    20    19    1
    35    97    96   ar
    36    97    95   ar
    37    63    62    2
    38    19    18    1
    39    18    12   am
    40    96    94   ar
    41    95    93   ar
    42    62    61    1
    43   113   111   ar
    44    64    61    1
    45    64    65    1
    46    10    11    1
    47    12    11    1
    48    12    13    2
    49    94    92   ar
    50    93    92   ar
    51    11    14    1
    52   112   111   ar
    53    61    60    1
    54   111   110    1
    55    92    91    1
    56    17    15   ar
    57   110   109    1
    58    14    15    1
    59    91    88    1
    60    59    58    1
    61    15    16   ar
    62   104   102    1
    63    88    87    1
    64    88    89    1
    65   109   106    1
    66    98    89   am
    67    98    99    1
    68    58    55    1
    69   101   100    2
    70    89    90    2
    71   103   102    1
    72   102    99    1
    73   106   107    1
    74   106   105    1
    75     8     7    1
    76     8     9    1
    77   108   107    2
    78    99   100    1
    79    57    56    2
    80    56    55    1
    81     7     6    1
    82    55    54    1
    83     6     5    1
    84     5     2    1
    85    76    75    1
    86    76    77    1
    87    85    86    1
    88    85    84    1
    89    75    69   am
    90    78    77    2
    91    71    72    1
    92    71    68    1
    93    69    70    2
    94    69    68    1
    95     2     1    1
    96     2     3    1
    97    72    73    1
    98    68    67    1
    99    84    83    1
   100     4     3    2
   101    74    73    1
   102    83    80    1
   103    80    79    1
   104    80    81    1
   105    82    81    2
