@<TRIPOS>MOLECULE
tmp/4q35A04.pdb
 126 120 0 0 0
SMALL
GASTEIGER

@<TRIPOS>ATOM
      1  N         53.9150   33.6540   -2.4710 N.3   626  VAL626     -0.1245
      2  CA        55.3140   34.0660   -2.5450 C.3   626  VAL626      0.1561
      3  C         55.6040   34.8730   -1.2930 C.2   626  VAL626      0.2260
      4  O         54.7740   35.6720   -0.8630 O.2   626  VAL626     -0.2867
      5  CB        55.6010   34.9630   -3.7720 C.3   626  VAL626      0.0252
      6  CG1       57.0750   35.2770   -3.8640 C.3   626  VAL626      0.0019
      7  CG2       55.1350   34.2910   -5.0470 C.3   626  VAL626      0.0019
      8  N         59.0470   36.9210    0.7550 N.3   628  LEU628     -0.1245
      9  CA        60.4440   37.2510    0.9390 C.3   628  LEU628      0.1561
     10  C         60.6030   37.6650    2.3810 C.2   628  LEU628      0.2260
     11  O         59.7160   38.3080    2.9490 O.2   628  LEU628     -0.2867
     12  CB        60.8770   38.4110    0.0540 C.3   628  LEU628      0.0270
     13  CG        60.6500   38.3340   -1.4500 C.3   628  LEU628      0.0019
     14  CD1       61.1800   39.6140   -2.1010 C.3   628  LEU628      0.0001
     15  CD2       61.3080   37.0970   -2.0450 C.3   628  LEU628      0.0001
     16  N         63.4400   33.2780    0.5090 N.3   661  ALA661     -0.1231
     17  CA        62.3950   33.3950   -0.4760 C.3   661  ALA661      0.1694
     18  C         61.6910   32.0670   -0.5040 C.2   661  ALA661      0.2592
     19  O         62.3280   31.0110   -0.4570 O.2   661  ALA661     -0.2718
     20  CB        62.9820   33.7390   -1.8740 C.3   661  ALA661      0.0304
     21  N         60.3660   32.1290   -0.5670 N.am  662  VAL662     -0.1966
     22  CA        59.5510   30.9460   -0.5240 C.3   662  VAL662      0.1727
     23  C         58.4510   31.1330   -1.5430 C.2   662  VAL662      0.2616
     24  O         57.8460   32.1840   -1.5840 O.2   662  VAL662     -0.2715
     25  CB        58.8710   30.7960    0.8650 C.3   662  VAL662      0.0290
     26  CG1       58.1150   29.4940    0.9410 C.3   662  VAL662      0.0023
     27  CG2       59.8820   30.8770    1.9870 C.3   662  VAL662      0.0023
     28  N         58.1780   30.1230   -2.3640 N.am  663  ALA663     -0.1977
     29  CA        57.0840   30.2470   -3.3230 C.3   663  ALA663      0.1597
     30  C         56.4190   28.9190   -3.6730 C.2   663  ALA663      0.2287
     31  O         57.0480   27.8700   -3.6740 O.2   663  ALA663     -0.2864
     32  CB        57.5580   30.9450   -4.5810 C.3   663  ALA663      0.0319
     33  N         59.0920   25.8300   -3.5000 N.3   675  GLY675     -0.1210
     34  CA        60.5200   26.0070   -3.3430 C.3   675  GLY675      0.1956
     35  C         60.8040   27.0200   -2.2570 C.2   675  GLY675      0.2612
     36  O         59.9560   27.8520   -1.9330 O.2   675  GLY675     -0.2717
     37  N         61.9910   26.9110   -1.6740 N.am  676  ALA676     -0.1965
     38  CA        62.4540   27.8280   -0.6570 C.3   676  ALA676      0.1728
     39  C         63.9670   27.9110   -0.7600 C.2   676  ALA676      0.2616
     40  O         64.6420   26.9000   -0.9940 O.2   676  ALA676     -0.2715
     41  CB        62.0460   27.3520    0.7280 C.3   676  ALA676      0.0334
     42  N         64.4920   29.1110   -0.5610 N.am  677  TYR677     -0.1974
     43  CA        65.9240   29.3470   -0.6070 C.3   677  TYR677      0.1639
     44  C         66.2560   30.3370    0.4810 C.2   677  TYR677      0.2290
     45  O         65.5960   31.3600    0.6190 O.2   677  TYR677     -0.2864
     46  CB        66.3400   29.9000   -1.9780 C.3   677  TYR677      0.0560
     47  CG        67.8340   29.9330   -2.1910 C.ar  677  TYR677     -0.0198
     48  CD1       68.5040   28.8420   -2.7310 C.ar  677  TYR677     -0.0009
     49  CD2       68.5790   31.0550   -1.8520 C.ar  677  TYR677     -0.0009
     50  CE1       69.8740   28.8650   -2.9180 C.ar  677  TYR677      0.0417
     51  CE2       69.9490   31.0860   -2.0420 C.ar  677  TYR677      0.0417
     52  CZ        70.5890   29.9880   -2.5770 C.ar  677  TYR677      0.1957
     53  OH        71.9510   30.0210   -2.7590 O.3   677  TYR677     -0.2866
     54  N         74.5640   29.5710    1.0610 N.3   686  GLN686     -0.1245
     55  CA        73.2640   28.9850    1.2890 C.3   686  GLN686      0.1566
     56  C         73.1570   28.5130    2.7410 C.2   686  GLN686      0.2260
     57  O         74.0720   27.8710    3.2450 O.2   686  GLN686     -0.2867
     58  CB        73.1790   27.7590    0.4010 C.3   686  GLN686      0.0367
     59  CG        71.9420   27.6040   -0.4070 C.3   686  GLN686      0.0905
     60  CD        71.8600   26.2070   -0.9840 C.2   686  GLN686      0.2608
     61  OE1       71.6110   25.2440   -0.2570 O.2   686  GLN686     -0.2717
     62  NE2       72.0980   26.0830   -2.2830 N.am  686  GLN686     -0.0878
     63  N         68.0040   25.0890    1.2430 N.3   689  SER689     -0.1202
     64  CA        67.4420   25.0870   -0.0950 C.3   689  SER689      0.2020
     65  C         66.4950   23.8920   -0.2060 C.2   689  SER689      0.2619
     66  O         66.8090   22.7980    0.2430 O.2   689  SER689     -0.2717
     67  CB        68.5730   25.0090   -1.1180 C.3   689  SER689      0.2103
     68  OG        68.0910   24.7140   -2.4090 O.3   689  SER689     -0.2182
     69  N         65.3220   24.1080   -0.7740 N.am  690  MET690     -0.1965
     70  CA        64.3270   23.0500   -0.8610 C.3   690  MET690      0.1736
     71  C         63.4660   23.1960   -2.1060 C.2   690  MET690      0.2616
     72  O         63.0720   24.3060   -2.4800 O.2   690  MET690     -0.2715
     73  CB        63.4450   23.0270    0.3990 C.3   690  MET690      0.0427
     74  CG        62.3220   21.9950    0.3610 C.3   690  MET690      0.0599
     75  SD        60.7300   22.6350   -0.2250 S.3   690  MET690     -0.1393
     76  CE        60.3430   23.7550    1.1210 C.3   690  MET690      0.0692
     77  N         63.1640   22.0620   -2.7280 N.am  691  LEU691     -0.1963
     78  CA        62.2170   22.0180   -3.8310 C.3   691  LEU691      0.1728
     79  C         61.2720   20.8420   -3.6270 C.2   691  LEU691      0.2617
     80  O         61.6620   19.8000   -3.1140 O.2   691  LEU691     -0.2715
     81  CB        62.9350   21.8410   -5.1680 C.3   691  LEU691      0.0311
     82  CG        63.8710   22.9560   -5.6190 C.3   691  LEU691      0.0022
     83  CD1       64.5680   22.5630   -6.9190 C.3   691  LEU691      0.0001
     84  CD2       63.0780   24.2320   -5.7950 C.3   691  LEU691      0.0001
     85  N         60.0320   20.9880   -4.0520 N.am  692  GLY692     -0.1940
     86  CA        59.1600   19.8460   -4.0310 C.3   692  GLY692      0.2014
     87  C         58.0960   19.9320   -5.0890 C.2   692  GLY692      0.2638
     88  O         57.6300   21.0100   -5.4760 O.2   692  GLY692     -0.2714
     89  N         57.6700   18.7540   -5.5130 N.am  693  VAL693     -0.1977
     90  CA        56.6530   18.6360   -6.5270 C.3   693  VAL693      0.1596
     91  C         55.7230   17.5590   -6.0410 C.2   693  VAL693      0.2287
     92  O         56.1720   16.5260   -5.5440 O.2   693  VAL693     -0.2864
     93  CB        57.2370   18.2410   -7.8920 C.3   693  VAL693      0.0276
     94  CG1       56.1350   18.1970   -8.9340 C.3   693  VAL693      0.0022
     95  CG2       58.2940   19.2380   -8.3160 C.3   693  VAL693      0.0022
     96  N         57.7950   14.1720   -4.9490 N.3   704  VAL704     -0.1231
     97  CA        59.2440   14.1230   -4.9600 C.3   704  VAL704      0.1692
     98  C         59.7510   15.3810   -4.2870 C.2   704  VAL704      0.2593
     99  O         59.2130   16.4790   -4.4950 O.2   704  VAL704     -0.2718
    100  CB        59.8380   13.9850   -6.3660 C.3   704  VAL704      0.0266
    101  CG1       59.3700   15.1180   -7.2710 C.3   704  VAL704      0.0020
    102  CG2       61.3680   13.9510   -6.2850 C.3   704  VAL704      0.0020
    103  N         60.7950   15.2400   -3.4840 N.am  705  GLY705     -0.1942
    104  CA        61.2830   16.4060   -2.7860 C.3   705  GLY705      0.2014
    105  C         62.7780   16.3940   -2.6090 C.2   705  GLY705      0.2638
    106  O         63.4290   15.3520   -2.7250 O.2   705  GLY705     -0.2714
    107  N         63.3140   17.5770   -2.3280 N.am  706  TYR706     -0.1973
    108  CA        64.7430   17.7710   -2.2320 C.3   706  TYR706      0.1639
    109  C         65.0490   18.8520   -1.2060 C.2   706  TYR706      0.2290
    110  O         64.3600   19.8740   -1.1380 O.2   706  TYR706     -0.2864
    111  CB        65.3010   18.1550   -3.6120 C.3   706  TYR706      0.0560
    112  CG        66.6720   18.8040   -3.5740 C.ar  706  TYR706     -0.0198
    113  CD1       67.8270   18.0350   -3.5700 C.ar  706  TYR706     -0.0009
    114  CD2       66.8060   20.1900   -3.5380 C.ar  706  TYR706     -0.0009
    115  CE1       69.0790   18.6240   -3.5390 C.ar  706  TYR706      0.0417
    116  CE2       68.0530   20.7870   -3.4940 C.ar  706  TYR706      0.0417
    117  CZ        69.1830   20.0020   -3.4990 C.ar  706  TYR706      0.1957
    118  OH        70.4180   20.6020   -3.4710 O.3   706  TYR706     -0.2866
    119  N         67.0070   13.6280   -1.1240 N.3   726  ILE726     -0.1245
    120  CA        66.0510   13.6310   -2.2020 C.3   726  ILE726      0.1561
    121  C         65.2220   12.3790   -2.0220 C.2   726  ILE726      0.2260
    122  O         65.7450   11.3250   -1.6690 O.2   726  ILE726     -0.2867
    123  CB        66.7240   13.6720   -3.5880 C.3   726  ILE726      0.0252
    124  CG1       65.6780   13.9090   -4.6710 C.3   726  ILE726      0.0019
    125  CG2       67.5000   12.3880   -3.8770 C.3   726  ILE726      0.0019
    126  CD1       66.2880   14.2420   -6.0260 C.3   726  ILE726      0.0001
@<TRIPOS>BOND
     1    94    93    1
     2    95    93    1
     3    93    90    1
     4   101   100    1
     5    83    82    1
     6    90    91    1
     7    90    89    1
     8   100   102    1
     9   100    97    1
    10    91    92    2
    11   126   124    1
    12    84    82    1
    13    82    81    1
    14    89    87   am
    15    88    87    2
    16    81    78    1
    17    87    86    1
    18     7     5    1
    19    97    96    1
    20    97    98    1
    21   124   123    1
    22    32    29    1
    23    99    98    2
    24    98   103   am
    25    85    86    1
    26    85    79   am
    27   125   123    1
    28     6     5    1
    29    78    79    1
    30    78    77    1
    31     5     2    1
    32    31    30    2
    33    30    29    1
    34    79    80    2
    35   111   112    1
    36   111   108    1
    37   123   120    1
    38   112   113   ar
    39   112   114   ar
    40   113   115   ar
    41   115   117   ar
    42   114   116   ar
    43    33    34    1
    44   117   116   ar
    45   117   118    1
    46   103   104    1
    47    34    35    1
    48    29    28    1
    49    50    48   ar
    50    50    52   ar
    51   104   105    1
    52    53    52    1
    53    48    47   ar
    54    77    71   am
    55   106   105    2
    56   105   107   am
    57    52    51   ar
    58     2     1    1
    59     2     3    1
    60    72    71    2
    61    68    67    1
    62    28    23   am
    63   107   108    1
    64    62    60   am
    65    35    36    2
    66    35    37   am
    67   108   109    1
    68   120   121    1
    69   120   119    1
    70    47    46    1
    71    47    49   ar
    72    71    70    1
    73    14    13    1
    74    15    13    1
    75    51    49   ar
    76   121   122    2
    77    46    43    1
    78    20    17    1
    79    37    38    1
    80    24    23    2
    81    23    22    1
    82    13    12    1
    83     3     4    2
    84   109   110    2
    85    67    64    1
    86    40    39    2
    87    60    59    1
    88    60    61    2
    89    70    69    1
    90    70    73    1
    91    69    65   am
    92    39    38    1
    93    39    42   am
    94    38    41    1
    95    43    42    1
    96    43    44    1
    97    21    22    1
    98    21    18   am
    99    22    25    1
   100    18    17    1
   101    18    19    2
   102    17    16    1
   103    59    58    1
   104    75    74    1
   105    75    76    1
   106    65    64    1
   107    65    66    2
   108    64    63    1
   109    12     9    1
   110    74    73    1
   111    58    55    1
   112    44    45    2
   113     8     9    1
   114    25    26    1
   115    25    27    1
   116     9    10    1
   117    54    55    1
   118    55    56    1
   119    10    11    2
   120    56    57    2
