@<TRIPOS>MOLECULE
tmp/4q35A05.pdb
 128 127 0 0 0
SMALL
GASTEIGER

@<TRIPOS>ATOM
      1  N         28.6470   -2.8550   12.9060 N.3   135  ARG135     -0.1231
      2  CA        29.9620   -2.4070   13.3530 C.3   135  ARG135      0.1694
      3  C         31.0560   -2.9650   12.4380 C.2   135  ARG135      0.2592
      4  O         32.0000   -2.2630   12.0710 O.2   135  ARG135     -0.2718
      5  CB        30.2330   -2.8240   14.7970 C.3   135  ARG135      0.0321
      6  CG        31.5710   -2.3140   15.2980 C.3   135  ARG135      0.0489
      7  CD        31.9460   -2.8470   16.6640 C.3   135  ARG135      0.2205
      8  NE        33.3540   -2.5740   16.9360 N.pl3 135  ARG135     -0.0865
      9  CZ        33.9700   -2.8540   18.0780 C.cat 135  ARG135      0.5346
     10  NH1       33.2990   -3.4170   19.0730 N.pl3 135  ARG135      0.1354
     11  NH2       35.2590   -2.5740   18.2230 N.pl3 135  ARG135      0.1354
     12  N         30.8890   -4.2340   12.0770 N.am  136  TYR136     -0.1976
     13  CA        31.8670   -5.0070   11.3290 C.3   136  TYR136      0.1639
     14  C         31.4330   -5.3080    9.9020 C.2   136  TYR136      0.2290
     15  O         30.3900   -5.9160    9.6780 O.2   136  TYR136     -0.2864
     16  CB        32.1020   -6.3440   12.0360 C.3   136  TYR136      0.0560
     17  CG        32.6300   -6.1860   13.4280 C.ar  136  TYR136     -0.0198
     18  CD1       33.8890   -5.6400   13.6480 C.ar  136  TYR136     -0.0009
     19  CD2       31.8760   -6.5800   14.5290 C.ar  136  TYR136     -0.0009
     20  CE1       34.3860   -5.4850   14.9250 C.ar  136  TYR136      0.0417
     21  CE2       32.3620   -6.4310   15.8140 C.ar  136  TYR136      0.0417
     22  CZ        33.6240   -5.8820   16.0040 C.ar  136  TYR136      0.1957
     23  OH        34.1330   -5.7250   17.2700 O.3   136  TYR136     -0.2866
     24  N         33.7840    1.2540   14.4300 N.3   166  GLU166     -0.1231
     25  CA        34.0020    2.0390   15.6420 C.3   166  GLU166      0.1699
     26  C         35.4730    2.3740   15.8700 C.2   166  GLU166      0.2592
     27  O         35.8060    3.4840   16.2800 O.2   166  GLU166     -0.2718
     28  CB        33.4490    1.3060   16.8640 C.3   166  GLU166      0.0402
     29  CG        31.9510    1.0930   16.8610 C.3   166  GLU166      0.1161
     30  CD        31.4970    0.2520   18.0430 C.2   166  GLU166      0.3649
     31  OE1       32.3510   -0.0930   18.8920 O.co2 166  GLU166     -0.2457
     32  OE2       30.2910   -0.0710   18.1210 O.co2 166  GLU166     -0.2457
     33  N         36.3530    1.4080   15.6260 N.am  167  GLU167     -0.1979
     34  CA        37.7800    1.6310   15.8210 C.3   167  GLU167      0.1602
     35  C         38.4350    2.2320   14.5820 C.2   167  GLU167      0.2287
     36  O         39.5660    2.7060   14.6490 O.2   167  GLU167     -0.2864
     37  CB        38.4850    0.3240   16.1950 C.3   167  GLU167      0.0415
     38  CG        38.1560   -0.1850   17.5850 C.3   167  GLU167      0.1163
     39  CD        38.6640    0.7410   18.6790 C.2   167  GLU167      0.3649
     40  OE1       39.8880    0.9950   18.7260 O.co2 167  GLU167     -0.2457
     41  OE2       37.8380    1.2180   19.4890 O.co2 167  GLU167     -0.2457
     42  N         44.5500   -1.3570   21.2760 N.3   226  ALA226     -0.1231
     43  CA        43.4200   -1.4310   22.1780 C.3   226  ALA226      0.1679
     44  C         42.5930   -0.2110   21.8490 C.2   226  ALA226      0.2434
     45  O         43.0000    0.6050   21.0190 O.2   226  ALA226     -0.2733
     46  CB        43.9090   -1.3580   23.6280 C.3   226  ALA226      0.0304
     47  N         41.4370   -0.0580   22.4990 N.am  227  PRO227     -0.2718
     48  CA        40.7410    1.2150   22.2730 C.3   227  PRO227      0.1535
     49  C         41.5480    2.3840   22.8670 C.2   227  PRO227      0.2599
     50  O         42.2390    2.1920   23.8750 O.2   227  PRO227     -0.2715
     51  CB        39.4150    1.0300   23.0160 C.3   227  PRO227      0.0310
     52  CG        39.1970   -0.4640   23.0610 C.3   227  PRO227      0.0237
     53  CD        40.5870   -1.0640   23.1600 C.3   227  PRO227      0.0939
     54  N         41.4750    3.5540   22.2330 N.am  228  ASN228     -0.1959
     55  CA        42.2280    4.7600   22.6420 C.3   228  ASN228      0.1819
     56  C         43.7490    4.6480   22.6490 C.2   228  ASN228      0.2621
     57  O         44.4230    5.4670   23.2780 O.2   228  ASN228     -0.2715
     58  CB        41.8230    5.2230   24.0380 C.3   228  ASN228      0.1195
     59  CG        40.3370    5.3920   24.1850 C.2   228  ASN228      0.2630
     60  OD1       39.7270    4.8540   25.1090 O.2   228  ASN228     -0.2716
     61  ND2       39.7420    6.1430   23.2760 N.am  228  ASN228     -0.0877
     62  N         44.2880    3.6820   21.9170 N.am  229  MET229     -0.1977
     63  CA        45.7350    3.5420   21.7800 C.3   229  MET229      0.1605
     64  C         46.0080    2.9670   20.4050 C.2   229  MET229      0.2287
     65  O         45.2840    2.0990   19.9240 O.2   229  MET229     -0.2864
     66  CB        46.3260    2.5650   22.8110 C.3   229  MET229      0.0413
     67  CG        46.2850    2.9860   24.2630 C.3   229  MET229      0.0598
     68  SD        46.4510    1.5470   25.3570 S.3   229  MET229     -0.1393
     69  CE        48.1230    1.0030   25.0540 C.3   229  MET229      0.0692
     70  N         53.7690    5.4580   19.5370 N.3   250  PHE250     -0.1241
     71  CA        52.6520    5.0370   20.3520 C.3   250  PHE250      0.1605
     72  C         51.7750    6.2730   20.5530 C.2   250  PHE250      0.2264
     73  O         52.2780    7.3150   20.9120 O.2   250  PHE250     -0.2867
     74  CB        53.1930    4.5250   21.6940 C.3   250  PHE250      0.0534
     75  CG        52.1360    4.2630   22.7220 C.ar  250  PHE250     -0.0203
     76  CD1       51.0770    3.4150   22.4410 C.ar  250  PHE250     -0.0042
     77  CD2       52.2160    4.8400   23.9800 C.ar  250  PHE250     -0.0042
     78  CE1       50.1110    3.1680   23.3850 C.ar  250  PHE250     -0.0003
     79  CE2       51.2460    4.5940   24.9410 C.ar  250  PHE250     -0.0003
     80  CZ        50.1920    3.7620   24.6400 C.ar  250  PHE250     -0.0000
     81  N         48.0680    7.8090   22.3100 N.3   252  TYR252     -0.1227
     82  CA        46.9840    7.4900   23.2250 C.3   252  TYR252      0.1736
     83  C         46.1010    8.6870   23.5350 C.2   252  TYR252      0.2595
     84  O         46.5140    9.8530   23.4440 O.2   252  TYR252     -0.2718
     85  CB        47.5290    6.9090   24.5310 C.3   252  TYR252      0.0548
     86  CG        48.3850    7.8900   25.2940 C.ar  252  TYR252     -0.0200
     87  CD1       47.8190    8.7640   26.2310 C.ar  252  TYR252     -0.0009
     88  CD2       49.7560    7.9540   25.0750 C.ar  252  TYR252     -0.0009
     89  CE1       48.6030    9.6700   26.9260 C.ar  252  TYR252      0.0417
     90  CE2       50.5460    8.8530   25.7630 C.ar  252  TYR252      0.0417
     91  CZ        49.9670    9.7070   26.6890 C.ar  252  TYR252      0.1957
     92  OH        50.7570   10.6030   27.3590 O.3   252  TYR252     -0.2866
     93  N         44.8690    8.3690   23.8970 N.am  253  LEU253     -0.1966
     94  CA        43.9540    9.3370   24.4660 C.3   253  LEU253      0.1728
     95  C         43.5540    8.8460   25.8580 C.2   253  LEU253      0.2616
     96  O         43.1620    7.6950   26.0410 O.2   253  LEU253     -0.2715
     97  CB        42.7300    9.4970   23.5690 C.3   253  LEU253      0.0311
     98  CG        41.6770   10.5040   24.0330 C.3   253  LEU253      0.0022
     99  CD1       42.2900   11.8850   24.3260 C.3   253  LEU253      0.0001
    100  CD2       40.5820   10.6020   22.9890 C.3   253  LEU253      0.0001
    101  N         43.6890    9.7100   26.8500 N.am  254  SER254     -0.1950
    102  CA        43.2540    9.3570   28.1910 C.3   254  SER254      0.1924
    103  C         42.4070   10.4810   28.7520 C.2   254  SER254      0.2314
    104  O         42.1690   11.4940   28.0750 O.2   254  SER254     -0.2863
    105  CB        44.4580    9.0940   29.0920 C.3   254  SER254      0.2116
    106  OG        45.0820   10.3020   29.4710 O.3   254  SER254     -0.2180
    107  N         54.2900    8.9250   22.0960 N.3   261  MET261     -0.1245
    108  CA        55.6280    8.4930   22.4490 C.3   261  MET261      0.1570
    109  C         56.2840    7.9760   21.2050 C.2   261  MET261      0.2261
    110  O         55.6240    7.4510   20.3220 O.2   261  MET261     -0.2867
    111  CB        55.6120    7.3540   23.4620 C.3   261  MET261      0.0387
    112  CG        55.1450    7.7360   24.8220 C.3   261  MET261      0.0595
    113  SD        55.3410    6.3400   25.9440 S.3   261  MET261     -0.1393
    114  CE        54.4430    6.9730   27.3660 C.3   261  MET261      0.0692
    115  N         58.4510   11.8890   24.3700 N.3   289  TRP289     -0.1241
    116  CA        57.1140   11.7890   24.9260 C.3   289  TRP289      0.1605
    117  C         56.5010   13.1710   25.0320 C.2   289  TRP289      0.2264
    118  O         57.0600   14.0750   25.6570 O.2   289  TRP289     -0.2867
    119  CB        57.1480   11.1310   26.3060 C.3   289  TRP289      0.0550
    120  CG        55.7910   10.9370   26.9560 C.ar  289  TRP289      0.0003
    121  CD1       54.5560   11.0460   26.3670 C.ar  289  TRP289      0.0946
    122  CD2       55.5520   10.5910   28.3210 C.ar  289  TRP289      0.0152
    123  NE1       53.5650   10.7860   27.2890 N.ar  289  TRP289     -0.2442
    124  CE2       54.1510   10.5060   28.4960 C.ar  289  TRP289      0.0810
    125  CE3       56.3870   10.3420   29.4150 C.ar  289  TRP289      0.0012
    126  CZ2       53.5730   10.1870   29.7190 C.ar  289  TRP289      0.0191
    127  CZ3       55.8080   10.0150   30.6280 C.ar  289  TRP289      0.0001
    128  CH2       54.4150    9.9330   30.7670 C.ar  289  TRP289      0.0015
@<TRIPOS>BOND
     1    15    14    2
     2    14    13    1
     3    13    16    1
     4    13    12    1
     5    16    17    1
     6     4     3    2
     7    12     3   am
     8     3     2    1
     9     1     2    1
    10     2     5    1
    11    17    18   ar
    12    17    19   ar
    13    18    20   ar
    14    24    25    1
    15    19    21   ar
    16    35    36    2
    17    35    34    1
    18     5     6    1
    19    20    22   ar
    20     6     7    1
    21    33    34    1
    22    33    26   am
    23    25    26    1
    24    25    28    1
    25    21    22   ar
    26    34    37    1
    27    26    27    2
    28    22    23    1
    29    37    38    1
    30     7     8    1
    31    29    28    1
    32    29    30    1
    33     8     9    2
    34    38    39    1
    35    30    32   ar
    36    30    31   ar
    37     9    11    1
    38     9    10    1
    39    39    40   ar
    40    39    41   ar
    41    70    71    1
    42    65    64    2
    43   110   109    2
    44    71    72    1
    45    71    74    1
    46    64    63    1
    47    72    73    2
    48    45    44    2
    49   109   108    1
    50    42    43    1
    51    74    75    1
    52    63    62    1
    53    63    66    1
    54    44    43    1
    55    44    47   am
    56    62    56   am
    57   107   108    1
    58    43    46    1
    59    54    55    1
    60    54    49   am
    61    48    47    1
    62    48    49    1
    63    48    51    1
    64    81    82    1
    65    76    75   ar
    66    76    78   ar
    67   108   111    1
    68    47    53    1
    69    55    56    1
    70    55    58    1
    71    56    57    2
    72    75    77   ar
    73    66    67    1
    74    49    50    2
    75   100    98    1
    76    51    52    1
    77    52    53    1
    78    82    83    1
    79    82    85    1
    80    61    59   am
    81    78    80   ar
    82    84    83    2
    83   111   112    1
    84    83    93   am
    85    97    98    1
    86    97    94    1
    87    93    94    1
    88    77    79   ar
    89    98    99    1
    90    58    59    1
    91    59    60    2
    92    67    68    1
    93   115   116    1
    94    94    95    1
    95    85    86    1
    96    80    79   ar
    97   112   113    1
    98   116   117    1
    99   116   119    1
   100   117   118    2
   101    69    68    1
   102    88    86   ar
   103    88    90   ar
   104    86    87   ar
   105    90    91   ar
   106    95    96    2
   107    95   101   am
   108   113   114    1
   109    87    89   ar
   110   119   120    1
   111   121   120   ar
   112   121   123   ar
   113    91    89   ar
   114    91    92    1
   115   101   102    1
   116   120   122   ar
   117   123   124   ar
   118   104   103    2
   119   102   103    1
   120   102   105    1
   121   122   124   ar
   122   122   125   ar
   123   124   126   ar
   124   105   106    1
   125   125   127   ar
   126   126   128   ar
   127   127   128   ar
