@<TRIPOS>MOLECULE
tmp/4q35A03.pdb
 207 193 0 0 0
SMALL
GASTEIGER

@<TRIPOS>ATOM
      1  N         15.5410   -2.2710   -1.4070 N.3    58  LEU58      -0.1245
      2  CA        15.9690   -3.5660   -1.9130 C.3    58  LEU58       0.1561
      3  C         15.2670   -3.8330   -3.2350 C.2    58  LEU58       0.2260
      4  O         14.1330   -3.4280   -3.4290 O.2    58  LEU58      -0.2867
      5  CB        15.6460   -4.6700   -0.9050 C.3    58  LEU58       0.0270
      6  CG        16.0000   -6.1080   -1.2930 C.3    58  LEU58       0.0019
      7  CD1       17.5140   -6.2800   -1.4410 C.3    58  LEU58       0.0001
      8  CD2       15.4560   -7.0780   -0.2570 C.3    58  LEU58       0.0001
      9  N         15.1430  -12.5070    5.7910 N.3    78  VAL78      -0.1245
     10  CA        14.8960  -12.1310    4.4000 C.3    78  VAL78       0.1561
     11  C         15.9000  -12.7860    3.4500 C.2    78  VAL78       0.2260
     12  O         17.0930  -12.8670    3.7570 O.2    78  VAL78      -0.2867
     13  CB        14.9590  -10.6080    4.2210 C.3    78  VAL78       0.0252
     14  CG1       14.5300  -10.2200    2.8150 C.3    78  VAL78       0.0019
     15  CG2       14.0870   -9.9200    5.2560 C.3    78  VAL78       0.0019
     16  N         17.1550  -13.0420   -0.8260 N.3    80  ALA80      -0.1245
     17  CA        17.0120  -12.4710   -2.1700 C.3    80  ALA80       0.1562
     18  C         17.7020  -13.3200   -3.2340 C.2    80  ALA80       0.2260
     19  O         18.9170  -13.4980   -3.1980 O.2    80  ALA80      -0.2867
     20  CB        17.5110  -11.0420   -2.1970 C.3    80  ALA80       0.0290
     21  N         20.1180   -9.1620   -7.2500 N.3    84  VAL84      -0.1245
     22  CA        19.9450   -8.3790   -6.0360 C.3    84  VAL84       0.1561
     23  C         20.6770   -7.0370   -6.0930 C.2    84  VAL84       0.2260
     24  O         21.8610   -6.9690   -6.4390 O.2    84  VAL84      -0.2867
     25  CB        20.3850   -9.1630   -4.8050 C.3    84  VAL84       0.0252
     26  CG1       19.9030   -8.4770   -3.5370 C.3    84  VAL84       0.0019
     27  CG2       19.8630  -10.5740   -4.8920 C.3    84  VAL84       0.0019
     28  N         20.8720   -3.6170   -3.5320 N.3    86  TYR86      -0.1241
     29  CA        20.4980   -2.9210   -2.3090 C.3    86  TYR86       0.1605
     30  C         21.0350   -1.4940   -2.3230 C.2    86  TYR86       0.2264
     31  O         22.1420   -1.2410   -2.7900 O.2    86  TYR86      -0.2867
     32  CB        20.9630   -3.6600   -1.0540 C.3    86  TYR86       0.0534
     33  CG        20.7080   -2.8570    0.2000 C.ar   86  TYR86      -0.0201
     34  CD1       19.5000   -2.9550    0.8770 C.ar   86  TYR86      -0.0009
     35  CD2       21.6620   -1.9750    0.6890 C.ar   86  TYR86      -0.0009
     36  CE1       19.2600   -2.2060    2.0130 C.ar   86  TYR86       0.0417
     37  CE2       21.4270   -1.2180    1.8150 C.ar   86  TYR86       0.0417
     38  CZ        20.2280   -1.3400    2.4760 C.ar   86  TYR86       0.1957
     39  OH        20.0040   -0.5890    3.6030 O.3    86  TYR86      -0.2866
     40  N         21.0030    2.4100   -0.1030 N.3    88  ASP88      -0.1239
     41  CA        20.6800    3.3050    1.0180 C.3    88  ASP88       0.1674
     42  C         21.5700    4.5550    1.0180 C.2    88  ASP88       0.2266
     43  O         22.2120    4.8530    0.0140 O.2    88  ASP88      -0.2867
     44  CB        20.5850    2.5890    2.3880 C.3    88  ASP88       0.1410
     45  CG        21.9360    2.1530    2.9550 C.2    88  ASP88       0.3668
     46  OD1       22.9910    2.7360    2.6110 O.co2  88  ASP88      -0.2456
     47  OD2       21.9270    1.2190    3.7890 O.co2  88  ASP88      -0.2456
     48  N         24.1950    5.0710    2.6450 N.3    90  GLN90      -0.1231
     49  CA        25.5710    4.6850    2.9450 C.3    90  GLN90       0.1698
     50  C         26.2140    3.9130    1.7890 C.2    90  GLN90       0.2592
     51  O         27.2600    4.3090    1.2770 O.2    90  GLN90      -0.2718
     52  CB        25.6580    3.9160    4.2690 C.3    90  GLN90       0.0381
     53  CG        25.4480    4.8020    5.4900 C.3    90  GLN90       0.0905
     54  CD        25.3260    4.0210    6.7860 C.2    90  GLN90       0.2608
     55  OE1       25.0010    2.8340    6.7830 O.2    90  GLN90      -0.2717
     56  NE2       25.5830    4.6890    7.9040 N.am   90  GLN90      -0.0878
     57  N         25.6190    2.7770    1.4360 N.am   91  VAL91      -0.1980
     58  CA        26.2180    1.8520    0.4860 C.3    91  VAL91       0.1595
     59  C         25.2590    1.3600   -0.6150 C.2    91  VAL91       0.2287
     60  O         24.0450    1.3280   -0.4340 O.2    91  VAL91      -0.2864
     61  CB        26.7800    0.6280    1.2430 C.3    91  VAL91       0.0276
     62  CG1       25.6550   -0.3280    1.6100 C.3    91  VAL91       0.0022
     63  CG2       27.8490   -0.0820    0.4220 C.3    91  VAL91       0.0022
     64  N         24.9150   -2.1320   -2.8790 N.3    93  LEU93      -0.1245
     65  CA        25.3970   -3.5040   -3.0170 C.3    93  LEU93       0.1561
     66  C         24.7260   -4.1690   -4.1990 C.2    93  LEU93       0.2260
     67  O         23.5690   -3.8900   -4.4960 O.2    93  LEU93      -0.2867
     68  CB        25.0620   -4.3230   -1.7740 C.3    93  LEU93       0.0270
     69  CG        25.3980   -3.7520   -0.4090 C.3    93  LEU93       0.0019
     70  CD1       24.8330   -4.6620    0.6540 C.3    93  LEU93       0.0001
     71  CD2       26.8960   -3.6130   -0.2560 C.3    93  LEU93       0.0001
     72  N         21.3240  -12.8980   -1.6830 N.3    98  GLY98      -0.1210
     73  CA        21.4220  -12.1380   -0.4500 C.3    98  GLY98       0.1956
     74  C         20.5900  -12.6870    0.6970 C.2    98  GLY98       0.2612
     75  O         19.7020  -13.5170    0.5040 O.2    98  GLY98      -0.2717
     76  N         20.9170  -12.2420    1.9060 N.am   99  TRP99      -0.1962
     77  CA        20.2620  -12.7050    3.1240 C.3    99  TRP99       0.1771
     78  C         20.3570  -11.6330    4.1990 C.2    99  TRP99       0.2619
     79  O         21.3260  -10.8800    4.2460 O.2    99  TRP99      -0.2715
     80  CB        20.8930  -14.0140    3.6140 C.3    99  TRP99       0.0590
     81  CG        20.3300  -14.5370    4.9090 C.ar   99  TRP99       0.0006
     82  CD1       19.3440  -15.4660    5.0540 C.ar   99  TRP99       0.0946
     83  CD2       20.7330  -14.1710    6.2390 C.ar   99  TRP99       0.0152
     84  NE1       19.1010  -15.6980    6.3860 N.ar   99  TRP99      -0.2442
     85  CE2       19.9390  -14.9140    7.1350 C.ar   99  TRP99       0.0810
     86  CE3       21.6870  -13.2880    6.7580 C.ar   99  TRP99       0.0012
     87  CZ2       20.0670  -14.8010    8.5190 C.ar   99  TRP99       0.0191
     88  CZ3       21.8120  -13.1760    8.1330 C.ar   99  TRP99       0.0001
     89  CH2       21.0070  -13.9290    8.9970 C.ar   99  TRP99       0.0015
     90  N         19.3580  -11.5590    5.0650 N.am  100  ALA100     -0.1977
     91  CA        19.4380  -10.6380    6.1880 C.3   100  ALA100      0.1597
     92  C         18.5900  -11.0870    7.3680 C.2   100  ALA100      0.2287
     93  O         17.5970  -11.7980    7.2110 O.2   100  ALA100     -0.2864
     94  CB        19.0600   -9.2260    5.7600 C.3   100  ALA100      0.0319
     95  N         23.8950   -9.2660    7.9240 N.3   107  THR107     -0.1203
     96  CA        23.5660   -9.5100    6.5150 C.3   107  THR107      0.1994
     97  C         24.6490  -10.2460    5.7180 C.2   107  THR107      0.2618
     98  O         25.8330  -10.1800    6.0400 O.2   107  THR107     -0.2717
     99  CB        23.2230   -8.1990    5.7630 C.3   107  THR107      0.1784
    100  OG1       24.3830   -7.3680    5.6940 O.3   107  THR107     -0.2211
    101  CG2       22.1110   -7.4330    6.4600 C.3   107  THR107      0.0376
    102  N         24.2190  -10.9500    4.6760 N.am  108  ASN108     -0.1960
    103  CA        25.1190  -11.5930    3.7260 C.3   108  ASN108      0.1819
    104  C         24.7570  -11.2250    2.2920 C.2   108  ASN108      0.2621
    105  O         23.5850  -11.1460    1.9470 O.2   108  ASN108     -0.2715
    106  CB        25.0320  -13.1160    3.8250 C.3   108  ASN108      0.1195
    107  CG        25.5870  -13.6580    5.1150 C.2   108  ASN108      0.2630
    108  OD1       25.6820  -12.9520    6.1150 O.2   108  ASN108     -0.2716
    109  ND2       25.9560  -14.9350    5.0990 N.am  108  ASN108     -0.0877
    110  N         25.7650  -11.0200    1.4540 N.am  109  VAL109     -0.1977
    111  CA        25.5660  -10.9780    0.0070 C.3   109  VAL109      0.1596
    112  C         26.6630  -11.8400   -0.6160 C.2   109  VAL109      0.2287
    113  O         27.8400  -11.6500   -0.3150 O.2   109  VAL109     -0.2864
    114  CB        25.6730   -9.5460   -0.5500 C.3   109  VAL109      0.0276
    115  CG1       25.5430   -9.5480   -2.0690 C.3   109  VAL109      0.0022
    116  CG2       24.6320   -8.6380    0.0730 C.3   109  VAL109      0.0022
    117  N         30.3300   -3.8450   -3.7940 N.3   114  TYR114     -0.1241
    118  CA        29.8250   -2.7290   -3.0230 C.3   114  TYR114      0.1605
    119  C         30.4450   -1.4480   -3.5350 C.2   114  TYR114      0.2264
    120  O         31.5240   -1.4540   -4.1400 O.2   114  TYR114     -0.2867
    121  CB        30.1450   -2.9050   -1.5330 C.3   114  TYR114      0.0534
    122  CG        31.6230   -2.9260   -1.2190 C.ar  114  TYR114     -0.0201
    123  CD1       32.3530   -4.1050   -1.2930 C.ar  114  TYR114     -0.0009
    124  CD2       32.2880   -1.7660   -0.8490 C.ar  114  TYR114     -0.0009
    125  CE1       33.7050   -4.1250   -1.0080 C.ar  114  TYR114      0.0417
    126  CE2       33.6310   -1.7750   -0.5660 C.ar  114  TYR114      0.0417
    127  CZ        34.3420   -2.9570   -0.6490 C.ar  114  TYR114      0.1957
    128  OH        35.6930   -2.9610   -0.3590 O.3   114  TYR114     -0.2866
    129  N         30.5320    2.8050   -2.0280 N.3   116  MET116     -0.1245
    130  CA        30.0510    3.7370   -1.0150 C.3   116  MET116      0.1570
    131  C         29.1730    4.8000   -1.6670 C.2   116  MET116      0.2261
    132  O         29.2840    5.0670   -2.8650 O.2   116  MET116     -0.2867
    133  CB        31.2110    4.3860   -0.2470 C.3   116  MET116      0.0387
    134  CG        32.0460    3.4070    0.5670 C.3   116  MET116      0.0595
    135  SD        31.0920    2.5120    1.8140 S.3   116  MET116     -0.1393
    136  CE        31.2720    0.8430    1.2320 C.3   116  MET116      0.0692
    137  N         30.7380    9.0760   -0.4070 N.3   119  ARG119     -0.1245
    138  CA        32.2010    9.0760   -0.2680 C.3   119  ARG119      0.1563
    139  C         32.8200    8.0210   -1.1750 C.2   119  ARG119      0.2260
    140  O         32.1240    7.1430   -1.6970 O.2   119  ARG119     -0.2867
    141  CB        32.6380    8.8720    1.1890 C.3   119  ARG119      0.0307
    142  CG        32.1360    7.5750    1.8260 C.3   119  ARG119      0.0489
    143  CD        32.2680    7.6250    3.3450 C.3   119  ARG119      0.2205
    144  NE        31.4840    6.5830    4.0020 N.pl3 119  ARG119     -0.0865
    145  CZ        32.0040    5.5430    4.6450 C.cat 119  ARG119      0.5346
    146  NH1       33.3160    5.4050    4.7270 N.pl3 119  ARG119      0.1354
    147  NH2       31.2110    4.6420    5.2120 N.pl3 119  ARG119      0.1354
    148  N         30.2080  -10.9770    1.1890 N.3   128  MET128     -0.1230
    149  CA        30.1630   -9.7310    1.9580 C.3   128  MET128      0.1702
    150  C         29.2280   -9.8900    3.1510 C.2   128  MET128      0.2592
    151  O         28.1300  -10.4170    3.0130 O.2   128  MET128     -0.2718
    152  CB        29.6930   -8.5550    1.1040 C.3   128  MET128      0.0401
    153  CG        30.3340   -8.4640   -0.2650 C.3   128  MET128      0.0596
    154  SD        29.9050   -6.9350   -1.1270 S.3   128  MET128     -0.1393
    155  CE        28.1630   -7.1570   -1.4340 C.3   128  MET128      0.0692
    156  N         29.6560   -9.4280    4.3190 N.am  129  LYS129     -0.1966
    157  CA        28.8770   -9.6140    5.5350 C.3   129  LYS129      0.1728
    158  C         28.8220   -8.3780    6.4250 C.2   129  LYS129      0.2616
    159  O         29.8110   -7.6620    6.5650 O.2   129  LYS129     -0.2715
    160  CB        29.4010  -10.8130    6.3260 C.3   129  LYS129      0.0311
    161  CG        29.0750  -12.1580    5.6820 C.3   129  LYS129      0.0038
    162  CD        29.7160  -13.3260    6.4180 C.3   129  LYS129      0.0206
    163  CE        31.2240  -13.3610    6.1970 C.3   129  LYS129      0.1093
    164  NZ        31.8710  -14.5100    6.8970 N.3   129  LYS129     -0.1314
    165  N         27.6490   -8.1210    7.0050 N.am  130  GLN130     -0.1977
    166  CA        27.5260   -7.1560    8.0960 C.3   130  GLN130      0.1601
    167  C         27.3120   -7.9400    9.3780 C.2   130  GLN130      0.2287
    168  O         26.4630   -8.8500    9.4150 O.2   130  GLN130     -0.2864
    169  CB        26.3590   -6.1920    7.8770 C.3   130  GLN130      0.0394
    170  CG        26.5900   -5.1330    6.8130 C.3   130  GLN130      0.0908
    171  CD        27.5880   -4.0780    7.2370 C.2   130  GLN130      0.2608
    172  OE1       27.4550   -3.4750    8.3010 O.2   130  GLN130     -0.2717
    173  NE2       28.5990   -3.8500    6.4050 N.am  130  GLN130     -0.0878
    174  N         26.0280   -3.7060   12.3100 N.3   134  ASN134     -0.1240
    175  CA        26.7500   -2.8530   11.3660 C.3   134  ASN134      0.1653
    176  C         28.0500   -2.2380   11.8930 C.2   134  ASN134      0.2266
    177  O         28.5190   -1.2220   11.3760 O.2   134  ASN134     -0.2867
    178  CB        25.8290   -1.7580   10.8180 C.3   134  ASN134      0.1155
    179  CG        24.6130   -2.3230   10.1160 C.2   134  ASN134      0.2627
    180  OD1       23.5250   -2.3810   10.6870 O.2   134  ASN134     -0.2716
    181  ND2       24.7920   -2.7550    8.8750 N.am  134  ASN134     -0.0877
    182  N         32.2530   -4.9000    8.9410 N.3   137  THR137     -0.1218
    183  CA        32.1150   -5.3720    7.5680 C.3   137  THR137      0.1862
    184  C         33.1380   -6.4860    7.3500 C.2   137  THR137      0.2287
    185  O         34.3140   -6.3070    7.6410 O.2   137  THR137     -0.2866
    186  CB        32.3820   -4.2400    6.5650 C.3   137  THR137      0.1770
    187  OG1       31.4920   -3.1510    6.8230 O.3   137  THR137     -0.2211
    188  CG2       32.1950   -4.7240    5.1320 C.3   137  THR137      0.0375
    189  N         34.7130   -9.1960    4.4730 N.3   139  LEU139     -0.1245
    190  CA        34.8370   -9.5870    3.0720 C.3   139  LEU139      0.1561
    191  C         35.6420  -10.8830    2.9680 C.2   139  LEU139      0.2260
    192  O         36.8460  -10.8850    3.2350 O.2   139  LEU139     -0.2867
    193  CB        35.5520   -8.4840    2.2860 C.3   139  LEU139      0.0270
    194  CG        34.8270   -7.2330    1.7710 C.3   139  LEU139      0.0019
    195  CD1       33.7530   -6.7500    2.7000 C.3   139  LEU139      0.0001
    196  CD2       35.8140   -6.1020    1.5080 C.3   139  LEU139      0.0001
    197  N         33.9800   -0.4660   12.1820 N.3   165  ARG165     -0.1245
    198  CA        33.5000    0.9100   12.0350 C.3   165  ARG165      0.1563
    199  C         33.8360    1.8110   13.2240 C.2   165  ARG165      0.2260
    200  O         34.1340    2.9900   13.0480 O.2   165  ARG165     -0.2867
    201  CB        31.9890    0.9360   11.7920 C.3   165  ARG165      0.0307
    202  CG        31.5670    0.5300   10.3990 C.3   165  ARG165      0.0489
    203  CD        30.2100    1.1340   10.0560 C.3   165  ARG165      0.2205
    204  NE        30.2550    2.5950   10.0380 N.pl3 165  ARG165     -0.0865
    205  CZ        30.5010    3.3260    8.9530 C.cat 165  ARG165      0.5346
    206  NH1       30.7210    2.7360    7.7840 N.pl3 165  ARG165      0.1354
    207  NH2       30.5250    4.6510    9.0360 N.pl3 165  ARG165      0.1354
@<TRIPOS>BOND
     1    21    22    1
     2    24    23    2
     3    23    22    1
     4    22    25    1
     5    27    25    1
     6    25    26    1
     7    67    66    2
     8    66    65    1
     9   120   119    2
    10   117   118    1
    11   119   118    1
    12    28    29    1
    13     4     3    2
    14     3     2    1
    15    18    19    2
    16    18    17    1
    17   118   121    1
    18    65    64    1
    19    65    68    1
    20   132   131    2
    21    31    30    2
    22    30    29    1
    23    29    32    1
    24    20    17    1
    25    17    16    1
    26   115   114    1
    27   129   130    1
    28     2     1    1
    29     2     5    1
    30    68    69    1
    31   140   139    2
    32    72    73    1
    33   131   130    1
    34   121   122    1
    35     7     6    1
    36   155   154    1
    37   123   122   ar
    38   123   125   ar
    39     6     5    1
    40     6     8    1
    41   122   124   ar
    42   139   138    1
    43   154   153    1
    44    32    33    1
    45   130   133    1
    46   125   127   ar
    47   124   126   ar
    48   127   126   ar
    49   127   128    1
    50   112   113    2
    51   112   111    1
    52    59    60    2
    53    59    58    1
    54   114   111    1
    55   114   116    1
    56    73    74    1
    57    69    71    1
    58    69    70    1
    59   137   138    1
    60   138   141    1
    61   153   152    1
    62   133   134    1
    63    40    41    1
    64   111   110    1
    65    43    42    2
    66    33    35   ar
    67    33    34   ar
    68    63    61    1
    69    58    61    1
    70    58    57    1
    71    75    74    2
    72   134   135    1
    73    35    37   ar
    74    74    76   am
    75    34    36   ar
    76    41    42    1
    77    41    44    1
    78   152   149    1
    79   148   149    1
    80   141   142    1
    81   136   135    1
    82    61    62    1
    83    51    50    2
    84    57    50   am
    85   110   104   am
    86   196   194    1
    87   194   193    1
    88   194   195    1
    89    50    49    1
    90    37    38   ar
    91   142   143    1
    92    76    77    1
    93   105   104    2
    94   149   150    1
    95    36    38   ar
    96   193   190    1
    97   104   103    1
    98    44    45    1
    99    38    39    1
   100    46    45   ar
   101    48    49    1
   102    14    13    1
   103    49    52    1
   104    45    47   ar
   105   191   190    1
   106   191   192    2
   107   151   150    2
   108   190   189    1
   109    77    80    1
   110    77    78    1
   111   150   156   am
   112   143   144    1
   113    11    12    2
   114    11    10    1
   115    80    81    1
   116   103   106    1
   117   103   102    1
   118   106   107    1
   119   144   145    2
   120    78    79    2
   121    78    90   am
   122    13    10    1
   123    13    15    1
   124    52    53    1
   125   156   157    1
   126    10     9    1
   127   145   146    1
   128   145   147    1
   129   102    97   am
   130    81    82   ar
   131    81    83   ar
   132    82    84   ar
   133    90    91    1
   134   109   107   am
   135   107   108    2
   136   188   186    1
   137    53    54    1
   138   157   160    1
   139   157   158    1
   140   161   160    1
   141   161   162    1
   142   100    99    1
   143    97    98    2
   144    97    96    1
   145    94    91    1
   146    99   101    1
   147    99    96    1
   148    91    92    1
   149   163   162    1
   150   163   164    1
   151    83    86   ar
   152    83    85   ar
   153    84    85   ar
   154   173   171   am
   155   158   159    2
   156   158   165   am
   157    96    95    1
   158   186   187    1
   159   186   183    1
   160    86    88   ar
   161    55    54    2
   162    54    56   am
   163   170   171    1
   164   170   169    1
   165   165   166    1
   166    85    87   ar
   167    93    92    2
   168   171   172    2
   169   184   183    1
   170   184   185    2
   171   183   182    1
   172   206   205    1
   173   169   166    1
   174   166   167    1
   175    88    89   ar
   176    87    89   ar
   177   181   179   am
   178   205   207    1
   179   205   204    2
   180   167   168    2
   181   204   203    1
   182   203   202    1
   183   179   180    2
   184   179   178    1
   185   202   201    1
   186   178   175    1
   187   175   176    1
   188   175   174    1
   189   177   176    2
   190   201   198    1
   191   198   197    1
   192   198   199    1
   193   200   199    2
