@<TRIPOS>MOLECULE
tmp/4q35A00.pdb
 122 122 0 0 0
SMALL
GASTEIGER

@<TRIPOS>ATOM
      1  N         41.4750    3.5540   22.2330 N.3   228  ASN228     -0.1240
      2  CA        42.2280    4.7600   22.6420 C.3   228  ASN228      0.1653
      3  C         43.7490    4.6480   22.6490 C.2   228  ASN228      0.2266
      4  O         44.4230    5.4670   23.2780 O.2   228  ASN228     -0.2867
      5  CB        41.8230    5.2230   24.0380 C.3   228  ASN228      0.1155
      6  CG        40.3370    5.3920   24.1850 C.2   228  ASN228      0.2627
      7  OD1       39.7270    4.8540   25.1090 O.2   228  ASN228     -0.2716
      8  ND2       39.7420    6.1430   23.2760 N.am  228  ASN228     -0.0877
      9  N         48.0680    7.8090   22.3100 N.3   252  TYR252     -0.1227
     10  CA        46.9840    7.4900   23.2250 C.3   252  TYR252      0.1736
     11  C         46.1010    8.6870   23.5350 C.2   252  TYR252      0.2595
     12  O         46.5140    9.8530   23.4440 O.2   252  TYR252     -0.2718
     13  CB        47.5290    6.9090   24.5310 C.3   252  TYR252      0.0548
     14  CG        48.3850    7.8900   25.2940 C.ar  252  TYR252     -0.0200
     15  CD1       47.8190    8.7640   26.2310 C.ar  252  TYR252     -0.0009
     16  CD2       49.7560    7.9540   25.0750 C.ar  252  TYR252     -0.0009
     17  CE1       48.6030    9.6700   26.9260 C.ar  252  TYR252      0.0417
     18  CE2       50.5460    8.8530   25.7630 C.ar  252  TYR252      0.0417
     19  CZ        49.9670    9.7070   26.6890 C.ar  252  TYR252      0.1957
     20  OH        50.7570   10.6030   27.3590 O.3   252  TYR252     -0.2866
     21  N         44.8690    8.3690   23.8970 N.am  253  LEU253     -0.1966
     22  CA        43.9540    9.3370   24.4660 C.3   253  LEU253      0.1728
     23  C         43.5540    8.8460   25.8580 C.2   253  LEU253      0.2617
     24  O         43.1620    7.6950   26.0410 O.2   253  LEU253     -0.2715
     25  CB        42.7300    9.4970   23.5690 C.3   253  LEU253      0.0311
     26  CG        41.6770   10.5040   24.0330 C.3   253  LEU253      0.0022
     27  CD1       42.2900   11.8850   24.3260 C.3   253  LEU253      0.0001
     28  CD2       40.5820   10.6020   22.9890 C.3   253  LEU253      0.0001
     29  N         43.6890    9.7100   26.8500 N.am  254  SER254     -0.1936
     30  CA        43.2540    9.3570   28.1910 C.3   254  SER254      0.2055
     31  C         42.4070   10.4810   28.7520 C.2   254  SER254      0.2643
     32  O         42.1690   11.4940   28.0750 O.2   254  SER254     -0.2714
     33  CB        44.4580    9.0940   29.0920 C.3   254  SER254      0.2130
     34  OG        45.0820   10.3020   29.4710 O.3   254  SER254     -0.2179
     35  N         41.9490   10.3050   29.9860 N.am  255  GLN255     -0.1963
     36  CA        41.1860   11.3490   30.6620 C.3   255  GLN255      0.1733
     37  C         42.0820   12.5420   30.9920 C.2   255  GLN255      0.2616
     38  O         41.6210   13.6790   31.0560 O.2   255  GLN255     -0.2715
     39  CB        40.5340   10.7950   31.9260 C.3   255  GLN255      0.0408
     40  CG        39.3700    9.8650   31.6430 C.3   255  GLN255      0.0908
     41  CD        38.7880    9.2520   32.9010 C.2   255  GLN255      0.2608
     42  OE1       39.4300    9.2300   33.9550 O.2   255  GLN255     -0.2717
     43  NE2       37.5600    8.7550   32.7990 N.am  255  GLN255     -0.0878
     44  N         43.3730   12.2590   31.1530 N.am  256  ALA256     -0.1977
     45  CA        44.3890   13.2530   31.4620 C.3   256  ALA256      0.1597
     46  C         44.8270   13.9720   30.1970 C.2   256  ALA256      0.2287
     47  O         45.6830   14.8530   30.2400 O.2   256  ALA256     -0.2864
     48  CB        45.5910   12.5890   32.1170 C.3   256  ALA256      0.0319
     49  N         58.4510   11.8890   24.3700 N.3   289  TRP289     -0.1241
     50  CA        57.1140   11.7890   24.9260 C.3   289  TRP289      0.1605
     51  C         56.5010   13.1710   25.0320 C.2   289  TRP289      0.2264
     52  O         57.0600   14.0750   25.6570 O.2   289  TRP289     -0.2867
     53  CB        57.1480   11.1310   26.3060 C.3   289  TRP289      0.0550
     54  CG        55.7910   10.9370   26.9560 C.ar  289  TRP289      0.0003
     55  CD1       54.5560   11.0460   26.3670 C.ar  289  TRP289      0.0946
     56  CD2       55.5520   10.5910   28.3210 C.ar  289  TRP289      0.0152
     57  NE1       53.5650   10.7860   27.2890 N.ar  289  TRP289     -0.2442
     58  CE2       54.1510   10.5060   28.4960 C.ar  289  TRP289      0.0810
     59  CE3       56.3870   10.3420   29.4150 C.ar  289  TRP289      0.0012
     60  CZ2       53.5730   10.1870   29.7190 C.ar  289  TRP289      0.0191
     61  CZ3       55.8080   10.0150   30.6280 C.ar  289  TRP289      0.0001
     62  CH2       54.4150    9.9330   30.7670 C.ar  289  TRP289      0.0015
     63  N         52.8060   15.0820   25.9850 N.3   291  HIS291     -0.1241
     64  CA        51.4630   14.9260   26.4990 C.3   291  HIS291      0.1621
     65  C         50.9080   16.2880   26.8540 C.2   291  HIS291      0.2264
     66  O         51.6190   17.1420   27.3980 O.2   291  HIS291     -0.2867
     67  CB        51.4510   14.0180   27.7350 C.3   291  HIS291      0.0745
     68  CG        50.0960   13.8890   28.3670 C.ar  291  HIS291      0.0817
     69  ND1       49.3230   12.7540   28.2410 N.ar  291  HIS291     -0.2268
     70  CD2       49.3750   14.7560   29.1090 C.ar  291  HIS291      0.1154
     71  CE1       48.1820   12.9310   28.8840 C.ar  291  HIS291      0.1986
     72  NE2       48.1860   14.1350   29.4200 N.ar  291  HIS291     -0.2212
     73  N         47.9330   18.8530   32.6040 N.3   301  PHE301     -0.1227
     74  CA        49.0730   17.9540   32.5600 C.3   301  PHE301      0.1736
     75  C         49.8760   18.1850   31.3020 C.2   301  PHE301      0.2595
     76  O         49.3200   18.2810   30.1990 O.2   301  PHE301     -0.2718
     77  CB        48.6470   16.4780   32.5920 C.3   301  PHE301      0.0547
     78  CG        47.6980   16.1300   33.7020 C.ar  301  PHE301     -0.0202
     79  CD1       48.1700   15.6850   34.9250 C.ar  301  PHE301     -0.0042
     80  CD2       46.3250   16.2030   33.5050 C.ar  301  PHE301     -0.0042
     81  CE1       47.2870   15.3410   35.9500 C.ar  301  PHE301     -0.0003
     82  CE2       45.4360   15.8580   34.5260 C.ar  301  PHE301     -0.0003
     83  CZ        45.9210   15.4300   35.7470 C.ar  301  PHE301     -0.0000
     84  N         51.1920   18.2350   31.4740 N.am  302  ASN302     -0.1960
     85  CA        52.0790   18.4160   30.3480 C.3   302  ASN302      0.1819
     86  C         53.3700   17.6360   30.4700 C.2   302  ASN302      0.2621
     87  O         53.9610   17.5470   31.5450 O.2   302  ASN302     -0.2715
     88  CB        52.3890   19.9000   30.1480 C.3   302  ASN302      0.1195
     89  CG        51.1880   20.6710   29.6720 C.2   302  ASN302      0.2630
     90  OD1       50.9210   20.7410   28.4700 O.2   302  ASN302     -0.2716
     91  ND2       50.4350   21.2410   30.6120 N.am  302  ASN302     -0.0877
     92  N         53.7970   17.0750   29.3440 N.am  303  VAL303     -0.1977
     93  CA        55.0900   16.4340   29.2300 C.3   303  VAL303      0.1596
     94  C         55.6560   16.8750   27.8940 C.2   303  VAL303      0.2287
     95  O         54.9660   16.8090   26.8760 O.2   303  VAL303     -0.2864
     96  CB        54.9680   14.8820   29.2310 C.3   303  VAL303      0.0276
     97  CG1       56.3290   14.2240   28.9820 C.3   303  VAL303      0.0022
     98  CG2       54.3440   14.3840   30.5310 C.3   303  VAL303      0.0022
     99  N         58.3470   18.0610   32.7750 N.3   333  PHE333     -0.1227
    100  CA        57.0860   17.5280   33.2740 C.3   333  PHE333      0.1736
    101  C         56.3960   18.5830   34.0930 C.2   333  PHE333      0.2596
    102  O         57.0570   19.3180   34.8230 O.2   333  PHE333     -0.2718
    103  CB        57.3250   16.3190   34.1760 C.3   333  PHE333      0.0547
    104  CG        57.9000   15.1370   33.4690 C.ar  333  PHE333     -0.0202
    105  CD1       59.2750   15.0130   33.3050 C.ar  333  PHE333     -0.0042
    106  CD2       57.0690   14.1410   32.9780 C.ar  333  PHE333     -0.0042
    107  CE1       59.8140   13.9140   32.6670 C.ar  333  PHE333     -0.0003
    108  CE2       57.5950   13.0360   32.3460 C.ar  333  PHE333     -0.0003
    109  CZ        58.9750   12.9240   32.1810 C.ar  333  PHE333     -0.0000
    110  N         55.0750   18.6820   33.9710 N.am  334  SER334     -0.1938
    111  CA        54.3440   19.5570   34.8760 C.3   334  SER334      0.2055
    112  C         52.9250   19.1030   35.1370 C.2   334  SER334      0.2642
    113  O         52.2200   18.6260   34.2350 O.2   334  SER334     -0.2714
    114  CB        54.3570   21.0210   34.4030 C.3   334  SER334      0.2130
    115  OG        53.5870   21.1930   33.2310 O.3   334  SER334     -0.2179
    116  N         52.5170   19.3000   36.3870 N.am  335  VAL335     -0.1977
    117  CA        51.1450   19.1080   36.7970 C.3   335  VAL335      0.1596
    118  C         50.6980   20.4110   37.4340 C.2   335  VAL335      0.2287
    119  O         51.4220   21.0000   38.2390 O.2   335  VAL335     -0.2864
    120  CB        51.0390   17.9740   37.8300 C.3   335  VAL335      0.0276
    121  CG1       49.5940   17.7940   38.2710 C.3   335  VAL335      0.0022
    122  CG2       51.5980   16.6820   37.2480 C.3   335  VAL335      0.0022
@<TRIPOS>BOND
     1     1     2    1
     2     9    10    1
     3     2     3    1
     4     2     5    1
     5     3     4    2
     6    28    26    1
     7    10    11    1
     8    10    13    1
     9     8     6   am
    10    12    11    2
    11    11    21   am
    12    25    26    1
    13    25    22    1
    14    21    22    1
    15    26    27    1
    16     5     6    1
    17     6     7    2
    18    49    50    1
    19    22    23    1
    20    13    14    1
    21    50    51    1
    22    50    53    1
    23    51    52    2
    24    16    14   ar
    25    16    18   ar
    26    14    15   ar
    27    18    19   ar
    28    23    24    2
    29    23    29   am
    30    63    64    1
    31    15    17   ar
    32    53    54    1
    33    55    54   ar
    34    55    57   ar
    35    64    65    1
    36    64    67    1
    37    19    17   ar
    38    19    20    1
    39    29    30    1
    40    65    66    2
    41    95    94    2
    42    54    56   ar
    43    57    58   ar
    44    67    68    1
    45    94    93    1
    46    32    31    2
    47    30    31    1
    48    30    33    1
    49    69    68   ar
    50    69    71   ar
    51    56    58   ar
    52    56    59   ar
    53    68    70   ar
    54    90    89    2
    55    58    60   ar
    56    31    35   am
    57    71    72   ar
    58    97    96    1
    59    33    34    1
    60    70    72   ar
    61    93    96    1
    62    93    92    1
    63    96    98    1
    64    92    86   am
    65    59    61   ar
    66    89    88    1
    67    89    91   am
    68    60    62   ar
    69    35    36    1
    70    88    85    1
    71    46    47    2
    72    46    45    1
    73    76    75    2
    74    85    86    1
    75    85    84    1
    76    86    87    2
    77    61    62   ar
    78    36    37    1
    79    36    39    1
    80    37    38    2
    81    37    44   am
    82    44    45    1
    83    75    84   am
    84    75    74    1
    85    45    48    1
    86    40    39    1
    87    40    41    1
    88   109   108   ar
    89   109   107   ar
    90   108   106   ar
    91    74    77    1
    92    74    73    1
    93    77    78    1
    94   107   105   ar
    95    99   100    1
    96    43    41   am
    97    41    42    2
    98   106   104   ar
    99   115   114    1
   100   100   101    1
   101   100   103    1
   102   105   104   ar
   103   104   103    1
   104    80    78   ar
   105    80    82   ar
   106    78    79   ar
   107   110   101   am
   108   110   111    1
   109   101   102    2
   110   113   112    2
   111   114   111    1
   112    82    83   ar
   113   111   112    1
   114    79    81   ar
   115   112   116   am
   116    83    81   ar
   117   116   117    1
   118   117   118    1
   119   117   120    1
   120   122   120    1
   121   118   119    2
   122   120   121    1
