@<TRIPOS>MOLECULE
tmp/4q35A07.pdb
 170 159 0 0 0
SMALL
GASTEIGER

@<TRIPOS>ATOM
      1  N         30.3300   -3.8450   -3.7940 N.3   114  TYR114     -0.1241
      2  CA        29.8250   -2.7290   -3.0230 C.3   114  TYR114      0.1605
      3  C         30.4450   -1.4480   -3.5350 C.2   114  TYR114      0.2264
      4  O         31.5240   -1.4540   -4.1400 O.2   114  TYR114     -0.2867
      5  CB        30.1450   -2.9050   -1.5330 C.3   114  TYR114      0.0534
      6  CG        31.6230   -2.9260   -1.2190 C.ar  114  TYR114     -0.0201
      7  CD1       32.3530   -4.1050   -1.2930 C.ar  114  TYR114     -0.0009
      8  CD2       32.2880   -1.7660   -0.8490 C.ar  114  TYR114     -0.0009
      9  CE1       33.7050   -4.1250   -1.0080 C.ar  114  TYR114      0.0417
     10  CE2       33.6310   -1.7750   -0.5660 C.ar  114  TYR114      0.0417
     11  CZ        34.3420   -2.9570   -0.6490 C.ar  114  TYR114      0.1957
     12  OH        35.6930   -2.9610   -0.3590 O.3   114  TYR114     -0.2866
     13  N         30.5320    2.8050   -2.0280 N.3   116  MET116     -0.1245
     14  CA        30.0510    3.7370   -1.0150 C.3   116  MET116      0.1570
     15  C         29.1730    4.8000   -1.6670 C.2   116  MET116      0.2261
     16  O         29.2840    5.0670   -2.8650 O.2   116  MET116     -0.2867
     17  CB        31.2110    4.3860   -0.2470 C.3   116  MET116      0.0387
     18  CG        32.0460    3.4070    0.5670 C.3   116  MET116      0.0595
     19  SD        31.0920    2.5120    1.8140 S.3   116  MET116     -0.1393
     20  CE        31.2720    0.8430    1.2320 C.3   116  MET116      0.0692
     21  N         30.7380    9.0760   -0.4070 N.3   119  ARG119     -0.1231
     22  CA        32.2010    9.0760   -0.2680 C.3   119  ARG119      0.1694
     23  C         32.8200    8.0210   -1.1750 C.2   119  ARG119      0.2591
     24  O         32.1240    7.1430   -1.6970 O.2   119  ARG119     -0.2718
     25  CB        32.6380    8.8720    1.1890 C.3   119  ARG119      0.0321
     26  CG        32.1360    7.5750    1.8260 C.3   119  ARG119      0.0489
     27  CD        32.2680    7.6250    3.3450 C.3   119  ARG119      0.2205
     28  NE        31.4840    6.5830    4.0020 N.pl3 119  ARG119     -0.0865
     29  CZ        32.0040    5.5430    4.6450 C.cat 119  ARG119      0.5346
     30  NH1       33.3160    5.4050    4.7270 N.pl3 119  ARG119      0.1354
     31  NH2       31.2110    4.6420    5.2120 N.pl3 119  ARG119      0.1354
     32  N         34.1260    8.1150   -1.3740 N.am  120  GLN120     -0.1979
     33  CA        34.8400    7.1340   -2.1820 C.3   120  GLN120      0.1601
     34  C         34.9130    5.7320   -1.5630 C.2   120  GLN120      0.2287
     35  O         34.7170    5.5240   -0.3640 O.2   120  GLN120     -0.2864
     36  CB        36.2360    7.6340   -2.5710 C.3   120  GLN120      0.0394
     37  CG        36.2130    8.9440   -3.3640 C.3   120  GLN120      0.0908
     38  CD        37.5830    9.3740   -3.8420 C.2   120  GLN120      0.2608
     39  OE1       37.8700   10.5660   -3.9350 O.2   120  GLN120     -0.2717
     40  NE2       38.4390    8.4030   -4.1570 N.am  120  GLN120     -0.0878
     41  N         32.2530   -4.9000    8.9410 N.3   137  THR137     -0.1218
     42  CA        32.1150   -5.3720    7.5680 C.3   137  THR137      0.1862
     43  C         33.1380   -6.4860    7.3500 C.2   137  THR137      0.2287
     44  O         34.3140   -6.3070    7.6410 O.2   137  THR137     -0.2866
     45  CB        32.3820   -4.2400    6.5650 C.3   137  THR137      0.1770
     46  OG1       31.4920   -3.1510    6.8230 O.3   137  THR137     -0.2211
     47  CG2       32.1950   -4.7240    5.1320 C.3   137  THR137      0.0375
     48  N         34.7130   -9.1960    4.4730 N.3   139  LEU139     -0.1245
     49  CA        34.8370   -9.5870    3.0720 C.3   139  LEU139      0.1561
     50  C         35.6420  -10.8830    2.9680 C.2   139  LEU139      0.2260
     51  O         36.8460  -10.8850    3.2350 O.2   139  LEU139     -0.2867
     52  CB        35.5520   -8.4840    2.2860 C.3   139  LEU139      0.0270
     53  CG        34.8270   -7.2330    1.7710 C.3   139  LEU139      0.0019
     54  CD1       33.7530   -6.7500    2.7000 C.3   139  LEU139      0.0001
     55  CD2       35.8140   -6.1020    1.5080 C.3   139  LEU139      0.0001
     56  N         39.2150   -4.0470   -2.0070 N.3   144  PHE144     -0.1241
     57  CA        38.7960   -2.6930   -1.7340 C.3   144  PHE144      0.1605
     58  C         39.6910   -1.7180   -2.4960 C.2   144  PHE144      0.2264
     59  O         40.8730   -1.9780   -2.6900 O.2   144  PHE144     -0.2867
     60  CB        38.9230   -2.3840   -0.2430 C.3   144  PHE144      0.0534
     61  CG        38.8220   -0.9230    0.0590 C.ar  144  PHE144     -0.0203
     62  CD1       37.5780   -0.2900    0.0720 C.ar  144  PHE144     -0.0042
     63  CD2       39.9630   -0.1670    0.2890 C.ar  144  PHE144     -0.0042
     64  CE1       37.4760    1.0730    0.3290 C.ar  144  PHE144     -0.0003
     65  CE2       39.8710    1.1970    0.5430 C.ar  144  PHE144     -0.0003
     66  CZ        38.6240    1.8190    0.5650 C.ar  144  PHE144     -0.0000
     67  N         39.0010   -9.8540    4.8860 N.3   161  ILE161     -0.1245
     68  CA        39.1100   -8.4450    5.2330 C.3   161  ILE161      0.1561
     69  C         38.0360   -8.0890    6.2690 C.2   161  ILE161      0.2260
     70  O         36.8530   -8.3270    6.0580 O.2   161  ILE161     -0.2867
     71  CB        38.9060   -7.5450    4.0100 C.3   161  ILE161      0.0252
     72  CG1       40.0020   -7.7580    2.9800 C.3   161  ILE161      0.0019
     73  CG2       38.8650   -6.0740    4.4220 C.3   161  ILE161      0.0019
     74  CD1       39.8230   -6.8610    1.7480 C.3   161  ILE161      0.0001
     75  N         36.6570   -4.8890    8.4760 N.3   163  HIS163     -0.1241
     76  CA        36.6910   -3.4870    8.8470 C.3   163  HIS163      0.1621
     77  C         35.7960   -3.2330   10.0580 C.2   163  HIS163      0.2264
     78  O         34.6360   -3.6470   10.0900 O.2   163  HIS163     -0.2867
     79  CB        36.2560   -2.6020    7.6840 C.3   163  HIS163      0.0745
     80  CG        36.1610   -1.1510    8.0460 C.ar  163  HIS163      0.0817
     81  ND1       34.9540   -0.4970    8.1600 N.ar  163  HIS163     -0.2268
     82  CD2       37.1150   -0.2450    8.3380 C.ar  163  HIS163      0.1154
     83  CE1       35.1750    0.7620    8.4950 C.ar  163  HIS163      0.1986
     84  NE2       36.4750    0.9460    8.6060 N.ar  163  HIS163     -0.2212
     85  N         33.9800   -0.4660   12.1820 N.3   165  ARG165     -0.1245
     86  CA        33.5000    0.9100   12.0350 C.3   165  ARG165      0.1563
     87  C         33.8360    1.8110   13.2240 C.2   165  ARG165      0.2260
     88  O         34.1340    2.9900   13.0480 O.2   165  ARG165     -0.2867
     89  CB        31.9890    0.9360   11.7920 C.3   165  ARG165      0.0307
     90  CG        31.5670    0.5300   10.3990 C.3   165  ARG165      0.0489
     91  CD        30.2100    1.1340   10.0560 C.3   165  ARG165      0.2205
     92  NE        30.2550    2.5950   10.0380 N.pl3 165  ARG165     -0.0865
     93  CZ        30.5010    3.3260    8.9530 C.cat 165  ARG165      0.5346
     94  NH1       30.7210    2.7360    7.7840 N.pl3 165  ARG165      0.1354
     95  NH2       30.5250    4.6510    9.0360 N.pl3 165  ARG165      0.1354
     96  N         40.9520   -1.7470    9.5320 N.3   170  ALA170     -0.1245
     97  CA        40.7130   -2.9920    8.8190 C.3   170  ALA170      0.1562
     98  C         41.8380   -3.9750    9.1060 C.2   170  ALA170      0.2260
     99  O         43.0050   -3.6110    9.0800 O.2   170  ALA170     -0.2867
    100  CB        40.5940   -2.7360    7.3120 C.3   170  ALA170      0.0290
    101  N         43.5040   -7.3580    7.5420 N.3   172  ILE172     -0.1245
    102  CA        43.5360   -8.0830    6.2780 C.3   172  ILE172      0.1561
    103  C         44.4580   -9.2830    6.3860 C.2   172  ILE172      0.2260
    104  O         45.6390   -9.1390    6.7040 O.2   172  ILE172     -0.2867
    105  CB        44.0130   -7.1970    5.1200 C.3   172  ILE172      0.0252
    106  CG1       43.3110   -5.8430    5.1650 C.3   172  ILE172      0.0019
    107  CG2       43.7820   -7.9040    3.7750 C.3   172  ILE172      0.0019
    108  CD1       43.8430   -4.8530    4.1780 C.3   172  ILE172      0.0001
    109  N         45.1790   -1.7670    8.8770 N.3   192  LEU192     -0.1245
    110  CA        45.2190   -0.4530    8.2610 C.3   192  LEU192      0.1561
    111  C         44.2480    0.5060    8.9410 C.2   192  LEU192      0.2260
    112  O         43.1260    0.1370    9.2580 O.2   192  LEU192     -0.2867
    113  CB        44.9000   -0.5760    6.7670 C.3   192  LEU192      0.0270
    114  CG        45.9000   -1.4720    6.0180 C.3   192  LEU192      0.0019
    115  CD1       45.4950   -1.6660    4.5710 C.3   192  LEU192      0.0001
    116  CD2       47.3310   -0.9130    6.1110 C.3   192  LEU192      0.0001
    117  N         41.7150    2.8340    8.6190 N.3   194  VAL194     -0.1231
    118  CA        40.7120    3.1570    7.6040 C.3   194  VAL194      0.1692
    119  C         39.3480    3.4160    8.2130 C.2   194  VAL194      0.2593
    120  O         38.7540    2.5210    8.8120 O.2   194  VAL194     -0.2718
    121  CB        40.5210    1.9830    6.6160 C.3   194  VAL194      0.0266
    122  CG1       39.3310    2.2360    5.7220 C.3   194  VAL194      0.0020
    123  CG2       41.7630    1.7740    5.7890 C.3   194  VAL194      0.0020
    124  N         38.8400    4.6300    8.0460 N.am  195  GLY195     -0.1942
    125  CA        37.5050    4.9550    8.5230 C.3   195  GLY195      0.2014
    126  C         37.0570    6.3530    8.1390 C.2   195  GLY195      0.2638
    127  O         37.8920    7.2200    7.8520 O.2   195  GLY195     -0.2714
    128  N         35.7440    6.5770    8.1640 N.am  196  ASP196     -0.1971
    129  CA        35.1590    7.8630    7.7690 C.3   196  ASP196      0.1709
    130  C         35.6610    9.0730    8.5730 C.2   196  ASP196      0.2293
    131  O         35.7060   10.1910    8.0580 O.2   196  ASP196     -0.2864
    132  CB        33.6210    7.7990    7.7750 C.3   196  ASP196      0.1436
    133  CG        33.0450    7.3250    9.1050 C.2   196  ASP196      0.3671
    134  OD1       33.7100    7.4840   10.1510 O.co2 196  ASP196     -0.2456
    135  OD2       31.9110    6.7990    9.1040 O.co2 196  ASP196     -0.2456
    136  N         45.8230    5.3170    4.9040 N.3   202  PHE202     -0.1241
    137  CA        46.8060    4.3840    5.4550 C.3   202  PHE202      0.1605
    138  C         48.1270    4.3860    4.6830 C.2   202  PHE202      0.2264
    139  O         48.1410    4.6050    3.4720 O.2   202  PHE202     -0.2867
    140  CB        46.2300    2.9670    5.6120 C.3   202  PHE202      0.0534
    141  CG        45.8940    2.2740    4.3160 C.ar  202  PHE202     -0.0203
    142  CD1       46.8670    1.5890    3.6020 C.ar  202  PHE202     -0.0042
    143  CD2       44.5930    2.2610    3.8420 C.ar  202  PHE202     -0.0042
    144  CE1       46.5510    0.9330    2.4270 C.ar  202  PHE202     -0.0003
    145  CE2       44.2700    1.6070    2.6650 C.ar  202  PHE202     -0.0003
    146  CZ        45.2490    0.9430    1.9580 C.ar  202  PHE202     -0.0000
    147  N         41.5630    9.4910   -1.0600 N.3   734  GLY734     -0.1210
    148  CA        40.2090    8.9680   -1.0300 C.3   734  GLY734      0.1956
    149  C         39.8770    8.2090    0.2500 C.2   734  GLY734      0.2612
    150  O         38.7590    7.7230    0.4170 O.2   734  GLY734     -0.2717
    151  N         40.8560    8.0710    1.1370 N.am  735  LEU735     -0.1965
    152  CA        40.6630    7.3510    2.3950 C.3   735  LEU735      0.1728
    153  C         40.3420    8.3140    3.5330 C.2   735  LEU735      0.2617
    154  O         40.1850    7.9110    4.6860 O.2   735  LEU735     -0.2715
    155  CB        41.9020    6.5280    2.7510 C.3   735  LEU735      0.0311
    156  CG        42.0960    5.1830    2.0590 C.3   735  LEU735      0.0022
    157  CD1       40.8330    4.3520    2.1780 C.3   735  LEU735      0.0001
    158  CD2       42.5000    5.3580    0.6040 C.3   735  LEU735      0.0001
    159  N         40.2650    9.5950    3.2010 N.am  736  SER736     -0.1936
    160  CA        39.9720   10.6230    4.1850 C.3   736  SER736      0.2055
    161  C         39.3850   11.8190    3.4650 C.2   736  SER736      0.2643
    162  O         39.0630   11.7430    2.2780 O.2   736  SER736     -0.2714
    163  CB        41.2310   11.0260    4.9550 C.3   736  SER736      0.2130
    164  OG        42.1370   11.7410    4.1310 O.3   736  SER736     -0.2179
    165  N         39.2460   12.9220    4.1870 N.am  737  SER737     -0.1949
    166  CA        38.6370   14.1220    3.6330 C.3   737  SER737      0.1924
    167  C         39.6000   14.9570    2.7980 C.2   737  SER737      0.2314
    168  O         39.1810   15.9080    2.1360 O.2   737  SER737     -0.2863
    169  CB        38.0500   14.9860    4.7530 C.3   737  SER737      0.2116
    170  OG        36.9170   14.3690    5.3380 O.3   737  SER737     -0.2180
@<TRIPOS>BOND
     1    40    38   am
     2     4     3    2
     3    39    38    2
     4    38    37    1
     5     1     2    1
     6     3     2    1
     7    37    36    1
     8     2     5    1
     9    16    15    2
    10    59    58    2
    11    36    33    1
    12    58    57    1
    13    33    34    1
    14    33    32    1
    15    13    14    1
    16    56    57    1
    17    57    60    1
    18    24    23    2
    19    15    14    1
    20    34    35    2
    21     5     6    1
    22    32    23   am
    23     7     6   ar
    24     7     9   ar
    25     6     8   ar
    26    23    22    1
    27   147   148    1
    28   148   149    1
    29    14    17    1
    30     9    11   ar
    31     8    10   ar
    32    11    10   ar
    33    11    12    1
    34    21    22    1
    35    22    25    1
    36    17    18    1
    37    60    61    1
    38    61    62   ar
    39    61    63   ar
    40    62    64   ar
    41   149   150    2
    42   149   151   am
    43    63    65   ar
    44    64    66   ar
    45    65    66   ar
    46    18    19    1
    47   158   156    1
    48   151   152    1
    49    25    26    1
    50    20    19    1
    51    55    53    1
    52    74    72    1
    53    53    52    1
    54    53    54    1
    55    26    27    1
    56   146   144   ar
    57   146   145   ar
    58   156   157    1
    59   156   155    1
    60   168   167    2
    61   162   161    2
    62    52    49    1
    63   152   155    1
    64   152   153    1
    65   144   142   ar
    66   145   143   ar
    67   167   166    1
    68    50    49    1
    69    50    51    2
    70    72    71    1
    71    49    48    1
    72   159   153   am
    73   159   160    1
    74    27    28    1
    75   161   160    1
    76   161   165   am
    77   139   138    2
    78   153   154    2
    79   142   141   ar
    80   166   165    1
    81   166   169    1
    82   107   105    1
    83   143   141   ar
    84    28    29    2
    85    71    73    1
    86    71    68    1
    87   164   163    1
    88   108   106    1
    89   160   163    1
    90   141   140    1
    91   115   114    1
    92    29    30    1
    93    29    31    1
    94   138   137    1
    95   169   170    1
    96    67    68    1
    97   136   137    1
    98   105   106    1
    99   105   102    1
   100    47    45    1
   101    68    69    1
   102   137   140    1
   103   122   121    1
   104   123   121    1
   105   114   116    1
   106   114   113    1
   107    70    69    2
   108   102   103    1
   109   102   101    1
   110   103   104    2
   111    45    46    1
   112    45    42    1
   113   121   118    1
   114   113   110    1
   115   100    97    1
   116    43    42    1
   117    43    44    2
   118    42    41    1
   119   118   119    1
   120   118   117    1
   121    79    80    1
   122    79    76    1
   123   129   132    1
   124   129   128    1
   125   129   130    1
   126   132   133    1
   127    94    93    1
   128   127   126    2
   129    80    81   ar
   130    80    82   ar
   131   124   119   am
   132   124   125    1
   133   131   130    2
   134   126   128   am
   135   126   125    1
   136    81    83   ar
   137   119   120    2
   138   110   109    1
   139   110   111    1
   140    82    84   ar
   141    75    76    1
   142    83    84   ar
   143    97    98    1
   144    97    96    1
   145    76    77    1
   146   111   112    2
   147    93    95    1
   148    93    92    2
   149    99    98    2
   150   135   133   ar
   151   133   134   ar
   152    92    91    1
   153    91    90    1
   154    77    78    2
   155    90    89    1
   156    89    86    1
   157    86    85    1
   158    86    87    1
   159    88    87    2
