@<TRIPOS>MOLECULE
tmp/4q38A00.pdb
 218 213 0 0 0
SMALL
GASTEIGER

@<TRIPOS>ATOM
      1  N        -28.7310  -50.9960   11.1590 N.3   178  ARG178     -0.1245
      2  CA       -27.8560  -49.8300   10.9520 C.3   178  ARG178      0.1563
      3  C        -27.9130  -49.3190    9.5040 C.2   178  ARG178      0.2260
      4  O        -27.7770  -48.1200    9.2580 O.2   178  ARG178     -0.2867
      5  CB       -26.4010  -50.1510   11.3540 C.3   178  ARG178      0.0307
      6  CG       -25.4530  -48.9460   11.3660 C.3   178  ARG178      0.0489
      7  CD       -25.9540  -47.8990   12.3530 C.3   178  ARG178      0.2205
      8  NE       -25.2960  -46.5900   12.2490 N.pl3 178  ARG178     -0.0865
      9  CZ       -25.5740  -45.6500   11.3470 C.cat 178  ARG178      0.5346
     10  NH1      -26.4800  -45.8630   10.3840 N.pl3 178  ARG178      0.1354
     11  NH2      -24.9270  -44.4920   11.3940 N.pl3 178  ARG178      0.1354
     12  N        -26.3430  -45.5590    4.2150 N.3   197  VAL197     -0.1231
     13  CA       -26.0070  -45.4050    5.6280 C.3   197  VAL197      0.1678
     14  C        -26.6290  -44.1020    6.1370 C.2   197  VAL197      0.2434
     15  O        -26.1340  -43.0100    5.8300 O.2   197  VAL197     -0.2733
     16  CB       -24.4690  -45.4040    5.8740 C.3   197  VAL197      0.0265
     17  CG1      -24.1670  -45.3030    7.3720 C.3   197  VAL197      0.0020
     18  CG2      -23.8100  -46.6540    5.2880 C.3   197  VAL197      0.0020
     19  N        -27.7370  -44.2060    6.8810 N.am  198  PRO198     -0.2718
     20  CA       -28.2990  -43.0140    7.5050 C.3   198  PRO198      0.1535
     21  C        -27.3750  -42.5080    8.6130 C.2   198  PRO198      0.2598
     22  O        -26.5840  -43.2750    9.1750 O.2   198  PRO198     -0.2715
     23  CB       -29.6300  -43.5000    8.0870 C.3   198  PRO198      0.0310
     24  CG       -29.4960  -44.9780    8.2110 C.3   198  PRO198      0.0237
     25  CD       -28.5090  -45.4280    7.1780 C.3   198  PRO198      0.0939
     26  N        -27.4540  -41.2230    8.9070 N.am  199  GLU199     -0.1978
     27  CA       -26.5330  -40.6420    9.8740 C.3   199  GLU199      0.1602
     28  C        -26.8340  -41.1550   11.2790 C.2   199  GLU199      0.2287
     29  O        -25.9330  -41.5820   11.9950 O.2   199  GLU199     -0.2864
     30  CB       -26.5840  -39.1130    9.8430 C.3   199  GLU199      0.0415
     31  CG       -25.6850  -38.4910   10.9160 C.3   199  GLU199      0.1163
     32  CD       -25.6830  -36.9790   10.8830 C.2   199  GLU199      0.3649
     33  OE1      -25.3650  -36.4000    9.8270 O.co2 199  GLU199     -0.2457
     34  OE2      -26.0010  -36.3730   11.9250 O.co2 199  GLU199     -0.2457
     35  N        -25.5400  -44.0580   15.5050 N.3   202  GLY202     -0.1210
     36  CA       -24.1740  -44.2560   16.0080 C.3   202  GLY202      0.1940
     37  C        -23.1760  -44.7610   14.9700 C.2   202  GLY202      0.2454
     38  O        -23.4750  -44.7810   13.7730 O.2   202  GLY202     -0.2732
     39  N        -21.9710  -45.1680   15.4250 N.am  203  PRO203     -0.2717
     40  CA       -20.9220  -45.6030   14.5000 C.3   203  PRO203      0.1535
     41  C        -21.3010  -46.8120   13.6590 C.2   203  PRO203      0.2598
     42  O        -22.1700  -47.5980   14.0370 O.2   203  PRO203     -0.2715
     43  CB       -19.7470  -45.9570   15.4300 C.3   203  PRO203      0.0310
     44  CG       -19.9790  -45.1280   16.6560 C.3   203  PRO203      0.0237
     45  CD       -21.4780  -45.0900   16.8190 C.3   203  PRO203      0.0939
     46  N        -20.6370  -46.9480   12.5180 N.am  204  LEU204     -0.1978
     47  CA       -20.8500  -48.0770   11.6300 C.3   204  LEU204      0.1596
     48  C        -20.0630  -49.2910   12.1530 C.2   204  LEU204      0.2287
     49  O        -19.1170  -49.7570   11.5120 O.2   204  LEU204     -0.2864
     50  CB       -20.3980  -47.6960   10.2150 C.3   204  LEU204      0.0297
     51  CG       -21.2750  -47.9940    8.9970 C.3   204  LEU204      0.0022
     52  CD1      -20.4080  -48.0900    7.7520 C.3   204  LEU204      0.0001
     53  CD2      -22.1200  -49.2480    9.1590 C.3   204  LEU204      0.0001
     54  N        -22.5020  -46.4540   -3.6550 N.3   235  SER235     -0.1202
     55  CA       -21.6890  -45.3560   -4.1900 C.3   235  SER235      0.2020
     56  C        -21.5300  -44.3370   -3.0680 C.2   235  SER235      0.2619
     57  O        -22.5240  -43.8670   -2.5150 O.2   235  SER235     -0.2717
     58  CB       -22.3470  -44.6820   -5.3970 C.3   235  SER235      0.2103
     59  OG       -22.5670  -45.5960   -6.4520 O.3   235  SER235     -0.2182
     60  N        -20.2920  -44.0120   -2.7060 N.am  236  SER236     -0.1937
     61  CA       -20.0750  -43.1740   -1.5350 C.3   236  SER236      0.2055
     62  C        -18.6740  -42.5940   -1.4640 C.2   236  SER236      0.2643
     63  O        -17.7100  -43.1950   -1.9380 O.2   236  SER236     -0.2714
     64  CB       -20.3370  -43.9750   -0.2530 C.3   236  SER236      0.2130
     65  OG       -20.2440  -43.1460    0.8950 O.3   236  SER236     -0.2179
     66  N        -18.5720  -41.4280   -0.8390 N.am  237  TRP237     -0.1959
     67  CA       -17.2750  -40.8960   -0.4240 C.3   237  TRP237      0.1771
     68  C        -16.5220  -41.8960    0.4430 C.2   237  TRP237      0.2619
     69  O        -15.2850  -41.8860    0.4740 O.2   237  TRP237     -0.2715
     70  CB       -17.4820  -39.5870    0.3230 C.3   237  TRP237      0.0590
     71  CG       -18.2570  -39.7380    1.6120 C.ar  237  TRP237      0.0006
     72  CD1      -19.6390  -39.6280    1.7950 C.ar  237  TRP237      0.0946
     73  CD2      -17.7230  -40.0470    2.9420 C.ar  237  TRP237      0.0152
     74  NE1      -19.9780  -39.8430    3.1050 N.ar  237  TRP237     -0.2442
     75  CE2      -18.8810  -40.0910    3.8500 C.ar  237  TRP237      0.0810
     76  CE3      -16.4480  -40.2870    3.4590 C.ar  237  TRP237      0.0012
     77  CZ2      -18.7450  -40.3560    5.2040 C.ar  237  TRP237      0.0191
     78  CZ3      -16.3270  -40.5570    4.8240 C.ar  237  TRP237      0.0001
     79  CH2      -17.4510  -40.5930    5.6740 C.ar  237  TRP237      0.0015
     80  N        -17.2750  -42.7750    1.1250 N.am  238  MET238     -0.1977
     81  CA       -16.7430  -43.7690    2.0770 C.3   238  MET238      0.1605
     82  C        -15.8640  -44.8210    1.4340 C.2   238  MET238      0.2287
     83  O        -15.0250  -45.4390    2.0970 O.2   238  MET238     -0.2864
     84  CB       -17.8820  -44.5510    2.7250 C.3   238  MET238      0.0413
     85  CG       -18.5270  -43.9320    3.9380 C.3   238  MET238      0.0598
     86  SD       -19.7560  -45.1310    4.4770 S.3   238  MET238     -0.1393
     87  CE       -21.0540  -44.0280    5.0010 C.3   238  MET238      0.0692
     88  N         -6.9740  -42.2210    7.7740 N.3   247  LEU247     -0.1231
     89  CA        -7.6710  -42.9410    8.8310 C.3   247  LEU247      0.1693
     90  C         -6.8740  -44.1560    9.2480 C.2   247  LEU247      0.2592
     91  O         -6.2180  -44.7860    8.4190 O.2   247  LEU247     -0.2718
     92  CB        -9.0730  -43.3490    8.3790 C.3   247  LEU247      0.0284
     93  CG       -10.0010  -42.2080    7.9450 C.3   247  LEU247      0.0019
     94  CD1      -11.3360  -42.7580    7.4560 C.3   247  LEU247      0.0001
     95  CD2      -10.2030  -41.1930    9.0630 C.3   247  LEU247      0.0001
     96  N         -6.9330  -44.4840   10.5330 N.am  248  THR248     -0.1953
     97  CA        -6.1490  -45.5940   11.0540 C.3   248  THR248      0.1897
     98  C         -6.9260  -46.9050   11.0150 C.2   248  THR248      0.2313
     99  O         -8.0560  -46.9640   10.5180 O.2   248  THR248     -0.2863
    100  CB        -5.5880  -45.3060   12.4660 C.3   248  THR248      0.1794
    101  OG1       -6.6290  -44.8060   13.3070 O.3   248  THR248     -0.2208
    102  CG2       -4.4730  -44.2650   12.3980 C.3   248  THR248      0.0378
    103  N         -8.2830  -48.6070   13.3010 N.3   250  ASP250     -0.1225
    104  CA        -9.4600  -48.6690   14.1550 C.3   250  ASP250      0.1805
    105  C        -10.6980  -48.0620   13.4730 C.2   250  ASP250      0.2598
    106  O        -11.8140  -48.2200   13.9670 O.2   250  ASP250     -0.2718
    107  CB        -9.1840  -48.0080   15.5100 C.3   250  ASP250      0.1424
    108  CG        -8.8560  -46.5320   15.3880 C.2   250  ASP250      0.3668
    109  OD1       -8.2510  -46.1360   14.3700 O.co2 250  ASP250     -0.2456
    110  OD2       -9.2020  -45.7640   16.3110 O.co2 250  ASP250     -0.2456
    111  N        -10.5010  -47.4000   12.3330 N.am  251  SER251     -0.1938
    112  CA       -11.6160  -46.8070   11.5860 C.3   251  SER251      0.2055
    113  C        -12.5760  -47.8880   11.0930 C.2   251  SER251      0.2643
    114  O        -12.1570  -48.8830   10.4930 O.2   251  SER251     -0.2714
    115  CB       -11.1100  -45.9560   10.4180 C.3   251  SER251      0.2130
    116  OG       -12.1330  -45.7230    9.4540 O.3   251  SER251     -0.2179
    117  N        -13.8610  -47.7020   11.3810 N.am  252  ASN252     -0.1957
    118  CA       -14.9050  -48.5950   10.8750 C.3   252  ASN252      0.1819
    119  C        -14.9790  -48.5930    9.3470 C.2   252  ASN252      0.2621
    120  O        -15.1140  -49.6490    8.7310 O.2   252  ASN252     -0.2715
    121  CB       -16.2640  -48.2190   11.4790 C.3   252  ASN252      0.1195
    122  CG       -16.3200  -48.4840   12.9750 C.2   252  ASN252      0.2630
    123  OD1      -15.8040  -49.4920   13.4440 O.2   252  ASN252     -0.2716
    124  ND2      -16.9350  -47.5760   13.7260 N.am  252  ASN252     -0.0877
    125  N        -14.8830  -47.4040    8.7550 N.am  253  ILE253     -0.1977
    126  CA       -14.8720  -47.2490    7.2930 C.3   253  ILE253      0.1596
    127  C        -13.7430  -48.0830    6.6710 C.2   253  ILE253      0.2287
    128  O        -13.9880  -48.9070    5.7840 O.2   253  ILE253     -0.2864
    129  CB       -14.8010  -45.7590    6.8830 C.3   253  ILE253      0.0276
    130  CG1      -16.1330  -45.0660    7.2350 C.3   253  ILE253      0.0022
    131  CG2      -14.4940  -45.6070    5.3910 C.3   253  ILE253      0.0022
    132  CD1      -16.1190  -43.5510    7.1760 C.3   253  ILE253      0.0001
    133  N        -19.7030  -33.8470   -1.8890 N.3   277  SER277     -0.1217
    134  CA       -20.3190  -34.9730   -1.1900 C.3   277  SER277      0.1889
    135  C        -19.6920  -35.2050    0.1870 C.2   277  SER277      0.2288
    136  O        -20.4050  -35.2250    1.1900 O.2   277  SER277     -0.2866
    137  CB       -20.2390  -36.2450   -2.0350 C.3   277  SER277      0.2089
    138  OG       -20.8790  -37.3250   -1.3770 O.3   277  SER277     -0.2183
    139  N        -21.4450  -34.7140    3.9680 N.3   281  PHE281     -0.1227
    140  CA       -21.5890  -35.7470    4.9900 C.3   281  PHE281      0.1736
    141  C        -20.6840  -35.6580    6.2120 C.2   281  PHE281      0.2595
    142  O        -21.0200  -36.1980    7.2760 O.2   281  PHE281     -0.2718
    143  CB       -21.5530  -37.1350    4.3490 C.3   281  PHE281      0.0547
    144  CG       -22.7650  -37.4230    3.5270 C.ar  281  PHE281     -0.0202
    145  CD1      -24.0070  -37.6170    4.1460 C.ar  281  PHE281     -0.0042
    146  CD2      -22.6900  -37.4590    2.1430 C.ar  281  PHE281     -0.0042
    147  CE1      -25.1480  -37.8650    3.3950 C.ar  281  PHE281     -0.0003
    148  CE2      -23.8280  -37.6970    1.3830 C.ar  281  PHE281     -0.0003
    149  CZ       -25.0580  -37.9040    2.0120 C.ar  281  PHE281     -0.0000
    150  N        -19.5580  -34.9670    6.0770 N.am  282  VAL282     -0.1980
    151  CA       -18.6650  -34.7720    7.2180 C.3   282  VAL282      0.1595
    152  C        -18.9850  -33.4860    7.9780 C.2   282  VAL282      0.2287
    153  O        -18.8760  -33.4550    9.1970 O.2   282  VAL282     -0.2864
    154  CB       -17.1710  -34.8360    6.8060 C.3   282  VAL282      0.0276
    155  CG1      -16.2590  -34.5060    7.9730 C.3   282  VAL282      0.0022
    156  CG2      -16.8350  -36.2320    6.2880 C.3   282  VAL282      0.0022
    157  N        -21.8100  -31.1320    6.8220 N.3   284  ARG284     -0.1245
    158  CA       -23.0350  -30.4930    6.3030 C.3   284  ARG284      0.1563
    159  C        -22.6630  -29.1100    5.7830 C.2   284  ARG284      0.2260
    160  O        -23.2290  -28.0890    6.2000 O.2   284  ARG284     -0.2867
    161  CB       -24.1410  -30.4010    7.3680 C.3   284  ARG284      0.0307
    162  CG       -24.6140  -31.7350    7.9320 C.3   284  ARG284      0.0489
    163  CD       -25.2240  -32.6390    6.8690 C.3   284  ARG284      0.2205
    164  NE       -25.3710  -34.0040    7.3780 N.pl3 284  ARG284     -0.0865
    165  CZ       -25.8290  -35.0310    6.6710 C.cat 284  ARG284      0.5346
    166  NH1      -26.1940  -34.8590    5.4090 N.pl3 284  ARG284      0.1354
    167  NH2      -25.9140  -36.2360    7.2270 N.pl3 284  ARG284      0.1354
    168  N        -12.1860  -31.7370   15.1990 N.3   296  ARG296     -0.1231
    169  CA       -12.2030  -32.6130   16.3700 C.3   296  ARG296      0.1694
    170  C        -11.8680  -34.0800   16.0680 C.2   296  ARG296      0.2593
    171  O        -11.1710  -34.7260   16.8550 O.2   296  ARG296     -0.2718
    172  CB       -13.5520  -32.5160   17.0910 C.3   296  ARG296      0.0321
    173  CG       -13.8530  -31.1470   17.6960 C.3   296  ARG296      0.0489
    174  CD       -15.3320  -30.9870   18.0300 C.3   296  ARG296      0.2205
    175  NE       -16.1520  -30.7690   16.8340 N.pl3 296  ARG296     -0.0865
    176  CZ       -16.8320  -31.7170   16.1880 C.cat 296  ARG296      0.5346
    177  NH1      -16.8100  -32.9760   16.6130 N.pl3 296  ARG296      0.1354
    178  NH2      -17.5420  -31.4050   15.1100 N.pl3 296  ARG296      0.1354
    179  N        -12.3670  -34.6050   14.9480 N.am  297  SER297     -0.1938
    180  CA       -12.1680  -36.0210   14.6060 C.3   297  SER297      0.2055
    181  C        -11.0810  -36.2040   13.5520 C.2   297  SER297      0.2644
    182  O        -10.7660  -35.2700   12.8080 O.2   297  SER297     -0.2714
    183  CB       -13.4780  -36.6460   14.1050 C.3   297  SER297      0.2130
    184  OG       -13.7540  -36.2410   12.7690 O.3   297  SER297     -0.2179
    185  N        -10.5310  -37.4150   13.4650 N.am  298  SER298     -0.1935
    186  CA        -9.5050  -37.7070   12.4630 C.3   298  SER298      0.2055
    187  C        -10.0020  -37.4910   11.0250 C.2   298  SER298      0.2643
    188  O         -9.2480  -37.0270   10.1740 O.2   298  SER298     -0.2714
    189  CB        -8.8780  -39.0990   12.6590 C.3   298  SER298      0.2130
    190  OG        -9.8230  -40.1470   12.5420 O.3   298  SER298     -0.2179
    191  N        -11.2750  -37.7910   10.7700 N.am  299  LEU299     -0.1963
    192  CA       -11.8440  -37.6090    9.4340 C.3   299  LEU299      0.1728
    193  C        -12.0400  -36.1400    9.0670 C.2   299  LEU299      0.2616
    194  O        -11.7790  -35.7430    7.9280 O.2   299  LEU299     -0.2715
    195  CB       -13.1590  -38.3860    9.2920 C.3   299  LEU299      0.0311
    196  CG       -13.9640  -38.2570    7.9940 C.3   299  LEU299      0.0022
    197  CD1      -13.1360  -38.6670    6.7860 C.3   299  LEU299      0.0001
    198  CD2      -15.2150  -39.1050    8.1150 C.3   299  LEU299      0.0001
    199  N        -12.5090  -35.3410   10.0260 N.am  300  GLU300     -0.1963
    200  CA       -12.6250  -33.8930    9.8350 C.3   300  GLU300      0.1733
    201  C        -11.2710  -33.2870    9.4550 C.2   300  GLU300      0.2616
    202  O        -11.1860  -32.4750    8.5270 O.2   300  GLU300     -0.2715
    203  CB       -13.1700  -33.2110   11.0960 C.3   300  GLU300      0.0429
    204  CG       -14.6490  -33.4630   11.3630 C.3   300  GLU300      0.1163
    205  CD       -15.0980  -33.0000   12.7410 C.2   300  GLU300      0.3649
    206  OE1      -14.2590  -32.9320   13.6700 O.co2 300  GLU300     -0.2457
    207  OE2      -16.3020  -32.7080   12.9050 O.co2 300  GLU300     -0.2457
    208  N        -10.2200  -33.6950   10.1660 N.am  301  ARG301     -0.1977
    209  CA        -8.8510  -33.2270    9.8800 C.3   301  ARG301      0.1597
    210  C         -8.3880  -33.7330    8.5160 C.2   301  ARG301      0.2287
    211  O         -7.7510  -33.0040    7.7670 O.2   301  ARG301     -0.2864
    212  CB        -7.8800  -33.6530   10.9890 C.3   301  ARG301      0.0334
    213  CG        -8.1970  -33.0180   12.3410 C.3   301  ARG301      0.0492
    214  CD        -7.1350  -33.2600   13.4070 C.3   301  ARG301      0.2205
    215  NE        -7.0020  -34.6680   13.7900 N.pl3 301  ARG301     -0.0865
    216  CZ        -7.7310  -35.2870   14.7180 C.cat 301  ARG301      0.5346
    217  NH1       -8.6860  -34.6420   15.3810 N.pl3 301  ARG301      0.1354
    218  NH2       -7.5030  -36.5670   14.9900 N.pl3 301  ARG301      0.1354
@<TRIPOS>BOND
     1    59    58    1
     2    58    55    1
     3    55    54    1
     4    55    56    1
     5    56    60   am
     6    56    57    2
     7    60    61    1
     8   137   138    1
     9   137   134    1
    10    63    62    2
    11   133   134    1
    12    61    62    1
    13    61    64    1
    14    62    66   am
    15   134   135    1
    16    66    67    1
    17    67    70    1
    18    67    68    1
    19    64    65    1
    20   135   136    2
    21    70    71    1
    22    68    69    2
    23    68    80   am
    24    80    81    1
    25   148   149   ar
    26   148   146   ar
    27    82    81    1
    28    82    83    2
    29    71    72   ar
    30    71    73   ar
    31    72    74   ar
    32   149   147   ar
    33    81    84    1
    34   146   144   ar
    35    84    85    1
    36    73    76   ar
    37    73    75   ar
    38    74    75   ar
    39   147   145   ar
    40    76    78   ar
    41   144   145   ar
    42   144   143    1
    43    75    77   ar
    44    85    86    1
    45   139   140    1
    46    12    13    1
    47   143   140    1
    48    86    87    1
    49    78    79   ar
    50   140   141    1
    51    77    79   ar
    52    18    16    1
    53   131   129    1
    54   166   165    1
    55    13    16    1
    56    13    14    1
    57   159   160    2
    58   159   158    1
    59   128   127    2
    60    15    14    2
    61    16    17    1
    62   150   141   am
    63   150   151    1
    64    14    19   am
    65   141   142    2
    66   156   154    1
    67   158   157    1
    68   158   161    1
    69   127   126    1
    70   165   167    1
    71   165   164    2
    72   197   196    1
    73   154   151    1
    74   154   155    1
    75   163   164    1
    76   163   162    1
    77    19    25    1
    78    19    20    1
    79   129   130    1
    80   129   126    1
    81   132   130    1
    82    25    24    1
    83   151   152    1
    84   126   125    1
    85   161   162    1
    86    94    93    1
    87    20    23    1
    88    20    21    1
    89    52    51    1
    90   211   210    2
    91    88    89    1
    92   194   193    2
    93    93    92    1
    94    93    95    1
    95   152   153    2
    96   196   198    1
    97   196   195    1
    98    23    24    1
    99    92    89    1
   100    91    90    2
   101   210   209    1
   102   202   201    2
   103    21    26   am
   104    21    22    2
   105   120   119    2
   106   125   119   am
   107    89    90    1
   108    26    27    1
   109    51    53    1
   110    51    50    1
   111   193   192    1
   112   193   199   am
   113    90    96   am
   114     4     3    2
   115   195   192    1
   116   119   118    1
   117   192   191    1
   118   116   115    1
   119   201   200    1
   120   201   208   am
   121     3     2    1
   122    33    32   ar
   123   200   199    1
   124   200   203    1
   125    30    27    1
   126    30    31    1
   127    27    28    1
   128   209   208    1
   129   209   212    1
   130   188   187    2
   131    50    47    1
   132    10     9    1
   133   115   112    1
   134   114   113    2
   135    99    98    2
   136    96    97    1
   137   191   187   am
   138   118   117    1
   139   118   121    1
   140    32    31    1
   141    32    34   ar
   142     2     1    1
   143     2     5    1
   144   212   213    1
   145    98    97    1
   146   187   186    1
   147    97   100    1
   148   113   117   am
   149   113   112    1
   150   203   204    1
   151    28    29    2
   152     9    11    1
   153     9     8    2
   154     5     6    1
   155   204   205    1
   156     6     7    1
   157   121   122    1
   158    49    48    2
   159   112   111    1
   160    47    48    1
   161    47    46    1
   162     8     7    1
   163   111   105   am
   164   213   214    1
   165   102   100    1
   166   186   189    1
   167   186   185    1
   168   100   101    1
   169    46    41   am
   170   190   189    1
   171   205   207   ar
   172   205   206   ar
   173   184   183    1
   174   182   181    2
   175   122   123    2
   176   122   124   am
   177   103   104    1
   178   214   215    1
   179   185   181   am
   180   105   106    2
   181   105   104    1
   182   181   180    1
   183    41    42    2
   184    41    40    1
   185    38    37    2
   186   215   216    2
   187   183   180    1
   188   104   107    1
   189   109   108   ar
   190    40    39    1
   191    40    43    1
   192   180   179    1
   193   216   218    1
   194   216   217    1
   195   179   170   am
   196    37    39   am
   197    37    36    1
   198   178   176    1
   199   168   169    1
   200   108   107    1
   201   108   110   ar
   202    39    45    1
   203    43    44    1
   204    35    36    1
   205   170   169    1
   206   170   171    2
   207   176   177    1
   208   176   175    2
   209   169   172    1
   210    44    45    1
   211   175   174    1
   212   172   173    1
   213   173   174    1
