@<TRIPOS>MOLECULE
tmp/4q38A01.pdb
 220 215 0 0 0
SMALL
GASTEIGER

@<TRIPOS>ATOM
      1  N        -36.2440  -41.6290    9.3620 N.3   142  GLN142     -0.1245
      2  CA       -35.2450  -40.7410    8.7640 C.3   142  GLN142      0.1566
      3  C        -35.7950  -39.3300    8.5250 C.2   142  GLN142      0.2260
      4  O        -35.0200  -38.3900    8.3740 O.2   142  GLN142     -0.2867
      5  CB       -34.5590  -41.2840    7.4930 C.3   142  GLN142      0.0367
      6  CG       -33.2420  -40.5240    7.2440 C.3   142  GLN142      0.0905
      7  CD       -32.3580  -41.0770    6.1400 C.2   142  GLN142      0.2608
      8  OE1      -31.1170  -40.9330    6.1810 O.2   142  GLN142     -0.2717
      9  NE2      -32.9650  -41.6790    5.1500 N.am  142  GLN142     -0.0878
     10  N        -34.3340  -37.2210   11.2400 N.3   145  GLU145     -0.1231
     11  CA       -32.9100  -36.9970   10.9800 C.3   145  GLU145      0.1699
     12  C        -32.7200  -35.8730    9.9630 C.2   145  GLU145      0.2592
     13  O        -31.8910  -34.9870   10.1430 O.2   145  GLU145     -0.2718
     14  CB       -32.2810  -38.3020   10.4640 C.3   145  GLU145      0.0402
     15  CG       -30.8260  -38.1880    9.9960 C.3   145  GLU145      0.1161
     16  CD       -30.2880  -39.4900    9.4210 C.2   145  GLU145      0.3649
     17  OE1      -30.4580  -40.5360   10.0740 O.co2 145  GLU145     -0.2457
     18  OE2      -29.6810  -39.4730    8.3190 O.co2 145  GLU145     -0.2457
     19  N        -33.5110  -35.9090    8.8960 N.am  146  LEU146     -0.1980
     20  CA       -33.3590  -34.9430    7.8030 C.3   146  LEU146      0.1596
     21  C        -33.8590  -33.5640    8.2240 C.2   146  LEU146      0.2287
     22  O        -33.2960  -32.5500    7.8230 O.2   146  LEU146     -0.2864
     23  CB       -34.0890  -35.4350    6.5510 C.3   146  LEU146      0.0297
     24  CG       -33.5530  -36.7450    5.9330 C.3   146  LEU146      0.0022
     25  CD1      -34.5850  -37.3460    4.9860 C.3   146  LEU146      0.0001
     26  CD2      -32.2270  -36.5180    5.2010 C.3   146  LEU146      0.0001
     27  N        -34.4870  -32.2710    1.6910 N.3   161  MET161     -0.1245
     28  CA       -34.0540  -33.5390    1.0960 C.3   161  MET161      0.1570
     29  C        -35.2550  -34.3480    0.5800 C.2   161  MET161      0.2261
     30  O        -35.2640  -35.5800    0.6450 O.2   161  MET161     -0.2867
     31  CB       -33.2480  -34.3550    2.1220 C.3   161  MET161      0.0387
     32  CG       -31.8600  -33.8000    2.4340 C.3   161  MET161      0.0595
     33  SD       -30.7810  -33.8870    0.9880 S.3   161  MET161     -0.1393
     34  CE       -30.5200  -35.6520    0.8850 C.3   161  MET161      0.0692
     35  N        -36.1930  -35.1260   -2.3770 N.3   163  TRP163     -0.1227
     36  CA       -35.8960  -36.1110   -3.4240 C.3   163  TRP163      0.1737
     37  C        -35.6320  -37.4550   -2.7950 C.2   163  TRP163      0.2595
     38  O        -36.0800  -38.4810   -3.3000 O.2   163  TRP163     -0.2718
     39  CB       -34.7320  -35.6710   -4.3200 C.3   163  TRP163      0.0564
     40  CG       -33.3680  -35.7960   -3.6920 C.ar  163  TRP163      0.0003
     41  CD1      -32.6470  -34.8170   -3.0030 C.ar  163  TRP163      0.0946
     42  CD2      -32.5080  -36.9930   -3.6660 C.ar  163  TRP163      0.0152
     43  NE1      -31.4340  -35.3140   -2.5750 N.ar  163  TRP163     -0.2442
     44  CE2      -31.2890  -36.6100   -2.9450 C.ar  163  TRP163      0.0810
     45  CE3      -32.6220  -38.2950   -4.1640 C.ar  163  TRP163      0.0012
     46  CZ2      -30.2480  -37.5060   -2.7320 C.ar  163  TRP163      0.0191
     47  CZ3      -31.5630  -39.1900   -3.9500 C.ar  163  TRP163      0.0001
     48  CH2      -30.4070  -38.8030   -3.2470 C.ar  163  TRP163      0.0015
     49  N        -34.9280  -37.4420   -1.6650 N.am  164  TRP164     -0.1976
     50  CA       -34.5510  -38.6690   -0.9600 C.3   164  TRP164      0.1640
     51  C        -35.7130  -39.3080   -0.2460 C.2   164  TRP164      0.2290
     52  O        -35.8620  -40.5330   -0.2830 O.2   164  TRP164     -0.2864
     53  CB       -33.3770  -38.4100   -0.0200 C.3   164  TRP164      0.0576
     54  CG       -32.9010  -39.6190    0.7390 C.ar  164  TRP164      0.0006
     55  CD1      -32.7960  -39.7670    2.1200 C.ar  164  TRP164      0.0946
     56  CD2      -32.4430  -40.8960    0.1830 C.ar  164  TRP164      0.0152
     57  NE1      -32.3270  -41.0110    2.4460 N.ar  164  TRP164     -0.2442
     58  CE2      -32.0910  -41.7390    1.3330 C.ar  164  TRP164      0.0810
     59  CE3      -32.2990  -41.4110   -1.1070 C.ar  164  TRP164      0.0012
     60  CZ2      -31.6120  -43.0380    1.1790 C.ar  164  TRP164      0.0191
     61  CZ3      -31.8180  -42.7260   -1.2490 C.ar  164  TRP164      0.0001
     62  CH2      -31.4840  -43.5150   -0.1300 C.ar  164  TRP164      0.0015
     63  N        -28.1110  -50.2350    8.5580 N.3   179  LEU179     -0.1231
     64  CA       -28.1240  -49.8800    7.1300 C.3   179  LEU179      0.1693
     65  C        -29.5280  -49.8530    6.5480 C.2   179  LEU179      0.2591
     66  O        -30.4300  -50.5230    7.0520 O.2   179  LEU179     -0.2718
     67  CB       -27.3200  -50.9050    6.3380 C.3   179  LEU179      0.0284
     68  CG       -25.9070  -51.2320    6.8020 C.3   179  LEU179      0.0019
     69  CD1      -25.3860  -52.3320    5.8990 C.3   179  LEU179      0.0001
     70  CD2      -25.0410  -49.9780    6.7350 C.3   179  LEU179      0.0001
     71  N        -29.6820  -49.0910    5.4650 N.am  180  GLN180     -0.1979
     72  CA       -30.8720  -49.1130    4.6320 C.3   180  GLN180      0.1601
     73  C        -30.5840  -49.8220    3.3180 C.2   180  GLN180      0.2287
     74  O        -29.4450  -49.8280    2.8390 O.2   180  GLN180     -0.2864
     75  CB       -31.2920  -47.6930    4.2720 C.3   180  GLN180      0.0394
     76  CG       -31.7360  -46.8220    5.4310 C.3   180  GLN180      0.0908
     77  CD       -31.5810  -45.3610    5.0800 C.2   180  GLN180      0.2608
     78  OE1      -30.6330  -44.9950    4.3830 O.2   180  GLN180     -0.2717
     79  NE2      -32.5080  -44.5210    5.5450 N.am  180  GLN180     -0.0878
     80  N        -27.3650  -49.9400   -1.1280 N.3   195  LEU195     -0.1231
     81  CA       -27.0590  -49.9510    0.3080 C.3   195  LEU195      0.1693
     82  C        -26.8090  -48.5050    0.7110 C.2   195  LEU195      0.2592
     83  O        -26.1350  -47.7850   -0.0050 O.2   195  LEU195     -0.2718
     84  CB       -25.8500  -50.8510    0.6000 C.3   195  LEU195      0.0284
     85  CG       -25.3830  -51.0630    2.0520 C.3   195  LEU195      0.0019
     86  CD1      -24.6690  -52.4030    2.1560 C.3   195  LEU195      0.0001
     87  CD2      -24.4780  -49.9360    2.5400 C.3   195  LEU195      0.0001
     88  N        -27.3640  -48.0770    1.8450 N.am  196  HIS196     -0.1962
     89  CA       -27.2430  -46.6830    2.2750 C.3   196  HIS196      0.1787
     90  C        -27.0070  -46.6200    3.7660 C.2   196  HIS196      0.2620
     91  O        -27.4150  -47.5190    4.4990 O.2   196  HIS196     -0.2715
     92  CB       -28.5010  -45.8870    1.9110 C.3   196  HIS196      0.0785
     93  CG       -29.0110  -46.1570    0.5180 C.ar  196  HIS196      0.0821
     94  ND1      -28.5990  -45.4540   -0.5540 N.ar  196  HIS196     -0.2267
     95  CD2      -29.9050  -47.1120    0.0400 C.ar  196  HIS196      0.1154
     96  CE1      -29.2070  -45.9210   -1.6620 C.ar  196  HIS196      0.1986
     97  NE2      -30.0090  -46.9320   -1.2990 N.ar  196  HIS196     -0.2212
     98  N        -26.3430  -45.5590    4.2150 N.am  197  VAL197     -0.1964
     99  CA       -26.0070  -45.4050    5.6280 C.3   197  VAL197      0.1712
    100  C        -26.6290  -44.1020    6.1370 C.2   197  VAL197      0.2458
    101  O        -26.1340  -43.0100    5.8300 O.2   197  VAL197     -0.2730
    102  CB       -24.4690  -45.4040    5.8740 C.3   197  VAL197      0.0289
    103  CG1      -24.1670  -45.3030    7.3720 C.3   197  VAL197      0.0023
    104  CG2      -23.8100  -46.6540    5.2880 C.3   197  VAL197      0.0023
    105  N        -27.7370  -44.2060    6.8810 N.am  198  PRO198     -0.2727
    106  CA       -28.2990  -43.0140    7.5050 C.3   198  PRO198      0.1402
    107  C        -27.3750  -42.5080    8.6130 C.2   198  PRO198      0.2269
    108  O        -26.5840  -43.2750    9.1750 O.2   198  PRO198     -0.2865
    109  CB       -29.6300  -43.5000    8.0870 C.3   198  PRO198      0.0296
    110  CG       -29.4960  -44.9780    8.2110 C.3   198  PRO198      0.0237
    111  CD       -28.5090  -45.4280    7.1780 C.3   198  PRO198      0.0939
    112  N        -20.6370  -46.9480   12.5180 N.3   204  LEU204     -0.1245
    113  CA       -20.8500  -48.0770   11.6300 C.3   204  LEU204      0.1561
    114  C        -20.0630  -49.2910   12.1530 C.2   204  LEU204      0.2260
    115  O        -19.1170  -49.7570   11.5120 O.2   204  LEU204     -0.2867
    116  CB       -20.3980  -47.6960   10.2150 C.3   204  LEU204      0.0270
    117  CG       -21.2750  -47.9940    8.9970 C.3   204  LEU204      0.0019
    118  CD1      -20.4080  -48.0900    7.7520 C.3   204  LEU204      0.0001
    119  CD2      -22.1200  -49.2480    9.1590 C.3   204  LEU204      0.0001
    120  N        -23.1740  -53.5500   11.0800 N.3   209  TYR209     -0.1241
    121  CA       -23.1020  -53.6650    9.6140 C.3   209  TYR209      0.1605
    122  C        -23.4040  -55.1080    9.1550 C.2   209  TYR209      0.2264
    123  O        -24.2100  -55.3210    8.2320 O.2   209  TYR209     -0.2867
    124  CB       -21.7250  -53.1990    9.1320 C.3   209  TYR209      0.0534
    125  CG       -21.3710  -53.5380    7.6860 C.ar  209  TYR209     -0.0201
    126  CD1      -21.6660  -52.6630    6.6420 C.ar  209  TYR209     -0.0009
    127  CD2      -20.7020  -54.7170    7.3780 C.ar  209  TYR209     -0.0009
    128  CE1      -21.3250  -52.9760    5.3250 C.ar  209  TYR209      0.0417
    129  CE2      -20.3580  -55.0360    6.0730 C.ar  209  TYR209      0.0417
    130  CZ       -20.6710  -54.1680    5.0490 C.ar  209  TYR209      0.1957
    131  OH       -20.3120  -54.5180    3.7540 O.3   209  TYR209     -0.2866
    132  N        -23.0280  -49.9780   -3.6000 N.3   234  GLY234     -0.1210
    133  CA       -22.8900  -48.7210   -2.8710 C.3   234  GLY234      0.1956
    134  C        -22.0910  -47.7240   -3.6840 C.2   234  GLY234      0.2613
    135  O        -21.1370  -48.1070   -4.3600 O.2   234  GLY234     -0.2717
    136  N        -22.5020  -46.4540   -3.6550 N.am  235  SER235     -0.1938
    137  CA       -21.6890  -45.3560   -4.1900 C.3   235  SER235      0.2055
    138  C        -21.5300  -44.3370   -3.0680 C.2   235  SER235      0.2643
    139  O        -22.5240  -43.8670   -2.5150 O.2   235  SER235     -0.2714
    140  CB       -22.3470  -44.6820   -5.3970 C.3   235  SER235      0.2130
    141  OG       -22.5670  -45.5960   -6.4520 O.3   235  SER235     -0.2179
    142  N        -20.2920  -44.0120   -2.7060 N.am  236  SER236     -0.1949
    143  CA       -20.0750  -43.1740   -1.5350 C.3   236  SER236      0.1924
    144  C        -18.6740  -42.5940   -1.4640 C.2   236  SER236      0.2314
    145  O        -17.7100  -43.1950   -1.9380 O.2   236  SER236     -0.2863
    146  CB       -20.3370  -43.9750   -0.2530 C.3   236  SER236      0.2116
    147  OG       -20.2440  -43.1460    0.8950 O.3   236  SER236     -0.2180
    148  N        -17.2750  -42.7750    1.1250 N.3   238  MET238     -0.1230
    149  CA       -16.7430  -43.7690    2.0770 C.3   238  MET238      0.1702
    150  C        -15.8640  -44.8210    1.4340 C.2   238  MET238      0.2592
    151  O        -15.0250  -45.4390    2.0970 O.2   238  MET238     -0.2718
    152  CB       -17.8820  -44.5510    2.7250 C.3   238  MET238      0.0401
    153  CG       -18.5270  -43.9320    3.9380 C.3   238  MET238      0.0596
    154  SD       -19.7560  -45.1310    4.4770 S.3   238  MET238     -0.1393
    155  CE       -21.0540  -44.0280    5.0010 C.3   238  MET238      0.0692
    156  N        -16.1130  -45.0670    0.1570 N.am  239  LEU239     -0.1980
    157  CA       -15.4190  -46.1080   -0.5650 C.3   239  LEU239      0.1596
    158  C        -14.1400  -45.5940   -1.2210 C.2   239  LEU239      0.2287
    159  O        -13.4650  -46.3500   -1.8970 O.2   239  LEU239     -0.2864
    160  CB       -16.3500  -46.7360   -1.6090 C.3   239  LEU239      0.0297
    161  CG       -17.4080  -47.6820   -1.0190 C.3   239  LEU239      0.0022
    162  CD1      -18.3660  -48.1540   -2.1110 C.3   239  LEU239      0.0001
    163  CD2      -16.7580  -48.8720   -0.3100 C.3   239  LEU239      0.0001
    164  N        -14.8830  -47.4040    8.7550 N.3   253  ILE253     -0.1245
    165  CA       -14.8720  -47.2490    7.2930 C.3   253  ILE253      0.1561
    166  C        -13.7430  -48.0830    6.6710 C.2   253  ILE253      0.2260
    167  O        -13.9880  -48.9070    5.7840 O.2   253  ILE253     -0.2867
    168  CB       -14.8010  -45.7590    6.8830 C.3   253  ILE253      0.0252
    169  CG1      -16.1330  -45.0660    7.2350 C.3   253  ILE253      0.0019
    170  CG2      -14.4940  -45.6070    5.3910 C.3   253  ILE253      0.0019
    171  CD1      -16.1190  -43.5510    7.1760 C.3   253  ILE253      0.0001
    172  N        -14.3290  -51.9730    7.0900 N.3   256  LEU256     -0.1231
    173  CA       -15.4520  -52.4900    6.3090 C.3   256  LEU256      0.1693
    174  C        -15.3030  -52.3090    4.7900 C.2   256  LEU256      0.2591
    175  O        -15.7500  -53.1660    4.0290 O.2   256  LEU256     -0.2718
    176  CB       -16.7920  -51.9120    6.8010 C.3   256  LEU256      0.0284
    177  CG       -17.1810  -52.2300    8.2580 C.3   256  LEU256      0.0019
    178  CD1      -18.4000  -51.4070    8.6660 C.3   256  LEU256      0.0001
    179  CD2      -17.4280  -53.7200    8.4510 C.3   256  LEU256      0.0001
    180  N        -14.6800  -51.2130    4.3520 N.am  257  ALA257     -0.1980
    181  CA       -14.4290  -50.9990    2.9080 C.3   257  ALA257      0.1597
    182  C        -13.5770  -52.1180    2.3040 C.2   257  ALA257      0.2287
    183  O        -13.6290  -52.3640    1.0950 O.2   257  ALA257     -0.2864
    184  CB       -13.7860  -49.6360    2.6470 C.3   257  ALA257      0.0319
    185  N        -15.3400  -54.6490    0.2450 N.3   260  TRP260     -0.1241
    186  CA       -15.9600  -54.1720   -0.9930 C.3   260  TRP260      0.1605
    187  C        -15.0940  -54.3510   -2.2070 C.2   260  TRP260      0.2264
    188  O        -13.8760  -54.2470   -2.1270 O.2   260  TRP260     -0.2867
    189  CB       -16.3760  -52.7070   -0.8470 C.3   260  TRP260      0.0550
    190  CG       -17.5810  -52.5950    0.0430 C.ar  260  TRP260      0.0003
    191  CD1      -17.6440  -52.8080    1.4180 C.ar  260  TRP260      0.0946
    192  CD2      -18.9590  -52.2760   -0.3630 C.ar  260  TRP260      0.0152
    193  NE1      -18.9310  -52.6510    1.8770 N.ar  260  TRP260     -0.2442
    194  CE2      -19.7700  -52.3340    0.8590 C.ar  260  TRP260      0.0810
    195  CE3      -19.5790  -51.9680   -1.5740 C.ar  260  TRP260      0.0012
    196  CZ2      -21.1360  -52.0740    0.8470 C.ar  260  TRP260      0.0191
    197  CZ3      -20.9560  -51.7210   -1.5730 C.ar  260  TRP260      0.0001
    198  CH2      -21.7150  -51.7650   -0.3860 C.ar  260  TRP260      0.0015
    199  N        -21.4450  -34.7140    3.9680 N.3   281  PHE281     -0.1241
    200  CA       -21.5890  -35.7470    4.9900 C.3   281  PHE281      0.1605
    201  C        -20.6840  -35.6580    6.2120 C.2   281  PHE281      0.2264
    202  O        -21.0200  -36.1980    7.2760 O.2   281  PHE281     -0.2867
    203  CB       -21.5530  -37.1350    4.3490 C.3   281  PHE281      0.0534
    204  CG       -22.7650  -37.4230    3.5270 C.ar  281  PHE281     -0.0203
    205  CD1      -24.0070  -37.6170    4.1460 C.ar  281  PHE281     -0.0042
    206  CD2      -22.6900  -37.4590    2.1430 C.ar  281  PHE281     -0.0042
    207  CE1      -25.1480  -37.8650    3.3950 C.ar  281  PHE281     -0.0003
    208  CE2      -23.8280  -37.6970    1.3830 C.ar  281  PHE281     -0.0003
    209  CZ       -25.0580  -37.9040    2.0120 C.ar  281  PHE281     -0.0000
    210  N        -21.8100  -31.1320    6.8220 N.3   284  ARG284     -0.1245
    211  CA       -23.0350  -30.4930    6.3030 C.3   284  ARG284      0.1563
    212  C        -22.6630  -29.1100    5.7830 C.2   284  ARG284      0.2260
    213  O        -23.2290  -28.0890    6.2000 O.2   284  ARG284     -0.2867
    214  CB       -24.1410  -30.4010    7.3680 C.3   284  ARG284      0.0307
    215  CG       -24.6140  -31.7350    7.9320 C.3   284  ARG284      0.0489
    216  CD       -25.2240  -32.6390    6.8690 C.3   284  ARG284      0.2205
    217  NE       -25.3710  -34.0040    7.3780 N.pl3 284  ARG284     -0.0865
    218  CZ       -25.8290  -35.0310    6.6710 C.cat 284  ARG284      0.5346
    219  NH1      -26.1940  -34.8590    5.4090 N.pl3 284  ARG284      0.1354
    220  NH2      -25.9140  -36.2360    7.2270 N.pl3 284  ARG284      0.1354
@<TRIPOS>BOND
     1   141   140    1
     2   140   137    1
     3   135   134    2
     4    39    40    1
     5    39    36    1
     6   137   136    1
     7   137   138    1
     8    45    47   ar
     9    45    42   ar
    10    47    48   ar
    11    40    42   ar
    12    40    41   ar
    13   134   136   am
    14   134   133    1
    15    42    44   ar
    16   132   133    1
    17    36    37    1
    18    36    35    1
    19    38    37    2
    20    48    46   ar
    21   138   142   am
    22   138   139    2
    23    41    43   ar
    24    44    46   ar
    25    44    43   ar
    26    37    49   am
    27   142   143    1
    28   187   188    2
    29   187   186    1
    30   162   161    1
    31   145   144    2
    32   159   158    2
    33    49    50    1
    34    96    97   ar
    35    96    94   ar
    36   160   161    1
    37   160   157    1
    38   195   197   ar
    39   195   192   ar
    40   197   198   ar
    41   143   144    1
    42   143   146    1
    43    97    95   ar
    44    61    59   ar
    45    61    62   ar
    46   158   157    1
    47    80    81    1
    48    59    56   ar
    49   161   163    1
    50   186   189    1
    51   186   185    1
    52    50    51    1
    53    50    53    1
    54   189   190    1
    55   157   156    1
    56    94    93   ar
    57   198   196   ar
    58   192   190   ar
    59   192   194   ar
    60    52    51    2
    61   146   147    1
    62    62    60   ar
    63    53    54    1
    64    83    82    2
    65    95    93   ar
    66   190   191   ar
    67   156   150   am
    68    56    54   ar
    69    56    58   ar
    70    81    84    1
    71    81    82    1
    72    93    92    1
    73    29    30    2
    74    29    28    1
    75    84    85    1
    76    82    88   am
    77    54    55   ar
    78   196   194   ar
    79   194   193   ar
    80    34    33    1
    81    33    32    1
    82   183   182    2
    83    28    27    1
    84    28    31    1
    85   148   149    1
    86    60    58   ar
    87    58    57   ar
    88   208   209   ar
    89   208   206   ar
    90   191   193   ar
    91   150   149    1
    92   150   151    2
    93    88    89    1
    94    92    89    1
    95   209   207   ar
    96    85    86    1
    97    85    87    1
    98   149   152    1
    99    55    57   ar
   100    31    32    1
   101   206   204   ar
   102    89    90    1
   103   182   181    1
   104   184   181    1
   105   152   153    1
   106    74    73    2
   107   181   180    1
   108    73    72    1
   109   207   205   ar
   110   204   205   ar
   111   204   203    1
   112   131   130    1
   113    90    98   am
   114    90    91    2
   115   153   154    1
   116   199   200    1
   117   175   174    2
   118    98    99    1
   119    75    72    1
   120    75    76    1
   121   203   200    1
   122   180   174   am
   123    78    77    2
   124   154   155    1
   125    72    71    1
   126   174   173    1
   127    25    24    1
   128   200   201    1
   129   130   128   ar
   130   130   129   ar
   131    77    76    1
   132    77    79   am
   133     9     7   am
   134    26    24    1
   135   104   102    1
   136   128   126   ar
   137   170   168    1
   138   219   218    1
   139    71    65   am
   140    99   102    1
   141    99   100    1
   142   212   213    2
   143   212   211    1
   144   167   166    2
   145   101   100    2
   146   102   103    1
   147    69    68    1
   148    24    23    1
   149   129   127   ar
   150   100   105   am
   151     7     8    2
   152     7     6    1
   153   201   202    2
   154   211   210    1
   155   211   214    1
   156   173   176    1
   157   173   172    1
   158    67    68    1
   159    67    64    1
   160    65    66    2
   161    65    64    1
   162    23    20    1
   163   126   125   ar
   164   218   220    1
   165   218   217    2
   166   166   165    1
   167    70    68    1
   168   176   177    1
   169   216   217    1
   170   216   215    1
   171   105   111    1
   172   105   106    1
   173   168   169    1
   174   168   165    1
   175    64    63    1
   176   171   169    1
   177   111   110    1
   178     6     5    1
   179   165   164    1
   180   214   215    1
   181   127   125   ar
   182     5     2    1
   183   106   109    1
   184   106   107    1
   185   125   124    1
   186   118   117    1
   187    20    21    1
   188    20    19    1
   189    22    21    2
   190   109   110    1
   191   123   122    2
   192   177   179    1
   193   177   178    1
   194    18    16   ar
   195     4     3    2
   196     3     2    1
   197   107   108    2
   198     2     1    1
   199    19    12   am
   200   117   119    1
   201   117   116    1
   202   124   121    1
   203   122   121    1
   204    16    15    1
   205    16    17   ar
   206   121   120    1
   207    12    13    2
   208    12    11    1
   209    15    14    1
   210   116   113    1
   211    14    11    1
   212    11    10    1
   213   115   114    2
   214   113   114    1
   215   113   112    1
