@<TRIPOS>MOLECULE
tmp/4q3aA01.pdb
 157 151 0 0 0
SMALL
GASTEIGER

@<TRIPOS>ATOM
      1  N         -1.8520   38.8810  -15.7870 N.3     2  ALA2       -0.1231
      2  CA        -1.7310   39.0520  -17.2400 C.3     2  ALA2        0.1694
      3  C         -0.3800   39.6370  -17.6570 C.2     2  ALA2        0.2592
      4  O         -0.2480   40.8690  -17.8350 O.2     2  ALA2       -0.2718
      5  CB        -2.8730   39.9200  -17.7530 C.3     2  ALA2        0.0304
      6  N          0.6040   38.7510  -17.8420 N.am    3  LEU3       -0.1966
      7  CA         1.9630   39.1610  -18.2260 C.3     3  LEU3        0.1728
      8  C          2.3070   38.8700  -19.6920 C.2     3  LEU3        0.2616
      9  O          1.9170   37.8430  -20.2460 O.2     3  LEU3       -0.2715
     10  CB         2.9950   38.4740  -17.3360 C.3     3  LEU3        0.0311
     11  CG         2.8390   38.6530  -15.8240 C.3     3  LEU3        0.0022
     12  CD1        4.0510   38.0760  -15.1280 C.3     3  LEU3        0.0001
     13  CD2        2.6470   40.1100  -15.4410 C.3     3  LEU3        0.0001
     14  N          3.0780   39.7680  -20.2960 N.am    4  LEU4       -0.1977
     15  CA         3.5800   39.5760  -21.6550 C.3     4  LEU4        0.1596
     16  C          4.3310   38.2660  -21.7890 C.2     4  LEU4        0.2287
     17  O          4.9690   37.7960  -20.8410 O.2     4  LEU4       -0.2864
     18  CB         4.5450   40.7030  -22.0440 C.3     4  LEU4        0.0297
     19  CG         3.9540   42.1040  -22.2000 C.3     4  LEU4        0.0022
     20  CD1        5.0480   43.1450  -22.2150 C.3     4  LEU4        0.0001
     21  CD2        3.1170   42.2060  -23.4590 C.3     4  LEU4        0.0001
     22  N         16.3300   48.7700  -16.4910 N.3    51  VAL51      -0.1231
     23  CA        16.8610   47.7950  -15.5490 C.3    51  VAL51       0.1678
     24  C         16.0740   46.4750  -15.6100 C.2    51  VAL51       0.2434
     25  O         14.9200   46.4140  -15.1810 O.2    51  VAL51      -0.2733
     26  CB        16.8240   48.3380  -14.0900 C.3    51  VAL51       0.0265
     27  CG1       17.3880   47.3100  -13.1120 C.3    51  VAL51       0.0020
     28  CG2       17.5810   49.6580  -13.9760 C.3    51  VAL51       0.0020
     29  N         16.6980   45.3990  -16.1150 N.am   52  PRO52      -0.2718
     30  CA        16.0190   44.0970  -16.0280 C.3    52  PRO52       0.1535
     31  C         15.8120   43.6880  -14.5730 C.2    52  PRO52       0.2598
     32  O         16.6500   43.9780  -13.7260 O.2    52  PRO52      -0.2715
     33  CB        16.9950   43.1320  -16.7140 C.3    52  PRO52       0.0310
     34  CG        17.9170   44.0080  -17.4960 C.3    52  PRO52       0.0237
     35  CD        18.0450   45.2650  -16.6760 C.3    52  PRO52       0.0939
     36  N         14.7040   43.0130  -14.3110 N.am   53  VAL53      -0.1978
     37  CA        14.3150   42.5970  -12.9730 C.3    53  VAL53       0.1596
     38  C         13.9420   41.0980  -12.9660 C.2    53  VAL53       0.2287
     39  O         13.1110   40.6460  -13.7640 O.2    53  VAL53      -0.2864
     40  CB        13.1490   43.4730  -12.4750 C.3    53  VAL53       0.0276
     41  CG1       12.4540   42.8560  -11.2670 C.3    53  VAL53       0.0022
     42  CG2       13.6550   44.8740  -12.1310 C.3    53  VAL53       0.0022
     43  N         12.7370   39.2600  -10.2860 N.3    55  SER55      -0.1217
     44  CA        11.8480   38.8180   -9.2270 C.3    55  SER55       0.1889
     45  C         10.5770   38.2110   -9.8100 C.2    55  SER55       0.2288
     46  O         10.2400   38.4370  -10.9720 O.2    55  SER55      -0.2866
     47  CB        11.5250   39.9690   -8.2910 C.3    55  SER55       0.2089
     48  OG        10.8160   40.9690   -8.9880 O.3    55  SER55      -0.2183
     49  N         10.1100   36.7300  -13.3420 N.3    58  GLY58      -0.1210
     50  CA        11.4780   36.9670  -13.7880 C.3    58  GLY58       0.1956
     51  C         11.5830   37.7410  -15.0790 C.2    58  GLY58       0.2612
     52  O         10.6340   38.3740  -15.5080 O.2    58  GLY58      -0.2717
     53  N         12.7760   37.7170  -15.6570 N.am   59  ILE59      -0.1965
     54  CA        13.0470   38.4110  -16.8990 C.3    59  ILE59       0.1727
     55  C         12.1710   37.8280  -18.0030 C.2    59  ILE59       0.2616
     56  O         12.1410   36.6200  -18.1880 O.2    59  ILE59      -0.2715
     57  CB        14.5440   38.3370  -17.2760 C.3    59  ILE59       0.0290
     58  CG1       15.3260   39.3080  -16.3920 C.3    59  ILE59       0.0022
     59  CG2       14.7540   38.7010  -18.7410 C.3    59  ILE59       0.0023
     60  CD1       16.8270   39.1450  -16.4460 C.3    59  ILE59       0.0001
     61  N         11.4190   38.6850  -18.6850 N.am   60  ILE60      -0.1977
     62  CA        10.6280   38.2640  -19.8520 C.3    60  ILE60       0.1596
     63  C         11.4460   38.5130  -21.1080 C.2    60  ILE60       0.2287
     64  O         11.9650   39.6110  -21.3020 O.2    60  ILE60      -0.2864
     65  CB         9.2700   39.0110  -19.9290 C.3    60  ILE60       0.0276
     66  CG1        8.3870   38.6390  -18.7270 C.3    60  ILE60       0.0022
     67  CG2        8.5470   38.6970  -21.2310 C.3    60  ILE60       0.0022
     68  CD1        7.1070   39.4470  -18.6290 C.3    60  ILE60       0.0001
     69  N         11.6200   41.8060  -23.4570 N.3    63  PHE63      -0.1227
     70  CA        11.0800   42.9260  -22.6970 C.3    63  PHE63       0.1736
     71  C         12.0390   44.1280  -22.6370 C.2    63  PHE63       0.2596
     72  O         11.6550   45.2440  -22.9950 O.2    63  PHE63      -0.2718
     73  CB        10.6500   42.4840  -21.2890 C.3    63  PHE63       0.0547
     74  CG         9.9870   43.5710  -20.5050 C.ar   63  PHE63      -0.0202
     75  CD1        8.6450   43.8730  -20.7080 C.ar   63  PHE63      -0.0042
     76  CD2       10.7130   44.3410  -19.6110 C.ar   63  PHE63      -0.0042
     77  CE1        8.0330   44.9110  -20.0130 C.ar   63  PHE63      -0.0003
     78  CE2       10.1020   45.3780  -18.9140 C.ar   63  PHE63      -0.0003
     79  CZ         8.7660   45.6640  -19.1110 C.ar   63  PHE63      -0.0000
     80  N         13.2740   43.9190  -22.1840 N.am   64  SER64      -0.1952
     81  CA        14.2260   45.0370  -22.0810 C.3    64  SER64       0.1924
     82  C         14.6510   45.5130  -23.4840 C.2    64  SER64       0.2314
     83  O         14.7260   46.7190  -23.7410 O.2    64  SER64      -0.2863
     84  CB        15.4380   44.6680  -21.2300 C.3    64  SER64       0.2116
     85  OG        16.2160   43.6650  -21.8690 O.3    64  SER64      -0.2180
     86  N         10.3520   47.1170  -14.1460 N.3   103  ALA103     -0.1231
     87  CA         9.0840   46.4600  -13.8520 C.3   103  ALA103      0.1694
     88  C          9.2710   45.1300  -13.1620 C.2   103  ALA103      0.2592
     89  O         10.1280   44.3380  -13.5520 O.2   103  ALA103     -0.2718
     90  CB         8.2950   46.2310  -15.1280 C.3   103  ALA103      0.0304
     91  N          8.4510   44.8810  -12.1530 N.am  104  ASP104     -0.1960
     92  CA         8.2780   43.5270  -11.6350 C.3   104  ASP104      0.1840
     93  C          6.9090   43.0170  -12.0990 C.2   104  ASP104      0.2622
     94  O          6.2820   43.6460  -12.9400 O.2   104  ASP104     -0.2715
     95  CB         8.5420   43.4360  -10.1050 C.3   104  ASP104      0.1450
     96  CG         7.5480   44.2010   -9.2440 C.2   104  ASP104      0.3671
     97  OD1        6.4450   44.5770   -9.7090 O.co2 104  ASP104     -0.2456
     98  OD2        7.8780   44.4120   -8.0370 O.co2 104  ASP104     -0.2456
     99  N          6.4470   41.8870  -11.5790 N.am  105  ASP105     -0.1971
    100  CA         5.2000   41.3050  -12.0450 C.3   105  ASP105      0.1709
    101  C          3.9690   42.1690  -11.7620 C.2   105  ASP105      0.2293
    102  O          2.9590   41.9930  -12.4300 O.2   105  ASP105     -0.2864
    103  CB         4.9940   39.9280  -11.4330 C.3   105  ASP105      0.1436
    104  CG         6.0330   38.9160  -11.8810 C.2   105  ASP105      0.3671
    105  OD1        6.8860   39.2000  -12.7620 O.co2 105  ASP105     -0.2456
    106  OD2        5.9900   37.8010  -11.3280 O.co2 105  ASP105     -0.2456
    107  N          5.1620   48.3600  -13.1970 N.3   108  PHE108     -0.1241
    108  CA         6.0860   48.8550  -14.1980 C.3   108  PHE108      0.1605
    109  C          6.0590   50.3720  -14.0160 C.2   108  PHE108      0.2264
    110  O          4.9990   51.0020  -14.1390 O.2   108  PHE108     -0.2867
    111  CB         5.6160   48.4140  -15.5920 C.3   108  PHE108      0.0534
    112  CG         6.4010   49.0100  -16.7550 C.ar  108  PHE108     -0.0203
    113  CD1        7.7250   49.4190  -16.6210 C.ar  108  PHE108     -0.0042
    114  CD2        5.8000   49.1270  -18.0110 C.ar  108  PHE108     -0.0042
    115  CE1        8.4220   49.9520  -17.7070 C.ar  108  PHE108     -0.0003
    116  CE2        6.4930   49.6430  -19.0960 C.ar  108  PHE108     -0.0003
    117  CZ         7.8080   50.0620  -18.9500 C.ar  108  PHE108     -0.0000
    118  N          2.6890   52.3590  -15.0480 N.3   121  ASN121     -0.1225
    119  CA         2.1930   51.9250  -16.3410 C.3   121  ASN121      0.1785
    120  C          0.6630   51.7850  -16.4620 C.2   121  ASN121      0.2597
    121  O          0.0910   52.0370  -17.5330 O.2   121  ASN121     -0.2718
    122  CB         2.8560   50.5880  -16.6970 C.3   121  ASN121      0.1169
    123  CG         2.3960   50.0330  -18.0270 C.2   121  ASN121      0.2627
    124  OD1        1.6540   49.0500  -18.0710 O.2   121  ASN121     -0.2716
    125  ND2        2.8420   50.6430  -19.1140 N.am  121  ASN121     -0.0877
    126  N          0.0100   51.3440  -15.3920 N.am  122  GLN122     -0.1979
    127  CA        -1.4180   51.0240  -15.4660 C.3   122  GLN122      0.1601
    128  C         -2.2880   52.2700  -15.7080 C.2   122  GLN122      0.2287
    129  O         -3.0000   52.3330  -16.6980 O.2   122  GLN122     -0.2864
    130  CB        -1.8610   50.1920  -14.2480 C.3   122  GLN122      0.0394
    131  CG        -1.2820   48.7880  -14.3260 C.3   122  GLN122      0.0908
    132  CD        -1.2610   48.0060  -13.0170 C.2   122  GLN122      0.2608
    133  OE1       -1.2570   46.7670  -13.0250 O.2   122  GLN122     -0.2717
    134  NE2       -1.2350   48.7030  -11.9090 N.am  122  GLN122     -0.0878
    135  N         -4.8040   42.3970  -24.0470 N.3   226  ILE226     -0.1245
    136  CA        -4.0880   41.3300  -24.7510 C.3   226  ILE226      0.1561
    137  C         -4.6730   39.9780  -24.2980 C.2   226  ILE226      0.2260
    138  O         -4.8010   39.7400  -23.0980 O.2   226  ILE226     -0.2867
    139  CB        -2.5720   41.3710  -24.4200 C.3   226  ILE226      0.0252
    140  CG1       -1.9630   42.7380  -24.7630 C.3   226  ILE226      0.0019
    141  CG2       -1.8340   40.2720  -25.1700 C.3   226  ILE226      0.0019
    142  CD1       -0.6400   43.0340  -24.0690 C.3   226  ILE226      0.0001
    143  N          1.2230   46.2580  -27.7450 N.3   246  PRO246     -0.2102
    144  CA         1.4560   45.5850  -26.4510 C.3   246  PRO246      0.1504
    145  C          2.2700   46.2920  -25.3650 C.2   246  PRO246      0.2575
    146  O          2.2380   45.8410  -24.2120 O.2   246  PRO246     -0.2718
    147  CB         2.1700   44.2940  -26.8630 C.3   246  PRO246      0.0282
    148  CG         2.8570   44.6280  -28.1420 C.3   246  PRO246      0.0208
    149  CD         1.9820   45.6250  -28.8440 C.3   246  PRO246      0.0893
    150  N          2.9670   47.3890  -25.6750 N.am  247  LEU247     -0.1980
    151  CA         3.8790   47.9850  -24.6840 C.3   247  LEU247      0.1596
    152  C          4.3060   49.4340  -24.9430 C.2   247  LEU247      0.2287
    153  O          4.4560   50.2040  -23.9900 O.2   247  LEU247     -0.2864
    154  CB         5.1400   47.1050  -24.5640 C.3   247  LEU247      0.0297
    155  CG         6.2130   47.4410  -23.5210 C.3   247  LEU247      0.0022
    156  CD1        5.6810   47.3370  -22.1020 C.3   247  LEU247      0.0001
    157  CD2        7.4360   46.5490  -23.6870 C.3   247  LEU247      0.0001
@<TRIPOS>BOND
     1   149   148    1
     2   149   143    1
     3   148   147    1
     4   143   144    1
     5   147   144    1
     6   144   145    1
     7   150   145   am
     8   150   151    1
     9   145   146    2
    10   141   139    1
    11   152   151    1
    12   152   153    2
    13   140   139    1
    14   140   142    1
    15   136   139    1
    16   136   137    1
    17   136   135    1
    18   151   154    1
    19   154   155    1
    20   137   138    2
    21    83    82    2
    22   157   155    1
    23   155   156    1
    24    82    81    1
    25    21    19    1
    26    69    70    1
    27    72    71    2
    28    70    71    1
    29    70    73    1
    30    71    80   am
    31    20    19    1
    32    19    18    1
    33    80    81    1
    34    81    84    1
    35    18    15    1
    36    85    84    1
    37    16    15    1
    38    16    17    2
    39    15    14    1
    40    64    63    2
    41    73    74    1
    42    67    65    1
    43    63    62    1
    44    75    74   ar
    45    75    77   ar
    46    74    76   ar
    47    14     8   am
    48     9     8    2
    49    77    79   ar
    50    65    62    1
    51    65    66    1
    52    62    61    1
    53     8     7    1
    54    76    78   ar
    55   125   123   am
    56    79    78   ar
    57   116   117   ar
    58   116   114   ar
    59   117   115   ar
    60    59    57    1
    61    66    68    1
    62    61    55   am
    63     7     6    1
    64     7    10    1
    65    56    55    2
    66   124   123    2
    67   123   122    1
    68   114   112   ar
    69    55    54    1
    70     6     3   am
    71     4     3    2
    72     5     2    1
    73   115   113   ar
    74     3     2    1
    75   121   120    2
    76    34    33    1
    77    34    35    1
    78    10    11    1
    79    57    54    1
    80    57    58    1
    81     2     1    1
    82    54    53    1
    83   112   113   ar
    84   112   111    1
    85    33    30    1
    86   129   128    2
    87   122   119    1
    88    35    29    1
    89    22    23    1
    90   120   119    1
    91   120   126   am
    92    60    58    1
    93   119   118    1
    94    29    30    1
    95    29    24   am
    96    30    31    1
    97    11    13    1
    98    11    12    1
    99   128   127    1
   100    53    51   am
   101    24    23    1
   102    24    25    2
   103   111   108    1
   104    23    26    1
   105    52    51    2
   106   127   126    1
   107   127   130    1
   108    90    87    1
   109    51    50    1
   110    31    36   am
   111    31    32    2
   112   131   130    1
   113   131   132    1
   114    36    37    1
   115   108   109    1
   116   108   107    1
   117    86    87    1
   118   110   109    2
   119    26    28    1
   120    26    27    1
   121    87    88    1
   122    50    49    1
   123    39    38    2
   124    89    88    2
   125    88    91   am
   126   133   132    2
   127   132   134   am
   128    37    38    1
   129    37    40    1
   130    94    93    2
   131   105   104   ar
   132    40    42    1
   133    40    41    1
   134   102   101    2
   135    91    92    1
   136    93    92    1
   137    93    99   am
   138   100   101    1
   139   100    99    1
   140   100   103    1
   141   104   103    1
   142   104   106   ar
   143    92    95    1
   144    46    45    2
   145    43    44    1
   146    95    96    1
   147    45    44    1
   148    97    96   ar
   149    96    98   ar
   150    44    47    1
   151    48    47    1
