@<TRIPOS>MOLECULE
tmp/4q3bA01.pdb
 155 148 0 0 0
SMALL
GASTEIGER

@<TRIPOS>ATOM
      1  N          1.4670   38.8360   15.8490 N.3     3  ALA3       -0.1231
      2  CA         1.3500   39.2610   17.2440 C.3     3  ALA3        0.1694
      3  C         -0.0290   39.8820   17.4000 C.2     3  ALA3        0.2592
      4  O         -0.3000   40.9370   16.8060 O.2     3  ALA3       -0.2718
      5  CB         2.4490   40.2580   17.6060 C.3     3  ALA3        0.0304
      6  N         -0.9170   39.1990   18.1230 N.am    4  LEU4       -0.1966
      7  CA        -2.2630   39.6940   18.4260 C.3     4  LEU4        0.1728
      8  C         -2.5350   39.5300   19.9050 C.2     4  LEU4        0.2616
      9  O         -2.0270   38.6010   20.5120 O.2     4  LEU4       -0.2715
     10  CB        -3.3230   38.8830   17.7110 C.3     4  LEU4        0.0311
     11  CG        -3.6460   39.1630   16.2390 C.3     4  LEU4        0.0022
     12  CD1       -2.8580   40.2960   15.6380 C.3     4  LEU4        0.0001
     13  CD2       -3.4810   37.9020   15.4380 C.3     4  LEU4        0.0001
     14  N         -3.3730   40.4070   20.4400 N.am    5  LEU5       -0.1977
     15  CA        -3.8840   40.2570   21.8060 C.3     5  LEU5        0.1596
     16  C         -4.6800   38.9690   21.9690 C.2     5  LEU5        0.2287
     17  O         -5.3160   38.4690   21.0300 O.2     5  LEU5       -0.2864
     18  CB        -4.7750   41.4500   22.1680 C.3     5  LEU5        0.0297
     19  CG        -4.0070   42.7310   22.4500 C.3     5  LEU5        0.0022
     20  CD1       -4.9480   43.9300   22.4630 C.3     5  LEU5        0.0001
     21  CD2       -3.2100   42.6450   23.7380 C.3     5  LEU5        0.0001
     22  N        -16.4070   49.3460   16.5860 N.3    52  VAL52      -0.1231
     23  CA       -16.9890   48.3720   15.6940 C.3    52  VAL52       0.1678
     24  C        -16.1990   47.0550   15.7680 C.2    52  VAL52       0.2434
     25  O        -15.0140   47.0200   15.3750 O.2    52  VAL52      -0.2733
     26  CB       -16.9420   48.9330   14.2370 C.3    52  VAL52       0.0265
     27  CG1      -17.4920   47.9100   13.2830 C.3    52  VAL52       0.0020
     28  CG2      -17.7110   50.2570   14.1760 C.3    52  VAL52       0.0020
     29  N        -16.8280   45.9570   16.2470 N.am   53  PRO53      -0.2718
     30  CA       -16.1480   44.6630   16.1720 C.3    53  PRO53       0.1535
     31  C        -15.9130   44.2640   14.7000 C.2    53  PRO53       0.2598
     32  O        -16.7660   44.5370   13.8530 O.2    53  PRO53      -0.2715
     33  CB       -17.1450   43.6920   16.8210 C.3    53  PRO53       0.0310
     34  CG       -18.0220   44.5610   17.6620 C.3    53  PRO53       0.0237
     35  CD       -18.1690   45.8010   16.8230 C.3    53  PRO53       0.0939
     36  N        -14.7880   43.6090   14.4550 N.am   54  VAL54      -0.1978
     37  CA       -14.3610   43.1430   13.1260 C.3    54  VAL54       0.1596
     38  C        -14.0040   41.6250   13.1060 C.2    54  VAL54       0.2287
     39  O        -13.1390   41.1270   13.8640 O.2    54  VAL54      -0.2864
     40  CB       -13.2050   44.0280   12.6460 C.3    54  VAL54       0.0276
     41  CG1      -12.4710   43.4390   11.4460 C.3    54  VAL54       0.0022
     42  CG2      -13.7110   45.4270   12.2960 C.3    54  VAL54       0.0022
     43  N        -12.8330   40.0250   10.4540 N.3    56  SER56      -0.1217
     44  CA       -11.7150   39.8640    9.5160 C.3    56  SER56       0.1889
     45  C        -10.5430   39.0260   10.0480 C.2    56  SER56       0.2288
     46  O        -10.1720   39.1330   11.2090 O.2    56  SER56      -0.2866
     47  CB       -11.2000   41.2610    9.1470 C.3    56  SER56       0.2089
     48  OG        -9.9480   41.2230    8.4890 O.3    56  SER56      -0.2183
     49  N        -10.2970   37.0970   13.3600 N.3    59  GLY59      -0.1210
     50  CA       -11.6480   37.3270   13.8520 C.3    59  GLY59       0.1956
     51  C        -11.7160   38.1410   15.1450 C.2    59  GLY59       0.2612
     52  O        -10.7390   38.7260   15.5780 O.2    59  GLY59      -0.2717
     53  N        -12.9090   38.1750   15.7190 N.am   60  ILE60      -0.1965
     54  CA       -13.1710   38.9700   16.8880 C.3    60  ILE60       0.1727
     55  C        -12.3440   38.3820   18.0050 C.2    60  ILE60       0.2616
     56  O        -12.3280   37.1510   18.1800 O.2    60  ILE60      -0.2715
     57  CB       -14.6600   38.9620   17.2850 C.3    60  ILE60       0.0290
     58  CG1      -15.4270   39.8330   16.3010 C.3    60  ILE60       0.0022
     59  CG2      -14.8210   39.4820   18.7160 C.3    60  ILE60       0.0023
     60  CD1      -16.9360   39.7490   16.4210 C.3    60  ILE60       0.0001
     61  N        -11.6550   39.2560   18.7310 N.am   61  ILE61      -0.1977
     62  CA       -10.8770   38.8420   19.9280 C.3    61  ILE61       0.1596
     63  C        -11.7090   39.0120   21.2120 C.2    61  ILE61       0.2287
     64  O        -12.2100   40.1020   21.5100 O.2    61  ILE61      -0.2864
     65  CB        -9.5340   39.6070   20.0290 C.3    61  ILE61       0.0276
     66  CG1       -8.6330   39.2730   18.8400 C.3    61  ILE61       0.0022
     67  CG2       -8.7980   39.2910   21.3450 C.3    61  ILE61       0.0022
     68  CD1       -7.3800   40.1050   18.7370 C.3    61  ILE61       0.0001
     69  N        -11.9110   42.2610   23.4800 N.3    64  PHE64      -0.1227
     70  CA       -11.2920   43.3720   22.7960 C.3    64  PHE64       0.1736
     71  C        -12.2050   44.5870   22.7780 C.2    64  PHE64       0.2596
     72  O        -11.8110   45.6300   23.2580 O.2    64  PHE64      -0.2718
     73  CB       -10.8700   43.0030   21.3550 C.3    64  PHE64       0.0547
     74  CG       -10.1130   44.0990   20.6420 C.ar   64  PHE64      -0.0202
     75  CD1       -8.7650   44.3370   20.9170 C.ar   64  PHE64      -0.0042
     76  CD2      -10.7310   44.8560   19.6660 C.ar   64  PHE64      -0.0042
     77  CE1       -8.0670   45.3330   20.2530 C.ar   64  PHE64      -0.0003
     78  CE2      -10.0300   45.8560   18.9770 C.ar   64  PHE64      -0.0003
     79  CZ        -8.6950   46.0780   19.2790 C.ar   64  PHE64      -0.0000
     80  N        -13.3970   44.4670   22.1850 N.am   65  SER65      -0.1952
     81  CA       -14.3540   45.5770   22.1830 C.3    65  SER65       0.1924
     82  C        -14.7120   46.0070   23.6120 C.2    65  SER65       0.2314
     83  O        -14.8060   47.1860   23.8970 O.2    65  SER65      -0.2863
     84  CB       -15.6400   45.2360   21.4460 C.3    65  SER65       0.2116
     85  OG       -16.2950   44.0600   21.9310 O.3    65  SER65      -0.2180
     86  N        -10.4870   47.5780   14.1800 N.3   104  ALA104     -0.1231
     87  CA        -9.2270   46.9330   13.9980 C.3   104  ALA104      0.1694
     88  C         -9.4250   45.6320   13.2900 C.2   104  ALA104      0.2592
     89  O        -10.2840   44.8890   13.6620 O.2   104  ALA104     -0.2718
     90  CB        -8.5650   46.6410   15.3480 C.3   104  ALA104      0.0304
     91  N         -8.5930   45.3800   12.2840 N.am  105  ASP105     -0.1960
     92  CA        -8.4100   44.0300   11.7770 C.3   105  ASP105      0.1840
     93  C         -7.0220   43.5810   12.2280 C.2   105  ASP105      0.2622
     94  O         -6.4350   44.2080   13.1200 O.2   105  ASP105     -0.2715
     95  CB        -8.6880   43.9510   10.2450 C.3   105  ASP105      0.1450
     96  CG        -7.6790   44.6910    9.3700 C.2   105  ASP105      0.3671
     97  OD1       -6.5380   44.9960    9.8170 O.co2 105  ASP105     -0.2456
     98  OD2       -8.0320   44.9200    8.1650 O.co2 105  ASP105     -0.2456
     99  N         -6.5080   42.4890   11.6820 N.am  106  ASP106     -0.1971
    100  CA        -5.2210   41.9370   12.1540 C.3   106  ASP106      0.1709
    101  C         -3.9910   42.7220   11.7620 C.2   106  ASP106      0.2293
    102  O         -2.9080   42.4800   12.2990 O.2   106  ASP106     -0.2864
    103  CB        -5.0500   40.4930   11.6630 C.3   106  ASP106      0.1436
    104  CG        -6.0490   39.5400   12.2920 C.2   106  ASP106      0.3671
    105  OD1       -6.7810   39.9260   13.2410 O.co2 106  ASP106     -0.2456
    106  OD2       -6.0840   38.3660   11.8540 O.co2 106  ASP106     -0.2456
    107  N         -5.2130   48.9190   13.2570 N.3   109  PHE109     -0.1241
    108  CA        -6.1110   49.3320   14.3320 C.3   109  PHE109      0.1605
    109  C         -6.1100   50.8480   14.2040 C.2   109  PHE109      0.2264
    110  O         -5.0690   51.4850   14.3560 O.2   109  PHE109     -0.2867
    111  CB        -5.6070   48.8190   15.6880 C.3   109  PHE109      0.0534
    112  CG        -6.3360   49.3790   16.8910 C.ar  109  PHE109     -0.0203
    113  CD1       -7.6440   49.8470   16.8030 C.ar  109  PHE109     -0.0042
    114  CD2       -5.7150   49.4060   18.1350 C.ar  109  PHE109     -0.0042
    115  CE1       -8.3060   50.3440   17.8910 C.ar  109  PHE109     -0.0003
    116  CE2       -6.3800   49.9060   19.2280 C.ar  109  PHE109     -0.0003
    117  CZ        -7.6740   50.3850   19.1170 C.ar  109  PHE109     -0.0000
    118  N         -2.7460   52.7800   15.2020 N.3   122  ASN122     -0.1240
    119  CA        -2.2500   52.3090   16.5070 C.3   122  ASN122      0.1653
    120  C         -0.7290   52.1680   16.6390 C.2   122  ASN122      0.2266
    121  O         -0.1810   52.4680   17.6890 O.2   122  ASN122     -0.2867
    122  CB        -2.9010   50.9710   16.8650 C.3   122  ASN122      0.1155
    123  CG        -2.3300   50.3510   18.1390 C.2   122  ASN122      0.2627
    124  OD1       -1.4740   49.4810   18.0770 O.2   122  ASN122     -0.2716
    125  ND2       -2.7900   50.8070   19.2870 N.am  122  ASN122     -0.0877
    126  N          1.1660   54.1560   19.4500 N.3   126  THR126     -0.1218
    127  CA         1.6970   53.3980   20.5720 C.3   126  THR126      0.1862
    128  C          3.1750   53.6520   20.7530 C.2   126  THR126      0.2287
    129  O          3.6160   53.9640   21.8580 O.2   126  THR126     -0.2866
    130  CB         1.4280   51.8940   20.3920 C.3   126  THR126      0.1770
    131  OG1        0.0170   51.7130   20.3270 O.3   126  THR126     -0.2211
    132  CG2        2.0150   51.1000   21.5610 C.3   126  THR126      0.0375
    133  N          4.5610   42.4790   24.2860 N.3   227  ILE227     -0.1245
    134  CA         3.9520   41.4000   25.0470 C.3   227  ILE227      0.1561
    135  C          4.5630   40.0760   24.5720 C.2   227  ILE227      0.2260
    136  O          4.6830   39.8660   23.3850 O.2   227  ILE227     -0.2867
    137  CB         2.4350   41.3600   24.8070 C.3   227  ILE227      0.0252
    138  CG1        1.7810   42.7000   25.1810 C.3   227  ILE227      0.0019
    139  CG2        1.7930   40.2300   25.6030 C.3   227  ILE227      0.0019
    140  CD1        0.4870   42.9830   24.4400 C.3   227  ILE227      0.0001
    141  N         -1.5540   46.5510   27.9540 N.3   247  PRO247     -0.2102
    142  CA        -1.7670   45.8490   26.6630 C.3   247  PRO247      0.1504
    143  C         -2.5560   46.5540   25.5780 C.2   247  PRO247      0.2575
    144  O         -2.5840   46.0750   24.4300 O.2   247  PRO247     -0.2718
    145  CB        -2.5020   44.5590   27.0790 C.3   247  PRO247      0.0282
    146  CG        -3.1880   44.9150   28.3430 C.3   247  PRO247      0.0208
    147  CD        -2.3470   45.9380   29.0380 C.3   247  PRO247      0.0893
    148  N         -3.2180   47.6610   25.8930 N.am  248  LEU248     -0.1980
    149  CA        -4.1110   48.2830   24.9020 C.3   248  LEU248      0.1596
    150  C         -4.4430   49.7410   25.1720 C.2   248  LEU248      0.2287
    151  O         -4.5250   50.5420   24.2590 O.2   248  LEU248     -0.2864
    152  CB        -5.3970   47.4740   24.8230 C.3   248  LEU248      0.0297
    153  CG        -6.4120   47.8550   23.7440 C.3   248  LEU248      0.0022
    154  CD1       -5.7910   47.8570   22.3580 C.3   248  LEU248      0.0001
    155  CD2       -7.5900   46.9200   23.7810 C.3   248  LEU248      0.0001
@<TRIPOS>BOND
     1    98    96   ar
     2    48    47    1
     3    47    44    1
     4    96    97   ar
     5    96    95    1
     6    44    45    1
     7    44    43    1
     8    45    46    2
     9    95    92    1
    10    41    40    1
    11   103   100    1
    12   103   104    1
    13    99   100    1
    14    99    93   am
    15   101   100    1
    16   101   102    2
    17    92    93    1
    18    92    91    1
    19   106   104   ar
    20    93    94    2
    21    91    88   am
    22   104   105   ar
    23    42    40    1
    24    40    37    1
    25    38    37    1
    26    38    39    2
    27    37    36    1
    28   107   108    1
    29    27    26    1
    30    88    89    2
    31    88    87    1
    32    49    50    1
    33    50    51    1
    34    32    31    2
    35    87    86    1
    36    87    90    1
    37    28    26    1
    38   109   108    1
    39   109   110    2
    40    26    23    1
    41   108   111    1
    42    36    31   am
    43    31    30    1
    44    51    52    2
    45    51    53   am
    46   118   119    1
    47    25    24    2
    48    13    11    1
    49    12    11    1
    50   111   112    1
    51    23    24    1
    52    23    22    1
    53    53    54    1
    54    24    29   am
    55     1     2    1
    56    30    29    1
    57    30    33    1
    58    11    10    1
    59    29    35    1
    60    58    60    1
    61    58    57    1
    62   119   120    1
    63   119   122    1
    64   120   121    2
    65   113   112   ar
    66   113   115   ar
    67     4     3    2
    68    33    34    1
    69    35    34    1
    70   122   123    1
    71    54    57    1
    72    54    55    1
    73   112   114   ar
    74     2     3    1
    75     2     5    1
    76    57    59    1
    77     3     6   am
    78    10     7    1
    79   115   117   ar
    80    55    56    2
    81    55    61   am
    82   124   123    2
    83     6     7    1
    84   114   116   ar
    85   123   125   am
    86     7     8    1
    87    61    62    1
    88    68    66    1
    89    66    65    1
    90    78    79   ar
    91    78    76   ar
    92   117   116   ar
    93    79    77   ar
    94   126   127    1
    95    76    74   ar
    96     8    14   am
    97     8     9    2
    98    62    65    1
    99    62    63    1
   100    65    67    1
   101    77    75   ar
   102   131   130    1
   103   130   127    1
   104   130   132    1
   105    14    15    1
   106   127   128    1
   107    74    75   ar
   108    74    73    1
   109   128   129    2
   110    17    16    2
   111    63    64    2
   112    73    70    1
   113    84    85    1
   114    84    81    1
   115    15    16    1
   116    15    18    1
   117    18    19    1
   118    81    80    1
   119    81    82    1
   120    80    71   am
   121   154   153    1
   122    19    20    1
   123    19    21    1
   124    71    70    1
   125    71    72    2
   126    70    69    1
   127   136   135    2
   128    82    83    2
   129   153   155    1
   130   153   152    1
   131   151   150    2
   132   133   134    1
   133   144   143    2
   134   140   138    1
   135   135   134    1
   136   137   134    1
   137   137   138    1
   138   137   139    1
   139   152   149    1
   140   149   150    1
   141   149   148    1
   142   143   148   am
   143   143   142    1
   144   142   145    1
   145   142   141    1
   146   145   146    1
   147   141   147    1
   148   146   147    1
