@<TRIPOS>MOLECULE
tmp/4q3cC01.pdb
 148 142 0 0 0
SMALL
GASTEIGER

@<TRIPOS>ATOM
      1  N         15.0590  100.8490    0.0050 N.3     2  ALA2       -0.1231
      2  CA        13.9170  101.0240   -0.8840 C.3     2  ALA2        0.1694
      3  C         14.4260  101.7690   -2.1210 C.2     2  ALA2        0.2592
      4  O         14.6160  102.9920   -2.1020 O.2     2  ALA2       -0.2718
      5  CB        12.7930  101.7830   -0.1950 C.3     2  ALA2        0.0304
      6  N         14.6840  100.9970   -3.1760 N.am    3  LEU3       -0.1966
      7  CA        15.2520  101.4990   -4.4210 C.3     3  LEU3        0.1728
      8  C         14.2770  101.2510   -5.5660 C.2     3  LEU3        0.2616
      9  O         13.7350  100.1570   -5.7110 O.2     3  LEU3       -0.2715
     10  CB        16.5820  100.8000   -4.7420 C.3     3  LEU3        0.0311
     11  CG        17.7620  100.8650   -3.7610 C.3     3  LEU3        0.0022
     12  CD1       19.0410  100.4690   -4.4820 C.3     3  LEU3        0.0001
     13  CD2       17.9360  102.2300   -3.1140 C.3     3  LEU3        0.0001
     14  N         14.0770  102.2750   -6.3840 N.am    4  LEU4       -0.1977
     15  CA        13.1860  102.1890   -7.5340 C.3     4  LEU4        0.1596
     16  C         13.5640  101.0150   -8.4320 C.2     4  LEU4        0.2287
     17  O         14.7370  100.8470   -8.7740 O.2     4  LEU4       -0.2864
     18  CB        13.2520  103.4890   -8.3440 C.3     4  LEU4        0.0297
     19  CG        12.7550  104.7610   -7.6420 C.3     4  LEU4        0.0022
     20  CD1       13.4800  105.9870   -8.1860 C.3     4  LEU4        0.0001
     21  CD2       11.2440  104.9160   -7.7690 C.3     4  LEU4        0.0001
     22  N         24.7120  111.5130  -14.5700 N.3    51  VAL51      -0.1231
     23  CA        25.8400  110.5860  -14.5310 C.3    51  VAL51       0.1678
     24  C         25.4190  109.2360  -13.9340 C.2    51  VAL51       0.2434
     25  O         25.1910  109.1520  -12.7190 O.2    51  VAL51      -0.2733
     26  CB        26.9760  111.1670  -13.6520 C.3    51  VAL51       0.0265
     27  CG1       28.2000  110.2690  -13.6880 C.3    51  VAL51       0.0020
     28  CG2       27.3440  112.5710  -14.0990 C.3    51  VAL51       0.0020
     29  N         25.3270  108.1750  -14.7660 N.am   52  PRO52      -0.2718
     30  CA        24.9960  106.8710  -14.1820 C.3    52  PRO52       0.1535
     31  C         26.0990  106.3960  -13.2440 C.2    52  PRO52       0.2598
     32  O         27.2790  106.6750  -13.4960 O.2    52  PRO52      -0.2715
     33  CB        24.8780  105.9270  -15.3920 C.3    52  PRO52       0.0310
     34  CG        24.9890  106.7820  -16.6140 C.3    52  PRO52       0.0237
     35  CD        25.6330  108.0770  -16.2050 C.3    52  PRO52       0.0939
     36  N         25.7080  105.6960  -12.1770 N.am   53  VAL53      -0.1978
     37  CA        26.6420  105.2040  -11.1640 C.3    53  VAL53       0.1596
     38  C         26.4590  103.6960  -10.9430 C.2    53  VAL53       0.2287
     39  O         25.4160  103.2570  -10.4550 O.2    53  VAL53      -0.2864
     40  CB        26.4410  105.9660   -9.8290 C.3    53  VAL53       0.0276
     41  CG1       27.2690  105.3580   -8.6990 C.3    53  VAL53       0.0022
     42  CG2       26.7830  107.4430  -10.0080 C.3    53  VAL53       0.0022
     43  N         27.9810  101.7790   -8.7950 N.3    55  SER55      -0.1217
     44  CA        28.3550  101.3310   -7.4540 C.3    55  SER55       0.1889
     45  C         27.1770  100.6390   -6.7680 C.2    55  SER55       0.2288
     46  O         26.0160  101.0070   -6.9720 O.2    55  SER55      -0.2866
     47  CB        28.8820  102.4940   -6.5980 C.3    55  SER55       0.2089
     48  OG        27.8350  103.2840   -6.0640 O.3    55  SER55      -0.2183
     49  N         23.9350   99.1760   -8.4960 N.3    58  GLY58      -0.1210
     50  CA        24.3690   99.4700   -9.8610 C.3    58  GLY58       0.1956
     51  C         23.3880  100.3090  -10.6540 C.2    58  GLY58       0.2612
     52  O         22.4330  100.8530  -10.1040 O.2    58  GLY58      -0.2717
     53  N         23.6330  100.4210  -11.9580 N.am   59  ILE59      -0.1965
     54  CA        22.7440  101.1720  -12.8420 C.3    59  ILE59       0.1727
     55  C         21.3440  100.5790  -12.7420 C.2    59  ILE59       0.2616
     56  O         21.1800   99.3630  -12.8350 O.2    59  ILE59      -0.2715
     57  CB        23.2350  101.1370  -14.3100 C.3    59  ILE59       0.0290
     58  CG1       24.4210  102.0900  -14.4840 C.3    59  ILE59       0.0022
     59  CG2       22.1170  101.5130  -15.2830 C.3    59  ILE59       0.0023
     60  CD1       25.2100  101.8650  -15.7580 C.3    59  ILE59       0.0001
     61  N         20.3520  101.4370  -12.5240 N.am   60  ILE60      -0.1977
     62  CA        18.9480  101.0270  -12.5560 C.3    60  ILE60       0.1596
     63  C         18.3560  101.3750  -13.9270 C.2    60  ILE60       0.2287
     64  O         18.6120  102.4570  -14.4740 O.2    60  ILE60      -0.2864
     65  CB        18.1390  101.6910  -11.4200 C.3    60  ILE60       0.0276
     66  CG1       18.6950  101.2250  -10.0610 C.3    60  ILE60       0.0022
     67  CG2       16.6460  101.3790  -11.5520 C.3    60  ILE60       0.0022
     68  CD1       18.0260  101.8420   -8.8460 C.3    60  ILE60       0.0001
     69  N         16.3570  104.8360  -15.0540 N.3    63  PHE63      -0.1227
     70  CA        16.6240  105.8760  -14.0570 C.3    63  PHE63       0.1736
     71  C         17.1370  107.1760  -14.6660 C.2    63  PHE63       0.2596
     72  O         16.5260  108.2320  -14.4780 O.2    63  PHE63      -0.2718
     73  CB        17.6140  105.3810  -13.0060 C.3    63  PHE63       0.0547
     74  CG        17.8660  106.3690  -11.9080 C.ar   63  PHE63      -0.0202
     75  CD1       16.9190  106.5770  -10.9160 C.ar   63  PHE63      -0.0042
     76  CD2       19.0470  107.0920  -11.8610 C.ar   63  PHE63      -0.0042
     77  CE1       17.1450  107.4900   -9.8970 C.ar   63  PHE63      -0.0003
     78  CE2       19.2820  108.0030  -10.8400 C.ar   63  PHE63      -0.0003
     79  CZ        18.3290  108.2050   -9.8590 C.ar   63  PHE63      -0.0000
     80  N         18.2570  107.1020  -15.3830 N.am   64  SER64      -0.1952
     81  CA        18.8660  108.3020  -15.9730 C.3    64  SER64       0.1924
     82  C         17.9930  108.8800  -17.0860 C.2    64  SER64       0.2314
     83  O         17.8350  110.1000  -17.1910 O.2    64  SER64      -0.2863
     84  CB        20.2650  108.0010  -16.5110 C.3    64  SER64       0.2116
     85  OG        20.2200  106.9530  -17.4570 O.3    64  SER64      -0.2180
     86  N         23.5900  109.5520   -8.2630 N.3   103  ALA103     -0.1231
     87  CA        23.1670  108.8210   -7.0590 C.3   103  ALA103      0.1694
     88  C         23.8510  107.4710   -6.9280 C.2   103  ALA103      0.2592
     89  O         23.9710  106.7440   -7.9190 O.2   103  ALA103     -0.2718
     90  CB        21.6620  108.5910   -7.0910 C.3   103  ALA103      0.0304
     91  N         24.2800  107.1350   -5.7090 N.am  104  ASP104     -0.1960
     92  CA        24.5700  105.7390   -5.3480 C.3   104  ASP104      0.1840
     93  C         23.3860  105.2300   -4.5260 C.2   104  ASP104      0.2622
     94  O         22.3640  105.9120   -4.4420 O.2   104  ASP104     -0.2715
     95  CB        25.9470  105.5480   -4.6470 C.3   104  ASP104      0.1450
     96  CG        26.1090  106.3460   -3.3540 C.2   104  ASP104      0.3671
     97  OD1       25.1190  106.8460   -2.7870 O.co2 104  ASP104     -0.2456
     98  OD2       27.2650  106.4730   -2.9020 O.co2 104  ASP104     -0.2456
     99  N         23.5030  104.0430   -3.9380 N.am  105  ASP105     -0.1971
    100  CA        22.3770  103.4390   -3.2140 C.3   105  ASP105      0.1709
    101  C         21.9390  104.2350   -1.9780 C.2   105  ASP105      0.2293
    102  O         20.8180  104.0520   -1.5120 O.2   105  ASP105     -0.2864
    103  CB        22.6850  101.9720   -2.8440 C.3   105  ASP105      0.1436
    104  CG        22.9240  101.0900   -4.0780 C.2   105  ASP105      0.3671
    105  OD1       22.6560  101.5600   -5.2020 O.co2 105  ASP105     -0.2456
    106  OD2       23.3800   99.9290   -3.9350 O.co2 105  ASP105     -0.2456
    107  N         21.4820  110.5500   -3.1940 N.3   108  PHE108     -0.1241
    108  CA        21.1530  111.1260   -4.4860 C.3   108  PHE108      0.1605
    109  C         21.2900  112.6420   -4.3530 C.2   108  PHE108      0.2264
    110  O         20.5350  113.2760   -3.6150 O.2   108  PHE108     -0.2867
    111  CB        19.7330  110.7080   -4.8980 C.3   108  PHE108      0.0534
    112  CG        19.2360  111.3290   -6.1900 C.ar  108  PHE108     -0.0203
    113  CD1       20.1120  111.8180   -7.1560 C.ar  108  PHE108     -0.0042
    114  CD2       17.8740  111.3860   -6.4480 C.ar  108  PHE108     -0.0042
    115  CE1       19.6350  112.3730   -8.3280 C.ar  108  PHE108     -0.0003
    116  CE2       17.3910  111.9410   -7.6220 C.ar  108  PHE108     -0.0003
    117  CZ        18.2730  112.4320   -8.5630 C.ar  108  PHE108     -0.0000
    118  N         18.6030  114.4740   -1.9630 N.3   121  ASN121     -0.1240
    119  CA        17.2490  114.0900   -2.3730 C.3   121  ASN121      0.1653
    120  C         16.2420  113.8960   -1.2430 C.2   121  ASN121      0.2266
    121  O         15.0540  114.1660   -1.4280 O.2   121  ASN121     -0.2867
    122  CB        17.2870  112.7980   -3.1810 C.3   121  ASN121      0.1155
    123  CG        15.9020  112.3150   -3.5630 C.2   121  ASN121      0.2627
    124  OD1       15.4070  111.3280   -3.0210 O.2   121  ASN121     -0.2716
    125  ND2       15.2570  113.0280   -4.4770 N.am  121  ASN121     -0.0877
    126  N          6.5410  104.4190   -1.3900 N.3   226  ILE226     -0.1245
    127  CA         6.2880  103.3470   -2.3470 C.3   226  ILE226      0.1561
    128  C          6.2640  102.0120   -1.5830 C.2   226  ILE226      0.2260
    129  O          7.1940  101.7360   -0.8300 O.2   226  ILE226     -0.2867
    130  CB         7.3810  103.3570   -3.4490 C.3   226  ILE226      0.0252
    131  CG1        7.2840  104.6560   -4.2700 C.3   226  ILE226      0.0019
    132  CG2        7.2490  102.1460   -4.3630 C.3   226  ILE226      0.0019
    133  CD1        8.5860  105.0890   -4.9190 C.3   226  ILE226      0.0001
    134  N          6.8230  109.0020   -8.3270 N.3   246  PRO246     -0.2102
    135  CA         8.0090  108.2780   -7.8410 C.3   246  PRO246      0.1504
    136  C          9.3750  108.9910   -7.8370 C.2   246  PRO246      0.2575
    137  O         10.2990  108.4990   -7.1880 O.2   246  PRO246     -0.2718
    138  CB         8.0720  107.0610   -8.7730 C.3   246  PRO246      0.0282
    139  CG         7.4480  107.5280  -10.0400 C.3   246  PRO246      0.0208
    140  CD         6.3430  108.4530   -9.6130 C.3   246  PRO246      0.0893
    141  N          9.5220  110.1170   -8.5300 N.am  247  LEU247     -0.1980
    142  CA        10.8580  110.6960   -8.7250 C.3   247  LEU247      0.1596
    143  C         10.8220  112.1890   -9.0340 C.2   247  LEU247      0.2287
    144  O         11.4540  112.9940   -8.3400 O.2   247  LEU247     -0.2864
    145  CB        11.5670  109.9370   -9.8610 C.3   247  LEU247      0.0297
    146  CG        13.0390  110.2270  -10.1800 C.3   247  LEU247      0.0022
    147  CD1       13.9450  109.9780   -8.9800 C.3   247  LEU247      0.0001
    148  CD2       13.4730  109.3690  -11.3650 C.3   247  LEU247      0.0001
@<TRIPOS>BOND
     1    85    84    1
     2    83    82    2
     3    82    81    1
     4    34    35    1
     5    34    33    1
     6    84    81    1
     7    35    29    1
     8    81    80    1
     9    60    58    1
    10    33    30    1
    11    80    71   am
    12    59    57    1
    13    69    70    1
    14    29    30    1
    15    29    24   am
    16    71    72    2
    17    71    70    1
    18    22    23    1
    19    23    24    1
    20    23    26    1
    21    58    57    1
    22    64    63    2
    23    57    54    1
    24    30    31    1
    25    28    26    1
    26    70    73    1
    27    24    25    2
    28    63    62    1
    29    27    26    1
    30    32    31    2
    31    31    36   am
    32    73    74    1
    33    54    55    1
    34    54    53    1
    35    56    55    2
    36    55    61   am
    37    62    61    1
    38    62    65    1
    39    36    37    1
    40    53    51   am
    41    74    76   ar
    42    74    75   ar
    43    76    78   ar
    44    67    65    1
    45    65    66    1
    46   148   146    1
    47    37    38    1
    48    37    40    1
    49    38    39    2
    50    75    77   ar
    51    78    79   ar
    52    51    52    2
    53    51    50    1
    54   146   145    1
    55   146   147    1
    56    66    68    1
    57   139   140    1
    58   139   138    1
    59    42    40    1
    60    77    79   ar
    61    50    49    1
    62   145   142    1
    63    40    41    1
    64   140   134    1
    65   143   142    1
    66   143   144    2
    67    43    44    1
    68    17    16    2
    69   138   135    1
    70   142   141    1
    71   117   115   ar
    72   117   116   ar
    73   141   136   am
    74    16    15    1
    75    18    19    1
    76    18    15    1
    77   115   113   ar
    78   134   135    1
    79    86    87    1
    80    20    19    1
    81    89    88    2
    82   135   136    1
    83   136   137    2
    84    21    19    1
    85   116   114   ar
    86    15    14    1
    87    44    45    1
    88    44    47    1
    89   113   112   ar
    90    90    87    1
    91    87    88    1
    92    46    45    2
    93    88    91   am
    94    47    48    1
    95   114   112   ar
    96    14     8   am
    97   112   111    1
    98     9     8    2
    99    91    92    1
   100     8     7    1
   101    92    95    1
   102    92    93    1
   103   105   104   ar
   104   133   131    1
   105   111   108    1
   106    10     7    1
   107    10    11    1
   108    95    96    1
   109    93    94    2
   110    93    99   am
   111   108   109    1
   112   108   107    1
   113    12    11    1
   114   125   123   am
   115     7     6    1
   116   132   130    1
   117   109   110    2
   118   131   130    1
   119   104   106   ar
   120   104   103    1
   121    99   100    1
   122    11    13    1
   123   123   122    1
   124   123   124    2
   125   130   127    1
   126    96    98   ar
   127    96    97   ar
   128   100   103    1
   129   100   101    1
   130   122   119    1
   131     6     3   am
   132   119   118    1
   133   119   120    1
   134   127   128    1
   135   127   126    1
   136     3     4    2
   137     3     2    1
   138   101   102    2
   139   128   129    2
   140   121   120    2
   141     2     5    1
   142     2     1    1
