@<TRIPOS>MOLECULE
tmp/4q3cA01.pdb
 162 155 0 0 0
SMALL
GASTEIGER

@<TRIPOS>ATOM
      1  N          2.2500   38.4290   16.0770 N.3     2  ALA2       -0.1231
      2  CA         2.0670   38.4150   17.5300 C.3     2  ALA2        0.1694
      3  C          0.7200   39.0580   17.8840 C.2     2  ALA2        0.2592
      4  O          0.5490   40.2700   17.7040 O.2     2  ALA2       -0.2718
      5  CB         3.2120   39.1490   18.2130 C.3     2  ALA2        0.0304
      6  N         -0.2260   38.2460   18.3710 N.am    3  LEU3       -0.1966
      7  CA        -1.5970   38.7110   18.6590 C.3     3  LEU3        0.1728
      8  C         -2.0620   38.5280   20.1020 C.2     3  LEU3        0.2616
      9  O         -1.9030   37.4700   20.6880 O.2     3  LEU3       -0.2715
     10  CB        -2.6020   37.9760   17.7690 C.3     3  LEU3        0.0311
     11  CG        -3.1410   38.6720   16.5100 C.3     3  LEU3        0.0022
     12  CD1       -2.1770   39.6400   15.8470 C.3     3  LEU3        0.0001
     13  CD2       -3.5710   37.6270   15.5110 C.3     3  LEU3        0.0001
     14  N         -2.7210   39.5450   20.6420 N.am    4  LEU4       -0.1977
     15  CA        -3.3600   39.4330   21.9600 C.3     4  LEU4        0.1596
     16  C         -4.2100   38.1970   22.1310 C.2     4  LEU4        0.2287
     17  O         -4.8760   37.7860   21.2030 O.2     4  LEU4       -0.2864
     18  CB        -4.2880   40.6140   22.1820 C.3     4  LEU4        0.0297
     19  CG        -3.5810   41.9250   22.4610 C.3     4  LEU4        0.0022
     20  CD1       -4.5440   43.0710   22.1850 C.3     4  LEU4        0.0001
     21  CD2       -3.1140   41.9570   23.8880 C.3     4  LEU4        0.0001
     22  N        -15.9750   48.9110   16.8350 N.3    51  VAL51      -0.1231
     23  CA       -16.5200   47.9110   15.9880 C.3    51  VAL51       0.1678
     24  C        -15.7560   46.5900   16.0170 C.2    51  VAL51       0.2434
     25  O        -14.6530   46.5200   15.4450 O.2    51  VAL51      -0.2733
     26  CB       -16.5180   48.3980   14.4930 C.3    51  VAL51       0.0265
     27  CG1      -17.2180   47.3690   13.6570 C.3    51  VAL51       0.0020
     28  CG2      -17.1990   49.7380   14.3440 C.3    51  VAL51       0.0020
     29  N        -16.3660   45.5110   16.5570 N.am   52  PRO52      -0.2718
     30  CA       -15.7710   44.1850   16.3820 C.3    52  PRO52       0.1535
     31  C        -15.5940   43.8370   14.8770 C.2    52  PRO52       0.2598
     32  O        -16.4710   44.1500   14.1000 O.2    52  PRO52      -0.2715
     33  CB       -16.8300   43.2450   16.9180 C.3    52  PRO52       0.0310
     34  CG       -17.7680   44.1200   17.6980 C.3    52  PRO52       0.0237
     35  CD       -17.7770   45.3950   16.9140 C.3    52  PRO52       0.0939
     36  N        -14.5370   43.0980   14.5750 N.am   53  VAL53      -0.1978
     37  CA       -14.1460   42.7000   13.2170 C.3    53  VAL53       0.1596
     38  C        -13.7840   41.1960   13.2030 C.2    53  VAL53       0.2287
     39  O        -12.9620   40.7160   13.9940 O.2    53  VAL53      -0.2864
     40  CB       -12.9710   43.5860   12.7790 C.3    53  VAL53       0.0276
     41  CG1      -12.1580   42.9660   11.6580 C.3    53  VAL53       0.0022
     42  CG2      -13.4710   44.9790   12.4250 C.3    53  VAL53       0.0022
     43  N        -12.4490   39.3490   10.5910 N.3    55  SER55      -0.1217
     44  CA       -11.5360   38.8530    9.5580 C.3    55  SER55       0.1889
     45  C        -10.2980   38.2140   10.1730 C.2    55  SER55       0.2288
     46  O        -10.0090   38.3940   11.3340 O.2    55  SER55      -0.2866
     47  CB       -11.1460   39.9680    8.6140 C.3    55  SER55       0.2089
     48  OG       -10.6820   41.0680    9.3410 O.3    55  SER55      -0.2183
     49  N        -10.1240   36.4590   13.5350 N.3    58  GLY58      -0.1210
     50  CA       -11.4530   36.7860   14.0180 C.3    58  GLY58       0.1956
     51  C        -11.4850   37.5930   15.3040 C.2    58  GLY58       0.2612
     52  O        -10.5030   38.2000   15.7170 O.2    58  GLY58      -0.2717
     53  N        -12.6730   37.6330   15.8790 N.am   59  ILE59      -0.1965
     54  CA       -12.9540   38.3630   17.1120 C.3    59  ILE59       0.1727
     55  C        -12.1390   37.7730   18.2440 C.2    59  ILE59       0.2616
     56  O        -12.1850   36.5720   18.4820 O.2    59  ILE59      -0.2715
     57  CB       -14.4620   38.3180   17.4660 C.3    59  ILE59       0.0290
     58  CG1      -15.2280   39.2570   16.5310 C.3    59  ILE59       0.0022
     59  CG2      -14.6900   38.7610   18.9140 C.3    59  ILE59       0.0023
     60  CD1      -16.7300   39.0570   16.5370 C.3    59  ILE59       0.0001
     61  N        -11.3850   38.6250   18.9230 N.am   60  ILE60      -0.1977
     62  CA       -10.6050   38.1980   20.0590 C.3    60  ILE60       0.1596
     63  C        -11.3820   38.4460   21.3620 C.2    60  ILE60       0.2287
     64  O        -11.7700   39.5770   21.6840 O.2    60  ILE60      -0.2864
     65  CB        -9.2460   38.9150   20.0970 C.3    60  ILE60       0.0276
     66  CG1       -8.4180   38.5460   18.8700 C.3    60  ILE60       0.0022
     67  CG2       -8.5060   38.5800   21.3850 C.3    60  ILE60       0.0022
     68  CD1       -7.0790   39.2610   18.8140 C.3    60  ILE60       0.0001
     69  N        -11.5000   41.7050   23.6290 N.3    63  PHE63      -0.1227
     70  CA       -10.9010   42.8490   22.9140 C.3    63  PHE63       0.1736
     71  C        -11.7730   44.1120   22.8880 C.2    63  PHE63       0.2596
     72  O        -11.3170   45.1880   23.2820 O.2    63  PHE63      -0.2718
     73  CB       -10.4720   42.4470   21.5090 C.3    63  PHE63       0.0547
     74  CG        -9.7330   43.5270   20.7730 C.ar   63  PHE63      -0.0202
     75  CD1       -8.3960   43.7660   21.0260 C.ar   63  PHE63      -0.0042
     76  CD2      -10.3730   44.2940   19.8420 C.ar   63  PHE63      -0.0042
     77  CE1       -7.7100   44.7650   20.3690 C.ar   63  PHE63      -0.0003
     78  CE2       -9.6850   45.2760   19.1360 C.ar   63  PHE63      -0.0003
     79  CZ        -8.3510   45.5120   19.4130 C.ar   63  PHE63      -0.0000
     80  N        -13.0220   44.0130   22.4570 N.am   64  SER64      -0.1952
     81  CA       -13.8450   45.2100   22.4100 C.3    64  SER64       0.1924
     82  C        -14.3400   45.6110   23.8010 C.2    64  SER64       0.2314
     83  O        -14.4850   46.7970   24.0860 O.2    64  SER64      -0.2863
     84  CB       -15.0320   45.0610   21.4390 C.3    64  SER64       0.2116
     85  OG       -15.9050   44.0440   21.8700 O.3    64  SER64      -0.2180
     86  N        -10.1320   47.0130   14.5820 N.3   103  ALA103     -0.1231
     87  CA        -8.8970   46.3640   14.1840 C.3   103  ALA103      0.1694
     88  C         -9.0450   45.0750   13.4200 C.2   103  ALA103      0.2592
     89  O         -9.9150   44.2740   13.7310 O.2   103  ALA103     -0.2718
     90  CB        -8.0270   46.0920   15.3930 C.3   103  ALA103      0.0304
     91  N         -8.1230   44.8410   12.4870 N.am  104  ASP104     -0.1960
     92  CA        -7.9680   43.5090   11.9250 C.3   104  ASP104      0.1840
     93  C         -6.6070   42.9780   12.3730 C.2   104  ASP104      0.2622
     94  O         -6.0030   43.5490   13.2760 O.2   104  ASP104     -0.2715
     95  CB        -8.2790   43.4490   10.3940 C.3   104  ASP104      0.1450
     96  CG        -7.2290   44.1460    9.4760 C.2   104  ASP104      0.3671
     97  OD1       -6.1040   44.4490    9.9190 O.co2 104  ASP104     -0.2456
     98  OD2       -7.5690   44.3650    8.2430 O.co2 104  ASP104     -0.2456
     99  N         -6.1360   41.8760   11.8150 N.am  105  ASP105     -0.1971
    100  CA        -4.9230   41.2560   12.3390 C.3   105  ASP105      0.1709
    101  C         -3.6490   42.0390   12.0510 C.2   105  ASP105      0.2293
    102  O         -2.6290   41.7750   12.6600 O.2   105  ASP105     -0.2864
    103  CB        -4.7840   39.8170   11.8520 C.3   105  ASP105      0.1436
    104  CG        -5.8650   38.8850   12.4060 C.2   105  ASP105      0.3671
    105  OD1       -6.7120   39.2800   13.2530 O.co2 105  ASP105     -0.2456
    106  OD2       -5.8620   37.7050   11.9850 O.co2 105  ASP105     -0.2456
    107  N         -4.7410   48.1870   13.5980 N.3   108  PHE108     -0.1241
    108  CA        -5.6370   48.7340   14.5890 C.3   108  PHE108      0.1605
    109  C         -5.5890   50.2580   14.3910 C.2   108  PHE108      0.2264
    110  O         -4.5490   50.8880   14.4510 O.2   108  PHE108     -0.2867
    111  CB        -5.1720   48.2700   16.0010 C.3   108  PHE108      0.0534
    112  CG        -5.9500   48.8510   17.1530 C.ar  108  PHE108     -0.0203
    113  CD1       -7.2520   49.3180   17.0090 C.ar  108  PHE108     -0.0042
    114  CD2       -5.3740   48.8700   18.4470 C.ar  108  PHE108     -0.0042
    115  CE1       -7.9580   49.8170   18.0960 C.ar  108  PHE108     -0.0003
    116  CE2       -6.0720   49.3840   19.5110 C.ar  108  PHE108     -0.0003
    117  CZ        -7.3400   49.8690   19.3430 C.ar  108  PHE108     -0.0000
    118  N         -2.1690   52.1090   15.4620 N.3   121  ASN121     -0.1240
    119  CA        -1.7110   51.6730   16.7920 C.3   121  ASN121      0.1653
    120  C         -0.1960   51.4860   16.9070 C.2   121  ASN121      0.2266
    121  O          0.4000   51.6960   17.9850 O.2   121  ASN121     -0.2867
    122  CB        -2.3710   50.3450   17.1370 C.3   121  ASN121      0.1155
    123  CG        -1.9350   49.8100   18.4980 C.2   121  ASN121      0.2627
    124  OD1       -1.1930   48.8430   18.5810 O.2   121  ASN121     -0.2716
    125  ND2       -2.3950   50.4350   19.5590 N.am  121  ASN121     -0.0877
    126  N          1.7860   53.5840   19.6840 N.3   125  THR125     -0.1218
    127  CA         2.3070   52.8610   20.8040 C.3   125  THR125      0.1862
    128  C          3.8080   53.0810   21.0400 C.2   125  THR125      0.2287
    129  O          4.2350   53.3150   22.1810 O.2   125  THR125     -0.2866
    130  CB         2.0650   51.3690   20.6280 C.3   125  THR125      0.1770
    131  OG1        0.6600   51.1420   20.6240 O.3   125  THR125     -0.2211
    132  CG2        2.7410   50.5990   21.7500 C.3   125  THR125      0.0375
    133  N          5.9420   47.9440   25.4060 N.3   224  PRO224     -0.2116
    134  CA         4.6670   47.3950   24.9960 C.3   224  PRO224      0.1372
    135  C          4.7440   45.8860   24.7700 C.2   224  PRO224      0.2244
    136  O          3.7270   45.2330   24.5710 O.2   224  PRO224     -0.2868
    137  CB         4.3880   48.1250   23.6810 C.3   224  PRO224      0.0268
    138  CG         5.7430   48.4040   23.1030 C.3   224  PRO224      0.0207
    139  CD         6.5520   48.7510   24.3360 C.3   224  PRO224      0.0892
    140  N          5.1130   41.8290   24.5290 N.3   226  ILE226     -0.1245
    141  CA         4.4980   40.6730   25.1900 C.3   226  ILE226      0.1561
    142  C          5.2170   39.4110   24.7170 C.2   226  ILE226      0.2260
    143  O          5.4050   39.2500   23.5500 O.2   226  ILE226     -0.2867
    144  CB         2.9590   40.5870   24.9460 C.3   226  ILE226      0.0252
    145  CG1        2.2980   41.9580   25.2050 C.3   226  ILE226      0.0019
    146  CG2        2.3450   39.5520   25.9070 C.3   226  ILE226      0.0019
    147  CD1        0.8540   42.1160   24.7360 C.3   226  ILE226      0.0001
    148  N         -1.0630   45.9990   28.3140 N.3   246  PRO246     -0.2102
    149  CA        -1.2480   45.3940   26.9720 C.3   246  PRO246      0.1504
    150  C         -2.0140   46.1270   25.9010 C.2   246  PRO246      0.2575
    151  O         -1.9540   45.6910   24.7570 O.2   246  PRO246     -0.2718
    152  CB        -1.9930   44.0980   27.2630 C.3   246  PRO246      0.0282
    153  CG        -2.6600   44.3260   28.5930 C.3   246  PRO246      0.0208
    154  CD        -1.7730   45.2510   29.3620 C.3   246  PRO246      0.0893
    155  N         -2.7520   47.1840   26.2070 N.am  247  LEU247     -0.1980
    156  CA        -3.5870   47.7810   25.1410 C.3   247  LEU247      0.1596
    157  C         -3.9290   49.2400   25.3670 C.2   247  LEU247      0.2287
    158  O         -4.0200   50.0190   24.4190 O.2   247  LEU247     -0.2864
    159  CB        -4.8670   46.9410   24.9960 C.3   247  LEU247      0.0297
    160  CG        -5.9140   47.3010   23.9440 C.3   247  LEU247      0.0022
    161  CD1       -5.4090   47.2210   22.5030 C.3   247  LEU247      0.0001
    162  CD2       -7.1170   46.3930   24.1300 C.3   247  LEU247      0.0001
@<TRIPOS>BOND
     1    98    96   ar
     2    47    48    1
     3    47    44    1
     4    96    97   ar
     5    96    95    1
     6    44    45    1
     7    44    43    1
     8    45    46    2
     9    95    92    1
    10    41    40    1
    11    99   100    1
    12    99    93   am
    13   103   100    1
    14   103   104    1
    15    92    93    1
    16    92    91    1
    17   106   104   ar
    18   101   100    1
    19   101   102    2
    20    93    94    2
    21   104   105   ar
    22    42    40    1
    23    91    88   am
    24    40    37    1
    25    38    37    1
    26    38    39    2
    27    37    36    1
    28    88    89    2
    29    88    87    1
    30    49    50    1
    31   107   108    1
    32    27    26    1
    33    50    51    1
    34    32    31    2
    35    87    86    1
    36    87    90    1
    37    28    26    1
    38   109   110    2
    39   109   108    1
    40    26    23    1
    41    36    31   am
    42   108   111    1
    43    31    30    1
    44    51    52    2
    45    51    53   am
    46    25    24    2
    47   118   119    1
    48    13    11    1
    49    12    11    1
    50    53    54    1
    51    23    24    1
    52    23    22    1
    53   111   112    1
    54    24    29   am
    55     1     2    1
    56    30    29    1
    57    30    33    1
    58    11    10    1
    59    58    60    1
    60    58    57    1
    61    29    35    1
    62   119   120    1
    63   119   122    1
    64   120   121    2
    65    35    34    1
    66    33    34    1
    67   113   112   ar
    68   113   115   ar
    69    54    57    1
    70    54    55    1
    71   122   123    1
    72   112   114   ar
    73    57    59    1
    74     2     3    1
    75     2     5    1
    76     4     3    2
    77    10     7    1
    78     3     6   am
    79   115   117   ar
    80    55    56    2
    81    55    61   am
    82     6     7    1
    83   114   116   ar
    84   123   124    2
    85   123   125   am
    86     7     8    1
    87    68    66    1
    88    66    65    1
    89    61    62    1
    90    78    79   ar
    91    78    76   ar
    92   117   116   ar
    93    79    77   ar
    94   126   127    1
    95    76    74   ar
    96    62    65    1
    97    62    63    1
    98    65    67    1
    99     8    14   am
   100     8     9    2
   101    77    75   ar
   102   131   130    1
   103   130   127    1
   104   130   132    1
   105    14    15    1
   106    74    75   ar
   107    74    73    1
   108   127   128    1
   109   128   129    2
   110    17    16    2
   111    63    64    2
   112    84    85    1
   113    84    81    1
   114    73    70    1
   115    15    16    1
   116    15    18    1
   117    18    19    1
   118    20    19    1
   119    81    80    1
   120    81    82    1
   121    80    71   am
   122    19    21    1
   123   161   160    1
   124    71    70    1
   125    71    72    2
   126    70    69    1
   127   138   137    1
   128   138   139    1
   129   143   142    2
   130   137   134    1
   131    82    83    2
   132   160   162    1
   133   160   159    1
   134   139   133    1
   135   158   157    2
   136   140   141    1
   137   136   135    2
   138   142   141    1
   139   147   145    1
   140   151   150    2
   141   135   134    1
   142   144   141    1
   143   144   145    1
   144   144   146    1
   145   159   156    1
   146   134   133    1
   147   156   157    1
   148   156   155    1
   149   150   155   am
   150   150   149    1
   151   149   152    1
   152   149   148    1
   153   152   153    1
   154   148   154    1
   155   153   154    1
