@<TRIPOS>MOLECULE
tmp/4q3dB01.pdb
 177 171 0 0 0
SMALL
GASTEIGER

@<TRIPOS>ATOM
      1  N        -14.0230   34.6340  -23.1430 N.3     1  ALA1       -0.1231
      2  CA       -15.3810   34.2560  -22.6390 C.3     1  ALA1        0.1694
      3  C        -16.1800   35.4950  -22.2440 C.2     1  ALA1        0.2592
      4  O        -15.6180   36.5800  -22.0620 O.2     1  ALA1       -0.2718
      5  CB       -15.2700   33.2970  -21.4580 C.3     1  ALA1        0.0304
      6  N        -17.4930   35.3180  -22.1120 N.am    2  LEU2       -0.1966
      7  CA       -18.4000   36.4130  -21.7770 C.3     2  LEU2        0.1728
      8  C        -18.6880   36.4620  -20.2850 C.2     2  LEU2        0.2616
      9  O        -18.5720   35.4580  -19.5860 O.2     2  LEU2       -0.2715
     10  CB       -19.7180   36.2500  -22.5410 C.3     2  LEU2        0.0311
     11  CG       -19.6250   36.4880  -24.0450 C.3     2  LEU2        0.0022
     12  CD1      -20.9130   36.0860  -24.7430 C.3     2  LEU2        0.0001
     13  CD2      -19.3070   37.9470  -24.3110 C.3     2  LEU2        0.0001
     14  N        -19.0620   37.6410  -19.8020 N.am    3  LEU3       -0.1977
     15  CA       -19.6000   37.7760  -18.4510 C.3     3  LEU3        0.1596
     16  C        -20.6210   36.6740  -18.2140 C.2     3  LEU3        0.2287
     17  O        -21.4300   36.3660  -19.0900 O.2     3  LEU3       -0.2864
     18  CB       -20.2920   39.1330  -18.2700 C.3     3  LEU3        0.0297
     19  CG       -19.7530   40.2270  -17.3390 C.3     3  LEU3        0.0022
     20  CD1      -18.3390   40.0020  -16.8240 C.3     3  LEU3        0.0001
     21  CD2      -19.8590   41.5590  -18.0650 C.3     3  LEU3        0.0001
     22  N        -30.5700   48.9800  -23.5570 N.3    50  VAL50      -0.1231
     23  CA       -31.2770   48.0810  -24.4760 C.3    50  VAL50       0.1678
     24  C        -30.7220   46.6550  -24.3810 C.2    50  VAL50       0.2434
     25  O        -29.5750   46.4180  -24.7610 O.2    50  VAL50      -0.2733
     26  CB       -31.1480   48.5580  -25.9410 C.3    50  VAL50       0.0265
     27  CG1      -31.9660   47.6750  -26.8670 C.3    50  VAL50       0.0020
     28  CG2      -31.5960   50.0050  -26.0770 C.3    50  VAL50       0.0020
     29  N        -31.5290   45.6970  -23.8850 N.am   51  PRO51      -0.2718
     30  CA       -31.0820   44.3030  -23.9360 C.3    51  PRO51       0.1535
     31  C        -30.9250   43.8420  -25.3800 C.2    51  PRO51       0.2598
     32  O        -31.7090   44.2480  -26.2390 O.2    51  PRO51      -0.2715
     33  CB       -32.2200   43.5290  -23.2550 C.3    51  PRO51       0.0310
     34  CG       -33.0160   44.5480  -22.5090 C.3    51  PRO51       0.0237
     35  CD       -32.8590   45.8280  -23.2700 C.3    51  PRO51       0.0939
     36  N        -29.9270   42.9990  -25.6290 N.am   52  VAL52      -0.1978
     37  CA       -29.6040   42.5250  -26.9740 C.3    52  VAL52       0.1596
     38  C        -29.5670   40.9900  -27.0070 C.2    52  VAL52       0.2287
     39  O        -28.8130   40.3680  -26.2640 O.2    52  VAL52      -0.2864
     40  CB       -28.2640   43.1330  -27.4430 C.3    52  VAL52       0.0276
     41  CG1      -27.7580   42.4830  -28.7260 C.3    52  VAL52       0.0022
     42  CG2      -28.4200   44.6320  -27.6520 C.3    52  VAL52       0.0022
     43  N        -28.6830   39.1680  -29.6260 N.3    54  SER54      -0.1217
     44  CA       -27.6870   38.7110  -30.6030 C.3    54  SER54       0.1889
     45  C        -26.6650   37.7300  -30.0240 C.2    54  SER54       0.2288
     46  O        -26.3020   37.8100  -28.8520 O.2    54  SER54      -0.2866
     47  CB       -26.9480   39.9160  -31.1980 C.3    54  SER54       0.2089
     48  OG       -25.7960   39.5170  -31.9250 O.3    54  SER54      -0.2183
     49  N        -26.6990   35.8050  -26.6820 N.3    57  GLY57      -0.1210
     50  CA       -28.0020   36.2930  -26.2250 C.3    57  GLY57       0.1956
     51  C        -27.9490   37.1510  -24.9760 C.2    57  GLY57       0.2612
     52  O        -26.8870   37.6350  -24.5790 O.2    57  GLY57      -0.2717
     53  N        -29.1100   37.3510  -24.3620 N.am   58  ILE58      -0.1965
     54  CA       -29.2040   38.1320  -23.1330 C.3    58  ILE58       0.1727
     55  C        -28.4600   37.4030  -22.0150 C.2    58  ILE58       0.2616
     56  O        -28.7090   36.2250  -21.7700 O.2    58  ILE58      -0.2715
     57  CB       -30.6780   38.3920  -22.7360 C.3    58  ILE58       0.0290
     58  CG1      -31.2740   39.4700  -23.6450 C.3    58  ILE58       0.0022
     59  CG2      -30.7850   38.8440  -21.2820 C.3    58  ILE58       0.0023
     60  CD1      -32.7870   39.4690  -23.7100 C.3    58  ILE58       0.0001
     61  N        -27.5300   38.0990  -21.3670 N.am   59  ILE59      -0.1977
     62  CA       -26.8050   37.5410  -20.2270 C.3    59  ILE59       0.1596
     63  C        -27.5390   37.9220  -18.9450 C.2    59  ILE59       0.2287
     64  O        -27.7820   39.1020  -18.6900 O.2    59  ILE59      -0.2864
     65  CB       -25.3540   38.0620  -20.1710 C.3    59  ILE59       0.0276
     66  CG1      -24.5750   37.5760  -21.3960 C.3    59  ILE59       0.0022
     67  CG2      -24.6570   37.6080  -18.8940 C.3    59  ILE59       0.0022
     68  CD1      -23.2510   38.2810  -21.5890 C.3    59  ILE59       0.0001
     69  N        -27.3110   41.2500  -16.6790 N.3    62  PHE62      -0.1227
     70  CA       -26.4940   42.2320  -17.4100 C.3    62  PHE62       0.1736
     71  C        -27.1390   43.6090  -17.4710 C.2    62  PHE62       0.2596
     72  O        -26.5380   44.5980  -17.0510 O.2    62  PHE62      -0.2718
     73  CB       -26.1550   41.7810  -18.8380 C.3    62  PHE62       0.0547
     74  CG       -25.2180   42.7260  -19.5510 C.ar   62  PHE62      -0.0202
     75  CD1      -23.8600   42.7160  -19.2710 C.ar   62  PHE62      -0.0042
     76  CD2      -25.6960   43.6520  -20.4600 C.ar   62  PHE62      -0.0042
     77  CE1      -22.9930   43.5910  -19.9030 C.ar   62  PHE62      -0.0003
     78  CE2      -24.8350   44.5270  -21.1060 C.ar   62  PHE62      -0.0003
     79  CZ       -23.4810   44.4970  -20.8280 C.ar   62  PHE62      -0.0000
     80  N        -28.3410   43.6890  -18.0280 N.am   63  SER63      -0.1952
     81  CA       -29.0260   44.9760  -18.0940 C.3    63  SER63       0.1924
     82  C        -29.4140   45.4570  -16.6840 C.2    63  SER63       0.2314
     83  O        -29.3460   46.6510  -16.4000 O.2    63  SER63      -0.2863
     84  CB       -30.2340   44.9240  -19.0290 C.3    63  SER63       0.2116
     85  OG       -31.2600   44.1160  -18.4900 O.3    63  SER63      -0.2180
     86  N        -24.9750   46.2270  -25.9100 N.3   102  ALA102     -0.1231
     87  CA       -23.8160   45.3860  -26.1990 C.3   102  ALA102      0.1694
     88  C        -24.1940   44.0870  -26.8790 C.2   102  ALA102      0.2592
     89  O        -25.1490   43.4430  -26.4800 O.2   102  ALA102     -0.2718
     90  CB       -23.0750   45.0740  -24.9150 C.3   102  ALA102      0.0304
     91  N        -23.4460   43.7050  -27.9120 N.am  103  ASP103     -0.1960
     92  CA       -23.5110   42.3330  -28.4090 C.3   103  ASP103      0.1840
     93  C        -22.2780   41.5910  -27.8940 C.2   103  ASP103      0.2622
     94  O        -21.6920   41.9970  -26.8730 O.2   103  ASP103     -0.2715
     95  CB       -23.7370   42.2490  -29.9370 C.3   103  ASP103      0.1450
     96  CG       -22.6220   42.8760  -30.7770 C.2   103  ASP103      0.3671
     97  OD1      -21.4940   43.1050  -30.2990 O.co2 103  ASP103     -0.2456
     98  OD2      -22.8970   43.1310  -31.9660 O.co2 103  ASP103     -0.2456
     99  N        -21.8990   40.5030  -28.5550 N.am  104  ASP104     -0.1957
    100  CA       -20.8020   39.6760  -28.0660 C.3   104  ASP104      0.1840
    101  C        -19.4230   40.2540  -28.3930 C.2   104  ASP104      0.2622
    102  O        -18.4270   39.8360  -27.8140 O.2   104  ASP104     -0.2715
    103  CB       -20.9330   38.2420  -28.5900 C.3   104  ASP104      0.1450
    104  CG       -22.1140   37.4960  -27.9750 C.2   104  ASP104      0.3671
    105  OD1      -22.8360   38.0680  -27.1240 O.co2 104  ASP104     -0.2456
    106  OD2      -22.3190   36.3210  -28.3350 O.co2 104  ASP104     -0.2456
    107  N        -19.3610   41.2270  -29.2950 N.am  105  ARG105     -0.1963
    108  CA       -18.0760   41.7980  -29.7060 C.3   105  ARG105      0.1729
    109  C        -17.9250   43.2770  -29.3620 C.2   105  ARG105      0.2617
    110  O        -16.8060   43.7750  -29.2840 O.2   105  ARG105     -0.2715
    111  CB       -17.8610   41.5860  -31.2140 C.3   105  ARG105      0.0348
    112  CG       -18.0520   40.1460  -31.6860 C.3   105  ARG105      0.0492
    113  CD       -16.7410   39.3730  -31.8410 C.3   105  ARG105      0.2205
    114  NE       -15.9690   39.2920  -30.5960 N.pl3 105  ARG105     -0.0865
    115  CZ       -15.9470   38.2570  -29.7480 C.cat 105  ARG105      0.5346
    116  NH1      -16.6580   37.1520  -29.9720 N.pl3 105  ARG105      0.1354
    117  NH2      -15.1980   38.3320  -28.6490 N.pl3 105  ARG105      0.1354
    118  N        -19.0370   43.9820  -29.1660 N.am  106  THR106     -0.1937
    119  CA       -18.9980   45.4160  -28.8990 C.3   106  THR106      0.2028
    120  C        -19.9850   45.7990  -27.8050 C.2   106  THR106      0.2642
    121  O        -21.1540   45.4190  -27.8520 O.2   106  THR106     -0.2714
    122  CB       -19.3330   46.2360  -30.1640 C.3   106  THR106      0.1808
    123  OG1      -18.4630   45.8500  -31.2310 O.3   106  THR106     -0.2208
    124  CG2      -19.1650   47.7290  -29.9120 C.3   106  THR106      0.0379
    125  N        -19.4950   46.5430  -26.8200 N.am  107  PHE107     -0.1973
    126  CA       -20.3390   47.1810  -25.8280 C.3   107  PHE107      0.1639
    127  C        -20.1070   48.6750  -26.0050 C.2   107  PHE107      0.2290
    128  O        -18.9710   49.1330  -25.9600 O.2   107  PHE107     -0.2864
    129  CB       -19.9710   46.6870  -24.4120 C.3   107  PHE107      0.0560
    130  CG       -20.6630   47.4290  -23.2880 C.ar  107  PHE107     -0.0200
    131  CD1      -21.8870   48.0640  -23.4740 C.ar  107  PHE107     -0.0042
    132  CD2      -20.0920   47.4590  -22.0170 C.ar  107  PHE107     -0.0042
    133  CE1      -22.5110   48.7270  -22.4270 C.ar  107  PHE107     -0.0003
    134  CE2      -20.7110   48.1300  -20.9740 C.ar  107  PHE107     -0.0003
    135  CZ       -21.9220   48.7620  -21.1770 C.ar  107  PHE107     -0.0000
    136  N        -16.3320   52.9850  -26.9800 N.3   119  ASN119     -0.1225
    137  CA       -16.2600   51.5250  -26.9910 C.3   119  ASN119      0.1785
    138  C        -15.7170   51.0670  -25.6270 C.2   119  ASN119      0.2597
    139  O        -14.7530   51.6320  -25.1330 O.2   119  ASN119     -0.2718
    140  CB       -15.3830   51.0380  -28.1610 C.3   119  ASN119      0.1169
    141  CG       -15.4070   49.5230  -28.3330 C.2   119  ASN119      0.2627
    142  OD1      -15.0950   48.7820  -27.4050 O.2   119  ASN119     -0.2716
    143  ND2      -15.7480   49.0560  -29.5360 N.am  119  ASN119     -0.0877
    144  N        -16.3470   50.0550  -25.0340 N.am  120  ASN120     -0.1960
    145  CA       -16.0210   49.5740  -23.6760 C.3   120  ASN120      0.1819
    146  C        -14.5640   49.1830  -23.4720 C.2   120  ASN120      0.2621
    147  O        -14.0100   49.3610  -22.3740 O.2   120  ASN120     -0.2715
    148  CB       -16.8890   48.3540  -23.3270 C.3   120  ASN120      0.1195
    149  CG       -16.6310   47.8120  -21.9120 C.2   120  ASN120      0.2630
    150  OD1      -16.0730   46.7240  -21.7310 O.2   120  ASN120     -0.2716
    151  ND2      -17.0600   48.5620  -20.9090 N.am  120  ASN120     -0.0877
    152  N        -13.9580   48.6230  -24.5160 N.am  121  GLN121     -0.1977
    153  CA       -12.6140   48.0590  -24.4140 C.3   121  GLN121      0.1601
    154  C        -11.5290   49.1080  -24.1610 C.2   121  GLN121      0.2287
    155  O        -10.8050   49.0030  -23.1760 O.2   121  GLN121     -0.2864
    156  CB       -12.2990   47.1860  -25.6360 C.3   121  GLN121      0.0394
    157  CG       -12.9830   45.8330  -25.5440 C.3   121  GLN121      0.0908
    158  CD       -13.2020   45.1400  -26.8790 C.2   121  GLN121      0.2608
    159  OE1      -13.0940   45.7420  -27.9520 O.2   121  GLN121     -0.2717
    160  NE2      -13.5330   43.8620  -26.8170 N.am  121  GLN121     -0.0878
    161  N         -7.2090   44.0770  -26.6290 N.3   150  LYS150     -0.1245
    162  CA        -8.1510   45.1810  -26.8430 C.3   150  LYS150      0.1561
    163  C         -8.2160   46.1420  -25.6660 C.2   150  LYS150      0.2260
    164  O         -8.3900   47.3370  -25.8710 O.2   150  LYS150     -0.2867
    165  CB        -9.5600   44.6670  -27.1570 C.3   150  LYS150      0.0271
    166  CG        -9.8570   44.5000  -28.6450 C.3   150  LYS150      0.0035
    167  CD        -9.8480   43.0460  -29.0620 C.3   150  LYS150      0.0206
    168  CE       -11.1190   42.3340  -28.6190 C.3   150  LYS150      0.1093
    169  NZ       -10.8530   40.9190  -28.2390 N.3   150  LYS150     -0.1314
    170  N        -17.6690   45.2830  -14.2520 N.3   246  LEU246     -0.1245
    171  CA       -18.4640   46.0200  -15.2460 C.3   246  LEU246      0.1561
    172  C        -18.5650   47.5280  -14.9980 C.2   246  LEU246      0.2260
    173  O        -18.5260   48.3230  -15.9430 O.2   246  LEU246     -0.2867
    174  CB       -19.8730   45.4050  -15.3040 C.3   246  LEU246      0.0270
    175  CG       -20.8480   45.8860  -16.3820 C.3   246  LEU246      0.0019
    176  CD1      -20.2890   45.6570  -17.7780 C.3   246  LEU246      0.0001
    177  CD2      -22.1840   45.1740  -16.2260 C.3   246  LEU246      0.0001
@<TRIPOS>BOND
     1    98    96   ar
     2    48    47    1
     3   113   112    1
     4   113   114    1
     5   112   111    1
     6   123   122    1
     7   111   108    1
     8    47    44    1
     9    96    97   ar
    10    96    95    1
    11    44    45    1
    12    44    43    1
    13   114   115    2
    14   122   124    1
    15   122   119    1
    16    45    46    2
    17   116   115    1
    18    95    92    1
    19   115   117    1
    20   108   109    1
    21   108   107    1
    22   143   141   am
    23   109   110    2
    24   109   118   am
    25   107   101   am
    26   118   119    1
    27   167   166    1
    28   167   168    1
    29   119   120    1
    30    41    40    1
    31   166   165    1
    32   168   169    1
    33   103   100    1
    34   103   104    1
    35    99   100    1
    36    99    93   am
    37    92    91    1
    38    92    93    1
    39   101   100    1
    40   101   102    2
    41   106   104   ar
    42   141   140    1
    43   141   142    2
    44   140   137    1
    45   104   105   ar
    46   159   158    2
    47    91    88   am
    48    93    94    2
    49   121   120    2
    50   120   125   am
    51    42    40    1
    52    40    37    1
    53   165   162    1
    54    38    37    1
    55    38    39    2
    56   137   136    1
    57   137   138    1
    58    37    36    1
    59   158   160   am
    60   158   157    1
    61    88    89    2
    62    88    87    1
    63    27    26    1
    64   162   161    1
    65   162   163    1
    66   125   126    1
    67    49    50    1
    68    32    31    2
    69    50    51    1
    70    87    86    1
    71    87    90    1
    72    28    26    1
    73   127   128    2
    74   127   126    1
    75    26    23    1
    76   164   163    2
    77   126   129    1
    78   156   157    1
    79   156   153    1
    80    36    31   am
    81   138   139    2
    82   138   144   am
    83    31    30    1
    84   144   145    1
    85    51    52    2
    86    51    53   am
    87    25    24    2
    88    12    11    1
    89   152   153    1
    90   152   146   am
    91    23    24    1
    92    23    22    1
    93   153   154    1
    94   129   130    1
    95    24    29   am
    96    53    54    1
    97    13    11    1
    98   154   155    2
    99    11    10    1
   100    30    29    1
   101    30    33    1
   102    29    35    1
   103    60    58    1
   104   145   146    1
   105   145   148    1
   106    58    57    1
   107   131   130   ar
   108   131   133   ar
   109   146   147    2
   110   148   149    1
   111   130   132   ar
   112    35    34    1
   113    33    34    1
   114     1     2    1
   115    54    57    1
   116    54    55    1
   117    57    59    1
   118     2     3    1
   119     2     5    1
   120    10     7    1
   121   133   135   ar
   122     3     6   am
   123     3     4    2
   124     6     7    1
   125   132   134   ar
   126    55    56    2
   127    55    61   am
   128   149   150    2
   129   149   151   am
   130     7     8    1
   131    68    66    1
   132    66    65    1
   133    61    62    1
   134   135   134   ar
   135    78    79   ar
   136    78    76   ar
   137    79    77   ar
   138    76    74   ar
   139     8    14   am
   140     8     9    2
   141    62    65    1
   142    62    63    1
   143    65    67    1
   144    77    75   ar
   145    14    15    1
   146    74    75   ar
   147    74    73    1
   148    17    16    2
   149    84    85    1
   150    84    81    1
   151    63    64    2
   152    73    70    1
   153    15    18    1
   154    15    16    1
   155    18    19    1
   156    81    80    1
   157    81    82    1
   158    21    19    1
   159    80    71   am
   160   176   175    1
   161    71    70    1
   162    71    72    2
   163    70    69    1
   164    19    20    1
   165    82    83    2
   166   175   177    1
   167   175   174    1
   168   173   172    2
   169   174   171    1
   170   171   172    1
   171   171   170    1
