@<TRIPOS>MOLECULE
tmp/4q3eA01.pdb
 119 114 0 0 0
SMALL
GASTEIGER

@<TRIPOS>ATOM
      1  N        -16.3760  -36.8650   18.6040 N.3    49  VAL49      -0.1231
      2  CA       -15.3260  -37.8790   18.5960 C.3    49  VAL49       0.1678
      3  C        -14.0040  -37.2740   19.0880 C.2    49  VAL49       0.2434
      4  O        -13.4570  -36.3920   18.4280 O.2    49  VAL49      -0.2733
      5  CB       -15.1310  -38.4470   17.1730 C.3    49  VAL49       0.0265
      6  CG1      -14.0080  -39.4790   17.1360 C.3    49  VAL49       0.0020
      7  CG2      -16.4310  -39.0480   16.6560 C.3    49  VAL49       0.0020
      8  N        -13.4840  -37.7460   20.2430 N.am   50  PRO50      -0.2718
      9  CA       -12.1840  -37.2380   20.6990 C.3    50  PRO50       0.1535
     10  C        -11.0750  -37.6920   19.7610 C.2    50  PRO50       0.2598
     11  O        -11.1510  -38.7910   19.2100 O.2    50  PRO50      -0.2715
     12  CB       -12.0010  -37.8770   22.0910 C.3    50  PRO50       0.0310
     13  CG       -13.3440  -38.4020   22.4810 C.3    50  PRO50       0.0237
     14  CD       -14.0560  -38.7120   21.1950 C.3    50  PRO50       0.0939
     15  N        -10.0630  -36.8490   19.5890 N.am   51  VAL51      -0.1978
     16  CA        -8.9630  -37.1200   18.6690 C.3    51  VAL51       0.1596
     17  C         -7.6340  -36.9040   19.3880 C.2    51  VAL51       0.2287
     18  O         -7.4100  -35.8420   19.9720 O.2    51  VAL51      -0.2864
     19  CB        -9.0470  -36.2080   17.4280 C.3    51  VAL51       0.0276
     20  CG1       -7.7770  -36.2950   16.5880 C.3    51  VAL51       0.0022
     21  CG2      -10.2650  -36.5670   16.5960 C.3    51  VAL51       0.0022
     22  N         -4.6190  -36.7980   18.1220 N.3    53  SER53      -0.1217
     23  CA        -3.7330  -35.8860   17.4000 C.3    53  SER53       0.1889
     24  C         -3.7930  -34.4860   18.0140 C.2    53  SER53       0.2288
     25  O         -2.9900  -34.1250   18.8810 O.2    53  SER53      -0.2866
     26  CB        -4.1300  -35.8140   15.9180 C.3    53  SER53       0.2089
     27  OG        -3.5370  -34.6980   15.2680 O.3    53  SER53      -0.2183
     28  N         -5.3260  -34.9340   25.1150 N.3    54  ILE54      -0.1231
     29  CA        -6.7640  -34.7100   25.1320 C.3    54  ILE54       0.1692
     30  C         -7.2640  -34.2960   26.5040 C.2    54  ILE54       0.2592
     31  O         -7.3420  -35.1170   27.4190 O.2    54  ILE54      -0.2718
     32  CB        -7.5390  -35.9660   24.7070 C.3    54  ILE54       0.0266
     33  CG1       -7.2400  -36.2600   23.2390 C.3    54  ILE54       0.0019
     34  CG2       -9.0360  -35.7670   24.9480 C.3    54  ILE54       0.0020
     35  CD1       -8.1130  -37.3320   22.6360 C.3    54  ILE54       0.0001
     36  N         -7.6210  -33.0230   26.6290 N.am   55  GLY55      -0.1957
     37  CA        -8.2860  -32.5280   27.8180 C.3    55  GLY55       0.1869
     38  C         -9.7880  -32.5080   27.6090 C.2    55  GLY55       0.2309
     39  O        -10.3840  -33.4650   27.0960 O.2    55  GLY55      -0.2863
     40  N        -11.8640  -30.8900   25.6000 N.3    57  PHE57      -0.1227
     41  CA       -12.4120  -30.3260   24.3660 C.3    57  PHE57       0.1736
     42  C        -13.7260  -31.0050   24.0250 C.2    57  PHE57       0.2596
     43  O        -14.7230  -30.3340   23.8320 O.2    57  PHE57      -0.2718
     44  CB       -11.4470  -30.4570   23.1900 C.3    57  PHE57       0.0547
     45  CG       -11.9840  -29.9040   21.8940 C.ar   57  PHE57      -0.0202
     46  CD1      -12.0980  -28.5330   21.7030 C.ar   57  PHE57      -0.0042
     47  CD2      -12.3610  -30.7520   20.8630 C.ar   57  PHE57      -0.0042
     48  CE1      -12.5770  -28.0200   20.5180 C.ar   57  PHE57      -0.0003
     49  CE2      -12.8440  -30.2470   19.6680 C.ar   57  PHE57      -0.0003
     50  CZ       -12.9570  -28.8750   19.4970 C.ar   57  PHE57      -0.0000
     51  N        -13.7060  -32.3340   23.9590 N.am   58  SER58      -0.1952
     52  CA       -14.9130  -33.1160   23.7050 C.3    58  SER58       0.1924
     53  C        -15.9850  -32.8310   24.7530 C.2    58  SER58       0.2314
     54  O        -17.1410  -32.6150   24.4140 O.2    58  SER58      -0.2863
     55  CB       -14.5860  -34.6090   23.6810 C.3    58  SER58       0.2116
     56  OG       -13.7370  -34.9130   22.5860 O.3    58  SER58      -0.2180
     57  N        -12.0650  -32.6860   15.7920 N.3    97  ALA97      -0.1231
     58  CA       -10.9930  -31.7340   15.5340 C.3    97  ALA97       0.1694
     59  C         -9.6170  -32.3320   15.8120 C.2    97  ALA97       0.2592
     60  O         -9.4290  -33.0140   16.8100 O.2    97  ALA97      -0.2718
     61  CB       -11.1830  -30.5010   16.4020 C.3    97  ALA97       0.0304
     62  N         -8.6640  -32.0720   14.9210 N.am   98  ASP98      -0.1960
     63  CA        -7.2460  -32.1960   15.2610 C.3    98  ASP98       0.1840
     64  C         -6.7180  -30.7680   15.4830 C.2    98  ASP98       0.2622
     65  O         -7.5150  -29.8300   15.5460 O.2    98  ASP98      -0.2715
     66  CB        -6.4560  -33.0230   14.2160 C.3    98  ASP98       0.1450
     67  CG        -6.4580  -32.4210   12.8120 C.2    98  ASP98       0.3671
     68  OD1       -6.6680  -31.2070   12.6420 O.co2  98  ASP98      -0.2456
     69  OD2       -6.2240  -33.1900   11.8550 O.co2  98  ASP98      -0.2456
     70  N         -5.4070  -30.5850   15.6100 N.am   99  ASP99      -0.1971
     71  CA        -4.8650  -29.2470   15.9050 C.3    99  ASP99       0.1709
     72  C         -5.0890  -28.2260   14.7760 C.2    99  ASP99       0.2293
     73  O         -5.0920  -27.0220   15.0130 O.2    99  ASP99      -0.2864
     74  CB        -3.3700  -29.3120   16.2280 C.3    99  ASP99       0.1436
     75  CG        -2.8390  -27.9880   16.7740 C.2    99  ASP99       0.3671
     76  OD1       -3.4790  -27.4070   17.6880 O.co2  99  ASP99      -0.2456
     77  OD2       -1.7880  -27.5170   16.2850 O.co2  99  ASP99      -0.2456
     78  N        -11.0840  -28.2070   12.7750 N.3   102  PHE102     -0.1241
     79  CA       -12.2330  -28.5990   13.5770 C.3   102  PHE102      0.1605
     80  C        -13.4420  -28.5630   12.6600 C.2   102  PHE102      0.2264
     81  O        -13.7910  -27.5040   12.1330 O.2   102  PHE102     -0.2867
     82  CB       -12.3670  -27.6550   14.7800 C.3   102  PHE102      0.0534
     83  CG       -13.6600  -27.7800   15.5420 C.ar  102  PHE102     -0.0203
     84  CD1      -14.3570  -28.9800   15.6130 C.ar  102  PHE102     -0.0042
     85  CD2      -14.1680  -26.6800   16.2200 C.ar  102  PHE102     -0.0042
     86  CE1      -15.5430  -29.0660   16.3250 C.ar  102  PHE102     -0.0003
     87  CE2      -15.3510  -26.7660   16.9340 C.ar  102  PHE102     -0.0003
     88  CZ       -16.0340  -27.9630   16.9900 C.ar  102  PHE102     -0.0000
     89  N        -14.5900  -24.8880   11.2820 N.3   115  ASN115     -0.1240
     90  CA       -14.7430  -23.9380   12.3840 C.3   115  ASN115      0.1653
     91  C        -14.2660  -22.5160   12.0620 C.2   115  ASN115      0.2266
     92  O        -14.8720  -21.5400   12.4920 O.2   115  ASN115     -0.2867
     93  CB       -13.9800  -24.4750   13.5980 C.3   115  ASN115      0.1155
     94  CG       -13.9050  -23.4830   14.7400 C.2   115  ASN115      0.2627
     95  OD1      -12.8400  -22.9520   15.0460 O.2   115  ASN115     -0.2716
     96  ND2      -15.0150  -23.2540   15.3860 N.am  115  ASN115     -0.0877
     97  N         -8.3800  -14.5600   21.0610 N.3   220  ILE220     -0.1245
     98  CA        -7.9670  -14.8930   22.4190 C.3   220  ILE220      0.1561
     99  C         -6.4680  -14.5850   22.5460 C.2   220  ILE220      0.2260
    100  O         -5.6870  -15.0390   21.7160 O.2   220  ILE220     -0.2867
    101  CB        -8.2010  -16.3960   22.7140 C.3   220  ILE220      0.0252
    102  CG1       -9.6570  -16.8000   22.4070 C.3   220  ILE220      0.0019
    103  CG2       -7.8770  -16.7040   24.1680 C.3   220  ILE220      0.0019
    104  CD1       -9.8860  -18.2910   22.2590 C.3   220  ILE220      0.0001
    105  N        -15.4250  -18.2570   23.9550 N.3   240  PRO240     -0.2102
    106  CA       -14.2810  -19.0860   23.5420 C.3   240  PRO240      0.1504
    107  C        -14.5110  -20.1730   22.4750 C.2   240  PRO240      0.2575
    108  O        -13.5580  -20.5680   21.8230 O.2   240  PRO240     -0.2718
    109  CB       -13.8220  -19.7420   24.8600 C.3   240  PRO240      0.0282
    110  CG       -14.4970  -18.9910   25.9600 C.3   240  PRO240      0.0208
    111  CD       -15.7690  -18.4720   25.3750 C.3   240  PRO240      0.0893
    112  N        -15.7390  -20.6500   22.2860 N.am  241  LEU241     -0.1980
    113  CA       -15.9550  -21.8680   21.4840 C.3   241  LEU241      0.1596
    114  C        -17.3850  -22.0600   20.9670 C.2   241  LEU241      0.2287
    115  O        -17.5890  -22.5070   19.8430 O.2   241  LEU241     -0.2864
    116  CB       -15.5370  -23.0960   22.3150 C.3   241  LEU241      0.0297
    117  CG       -15.5680  -24.4680   21.6430 C.3   241  LEU241      0.0022
    118  CD1      -14.7110  -24.4990   20.3840 C.3   241  LEU241      0.0001
    119  CD2      -15.0950  -25.5220   22.6310 C.3   241  LEU241      0.0001
@<TRIPOS>BOND
     1    89    90    1
     2    69    67   ar
     3    91    90    1
     4    91    92    2
     5    81    80    2
     6    90    93    1
     7    68    67   ar
     8    80    79    1
     9    78    79    1
    10    67    66    1
    11    79    82    1
    12    93    94    1
    13    66    63    1
    14    94    95    2
    15    94    96   am
    16    72    73    2
    17    72    71    1
    18    82    83    1
    19    62    63    1
    20    62    59   am
    21    63    64    1
    22    27    26    1
    23    64    65    2
    24    64    70   am
    25    58    57    1
    26    58    59    1
    27    58    61    1
    28    83    84   ar
    29    83    85   ar
    30    70    71    1
    31    84    86   ar
    32    59    60    2
    33    71    74    1
    34    26    23    1
    35    85    87   ar
    36    74    75    1
    37    77    75   ar
    38    86    88   ar
    39    20    19    1
    40    21    19    1
    41     7     5    1
    42    75    76   ar
    43    87    88   ar
    44     6     5    1
    45     5     2    1
    46    23    24    1
    47    23    22    1
    48    19    16    1
    49    24    25    2
    50     4     3    2
    51     2     1    1
    52     2     3    1
    53    16    17    1
    54    16    15    1
    55     3     8   am
    56    11    10    2
    57    17    18    2
    58    50    49   ar
    59    50    48   ar
    60    15    10   am
    61    49    47   ar
    62    10     9    1
    63   115   114    2
    64     8     9    1
    65     8    14    1
    66   118   117    1
    67    48    46   ar
    68     9    12    1
    69    47    45   ar
    70   114   113    1
    71    97    98    1
    72    14    13    1
    73   113   112    1
    74   113   116    1
    75   117   116    1
    76   117   119    1
    77    46    45   ar
    78   100    99    2
    79   108   107    2
    80    45    44    1
    81    12    13    1
    82   104   102    1
    83   112   107   am
    84   102   101    1
    85    98    99    1
    86    98   101    1
    87   107   106    1
    88    56    55    1
    89    35    33    1
    90   101   103    1
    91    44    41    1
    92    33    32    1
    93   106   105    1
    94   106   109    1
    95    55    52    1
    96    52    51    1
    97    52    53    1
    98    43    42    2
    99   105   111    1
   100    51    42   am
   101    42    41    1
   102    41    40    1
   103    54    53    2
   104    32    34    1
   105    32    29    1
   106   109   110    1
   107    28    29    1
   108    29    30    1
   109   111   110    1
   110    30    36   am
   111    30    31    2
   112    36    37    1
   113    39    38    2
   114    38    37    1
