@<TRIPOS>MOLECULE
tmp/4q3fA00.pdb
 85 79 0 0 0
SMALL
GASTEIGER

@<TRIPOS>ATOM
      1  N         33.3290  -36.6400   -2.0800 N.3     1  PRO1       -0.2102
      2  CA        33.5610  -35.1880   -2.0790 C.3     1  PRO1        0.1504
      3  C         34.2070  -34.6880   -0.7910 C.2     1  PRO1        0.2575
      4  O         34.2350  -35.4180    0.1590 O.2     1  PRO1       -0.2718
      5  CB        32.1860  -34.5790   -2.2440 C.3     1  PRO1        0.0282
      6  CG        31.2070  -35.6320   -1.8080 C.3     1  PRO1        0.0208
      7  CD        31.8900  -36.9730   -1.9900 C.3     1  PRO1        0.0893
      8  N         34.7120  -33.4780   -0.8250 N.am    2  PHE2       -0.1977
      9  CA        35.4510  -32.8770    0.2940 C.3     2  PHE2        0.1639
     10  C         34.7460  -31.6000    0.6980 C.2     2  PHE2        0.2290
     11  O         34.6540  -30.6570   -0.1470 O.2     2  PHE2       -0.2864
     12  CB        36.8960  -32.4960   -0.0820 C.3     2  PHE2        0.0560
     13  CG        37.7870  -33.6340   -0.4780 C.ar    2  PHE2       -0.0200
     14  CD1       37.6430  -34.2350   -1.7250 C.ar    2  PHE2       -0.0042
     15  CD2       38.7770  -34.0880    0.3700 C.ar    2  PHE2       -0.0042
     16  CE1       38.4630  -35.2810   -2.0970 C.ar    2  PHE2       -0.0003
     17  CE2       39.6020  -35.1380   -0.0010 C.ar    2  PHE2       -0.0003
     18  CZ        39.4400  -35.7530   -1.2230 C.ar    2  PHE2       -0.0000
     19  N         26.3700  -38.7120   -4.1670 N.3    32  LYS32      -0.1245
     20  CA        27.5940  -39.4790   -3.9520 C.3    32  LYS32       0.1561
     21  C         27.3650  -40.3330   -2.7370 C.2    32  LYS32       0.2260
     22  O         26.6760  -39.8820   -1.8570 O.2    32  LYS32      -0.2867
     23  CB        28.7590  -38.5480   -3.6540 C.3    32  LYS32       0.0271
     24  CG        29.0650  -37.5090   -4.7070 C.3    32  LYS32       0.0035
     25  CD        29.8920  -38.1090   -5.8390 C.3    32  LYS32       0.0206
     26  CE        30.0550  -37.0510   -6.9170 C.3    32  LYS32       0.1093
     27  NZ        31.0990  -37.4260   -7.8920 N.3    32  LYS32      -0.1314
     28  N         31.8940  -41.9380    0.9670 N.3    36  ARG36      -0.1245
     29  CA        32.9960  -41.2380    0.2680 C.3    36  ARG36       0.1563
     30  C         32.9530  -39.7030    0.4750 C.2    36  ARG36       0.2260
     31  O         33.6070  -38.9560   -0.2620 O.2    36  ARG36      -0.2867
     32  CB        32.9830  -41.5480   -1.2100 C.3    36  ARG36       0.0307
     33  CG        33.3250  -43.0000   -1.6120 C.3    36  ARG36       0.0489
     34  CD        34.8380  -43.1920   -1.7000 C.3    36  ARG36       0.2205
     35  NE        35.3170  -44.6080   -1.7410 N.pl3  36  ARG36      -0.0865
     36  CZ        35.4000  -45.4630   -0.6970 C.cat  36  ARG36       0.5346
     37  NH1       35.0140  -45.1070    0.5630 N.pl3  36  ARG36       0.1354
     38  NH2       35.8780  -46.7170   -0.9160 N.pl3  36  ARG36       0.1354
     39  N         33.8120  -36.5650    2.8380 N.3    38  ASN38      -0.1240
     40  CA        34.7560  -36.0830    3.8560 C.3    38  ASN38       0.1653
     41  C         34.2670  -34.7060    4.2750 C.2    38  ASN38       0.2266
     42  O         33.9420  -33.8800    3.4340 O.2    38  ASN38      -0.2867
     43  CB        36.1480  -36.0050    3.2870 C.3    38  ASN38       0.1155
     44  CG        36.5030  -37.2660    2.4810 C.2    38  ASN38       0.2627
     45  OD1       36.5200  -38.3430    3.0340 O.2    38  ASN38      -0.2716
     46  ND2       36.7390  -37.1430    1.2160 N.am   38  ASN38      -0.0877
     47  N         34.6450  -31.7550   -5.5870 N.3    63  SER63      -0.1202
     48  CA        34.1690  -33.0300   -6.0530 C.3    63  SER63       0.2020
     49  C         34.4770  -33.1690   -7.5530 C.2    63  SER63       0.2618
     50  O         34.6390  -32.1460   -8.2540 O.2    63  SER63      -0.2717
     51  CB        32.6420  -33.0950   -5.8190 C.3    63  SER63       0.2103
     52  OG        32.0690  -34.4040   -5.9440 O.3    63  SER63      -0.2182
     53  N         34.5310  -34.4250   -8.0190 N.am   64  ILE64      -0.1979
     54  CA        34.6740  -34.7110   -9.4210 C.3    64  ILE64       0.1595
     55  C         33.2800  -34.6810  -10.0630 C.2    64  ILE64       0.2287
     56  O         32.3150  -35.3040   -9.5590 O.2    64  ILE64      -0.2864
     57  CB        35.3230  -36.1010   -9.6530 C.3    64  ILE64       0.0276
     58  CG1       36.6310  -36.2010   -8.8970 C.3    64  ILE64       0.0022
     59  CG2       35.4840  -36.3210  -11.1630 C.3    64  ILE64       0.0022
     60  CD1       37.2730  -37.5340   -8.9540 C.3    64  ILE64       0.0001
     61  N         43.5390  -36.4850   -6.6420 N.3   107  ILE107     -0.1245
     62  CA        43.1180  -37.0640   -5.3640 C.3   107  ILE107      0.1561
     63  C         44.0230  -38.2770   -5.0360 C.2   107  ILE107      0.2260
     64  O         43.9870  -39.3220   -5.7540 O.2   107  ILE107     -0.2867
     65  CB        41.6330  -37.4570   -5.4440 C.3   107  ILE107      0.0252
     66  CG1       40.7830  -36.2540   -5.7700 C.3   107  ILE107      0.0019
     67  CG2       41.1800  -38.0660   -4.1370 C.3   107  ILE107      0.0019
     68  CD1       39.3080  -36.5840   -5.8540 C.3   107  ILE107      0.0001
     69  N         44.8310  -41.3120   -2.6840 N.3   109  LYS109     -0.1245
     70  CA        44.1350  -42.2460   -1.7840 C.3   109  LYS109      0.1561
     71  C         44.8820  -43.5510   -1.8040 C.2   109  LYS109      0.2260
     72  O         45.4910  -43.8690   -2.8410 O.2   109  LYS109     -0.2867
     73  CB        42.6620  -42.3990   -2.1590 C.3   109  LYS109      0.0271
     74  CG        42.3070  -43.0880   -3.3850 C.3   109  LYS109      0.0035
     75  CD        40.7790  -43.4610   -3.3330 C.3   109  LYS109      0.0206
     76  CE        39.9170  -42.2700   -2.9780 C.3   109  LYS109      0.1093
     77  NZ        38.4740  -42.3580   -3.3450 N.3   109  LYS109     -0.1314
     78  N         43.4360  -41.5020   -7.8210 N.3   114  MET114     -0.1245
     79  CA        42.1960  -42.1070   -8.2440 C.3   114  MET114      0.1570
     80  C         42.2490  -42.4160   -9.7220 C.2   114  MET114      0.2261
     81  O         41.5210  -43.3050  -10.1940 O.2   114  MET114     -0.2867
     82  CB        41.0300  -41.1860   -7.9950 C.3   114  MET114      0.0387
     83  CG        40.7570  -41.0120   -6.5510 C.3   114  MET114      0.0595
     84  SD        39.1590  -40.2180   -6.3350 S.3   114  MET114     -0.1393
     85  CE        38.1280  -40.7930   -7.6560 C.3   114  MET114      0.0692
@<TRIPOS>BOND
     1    59    57    1
     2    81    80    2
     3    55    56    2
     4    55    54    1
     5    80    79    1
     6    57    54    1
     7    57    58    1
     8    54    53    1
     9    60    58    1
    10    50    49    2
    11    79    82    1
    12    79    78    1
    13    53    49   am
    14    82    83    1
    15    27    26    1
    16    85    84    1
    17    49    48    1
    18    26    25    1
    19    61    62    1
    20    83    84    1
    21    48    51    1
    22    48    47    1
    23    52    51    1
    24    68    66    1
    25    25    24    1
    26    66    65    1
    27    64    63    2
    28    65    62    1
    29    65    67    1
    30    62    63    1
    31    24    23    1
    32    19    20    1
    33    20    23    1
    34    20    21    1
    35    74    75    1
    36    74    73    1
    37    77    76    1
    38    75    76    1
    39    72    71    2
    40    21    22    2
    41    69    70    1
    42     5     2    1
    43     5     6    1
    44    73    70    1
    45    16    14   ar
    46    16    18   ar
    47     1     2    1
    48     1     7    1
    49     2     3    1
    50     7     6    1
    51    71    70    1
    52    35    34    1
    53    35    36    2
    54    14    13   ar
    55    34    33    1
    56    33    32    1
    57    18    17   ar
    58    32    29    1
    59    38    36    1
    60     8     3   am
    61     8     9    1
    62     3     4    2
    63    36    37    1
    64    13    12    1
    65    13    15   ar
    66    31    30    2
    67    11    10    2
    68    12     9    1
    69    17    15   ar
    70    29    30    1
    71    29    28    1
    72     9    10    1
    73    46    44   am
    74    44    45    2
    75    44    43    1
    76    39    40    1
    77    43    40    1
    78    42    41    2
    79    40    41    1
