@<TRIPOS>MOLECULE
tmp/4q3qD00.pdb
 124 114 0 0 0
SMALL
GASTEIGER

@<TRIPOS>ATOM
      1  N        -58.4230   39.8840  -14.0740 N.3   101  HIS101     -0.1241
      2  CA       -59.1480   40.4270  -12.9170 C.3   101  HIS101      0.1621
      3  C        -59.6130   39.3830  -11.8830 C.2   101  HIS101      0.2264
      4  O        -60.2050   39.7430  -10.8600 O.2   101  HIS101     -0.2867
      5  CB       -60.3400   41.2860  -13.3760 C.3   101  HIS101      0.0745
      6  CG       -60.4580   42.6010  -12.6600 C.ar  101  HIS101      0.0817
      7  ND1      -61.2030   43.6510  -13.1520 N.ar  101  HIS101     -0.2268
      8  CD2      -59.9180   43.0360  -11.4940 C.ar  101  HIS101      0.1154
      9  CE1      -61.1230   44.6760  -12.3170 C.ar  101  HIS101      0.1986
     10  NE2      -60.3480   44.3290  -11.3080 N.ar  101  HIS101     -0.2212
     11  N        -67.0140   46.2320  -17.2480 N.3   126  HIS126     -0.1241
     12  CA       -67.7900   45.0410  -16.8900 C.3   126  HIS126      0.1621
     13  C        -68.0660   44.9510  -15.3880 C.2   126  HIS126      0.2264
     14  O        -67.3050   45.4800  -14.5770 O.2   126  HIS126     -0.2867
     15  CB       -67.0380   43.7790  -17.3300 C.3   126  HIS126      0.0745
     16  CG       -66.6260   43.7930  -18.7680 C.ar  126  HIS126      0.0817
     17  ND1      -65.3750   44.2100  -19.1790 N.ar  126  HIS126     -0.2268
     18  CD2      -67.2910   43.4370  -19.8920 C.ar  126  HIS126      0.1154
     19  CE1      -65.2910   44.1110  -20.4940 C.ar  126  HIS126      0.1986
     20  NE2      -66.4400   43.6440  -20.9530 N.ar  126  HIS126     -0.2212
     21  N        -68.0650   42.1590  -13.5680 N.3   128  ASP128     -0.1239
     22  CA       -67.2630   41.1020  -12.9430 C.3   128  ASP128      0.1674
     23  C        -67.9520   40.4950  -11.7210 C.2   128  ASP128      0.2266
     24  O        -67.2970   40.1370  -10.7410 O.2   128  ASP128     -0.2867
     25  CB       -65.8940   41.6280  -12.5200 C.3   128  ASP128      0.1410
     26  CG       -65.0280   42.0100  -13.6920 C.2   128  ASP128      0.3668
     27  OD1      -63.8760   42.4210  -13.4510 O.co2 128  ASP128     -0.2456
     28  OD2      -65.4990   41.8970  -14.8470 O.co2 128  ASP128     -0.2456
     29  N        -70.6780   38.0800  -12.0680 N.3   130  ASN130     -0.1240
     30  CA       -71.4690   36.9200  -12.4620 C.3   130  ASN130      0.1653
     31  C        -71.3940   35.8090  -11.4200 C.2   130  ASN130      0.2266
     32  O        -70.3650   35.6270  -10.7650 O.2   130  ASN130     -0.2867
     33  CB       -71.0250   36.3920  -13.8310 C.3   130  ASN130      0.1155
     34  CG       -71.7040   37.1150  -14.9900 C.2   130  ASN130      0.2627
     35  OD1      -72.9010   37.4150  -14.9400 O.2   130  ASN130     -0.2716
     36  ND2      -70.9400   37.3860  -16.0450 N.am  130  ASN130     -0.0877
     37  N        -72.9730   32.4430  -15.5020 N.3   135  SER135     -0.1202
     38  CA       -71.8730   32.7920  -16.3970 C.3   135  SER135      0.2020
     39  C        -71.9230   32.0090  -17.7040 C.2   135  SER135      0.2619
     40  O        -71.9000   30.7830  -17.6990 O.2   135  SER135     -0.2717
     41  CB       -70.5330   32.5540  -15.6990 C.3   135  SER135      0.2103
     42  OG       -69.4660   32.5530  -16.6290 O.3   135  SER135     -0.2182
     43  N        -71.9810   32.7200  -18.8260 N.am  136  ALA136     -0.1965
     44  CA       -72.0330   32.0690  -20.1320 C.3   136  ALA136      0.1728
     45  C        -70.6450   31.7120  -20.6610 C.2   136  ALA136      0.2616
     46  O        -70.5200   31.0050  -21.6600 O.2   136  ALA136     -0.2715
     47  CB       -72.7770   32.9410  -21.1390 C.3   136  ALA136      0.0334
     48  N        -69.6040   32.1980  -19.9920 N.am  137  SER137     -0.1950
     49  CA       -68.2400   31.9720  -20.4570 C.3   137  SER137      0.1924
     50  C        -67.4970   30.9730  -19.5790 C.2   137  SER137      0.2314
     51  O        -66.5690   30.2970  -20.0370 O.2   137  SER137     -0.2863
     52  CB       -67.4600   33.2860  -20.4840 C.3   137  SER137      0.2116
     53  OG       -67.1660   33.7150  -19.1650 O.3   137  SER137     -0.2180
     54  N        -65.4910   31.8580  -17.5050 N.3   139  ASN139     -0.1240
     55  CA       -64.2040   32.4960  -17.2210 C.3   139  ASN139      0.1653
     56  C        -64.1950   33.1750  -15.8450 C.2   139  ASN139      0.2266
     57  O        -65.0680   33.9980  -15.5480 O.2   139  ASN139     -0.2867
     58  CB       -63.8410   33.5030  -18.3230 C.3   139  ASN139      0.1155
     59  CG       -63.6980   32.8500  -19.6980 C.2   139  ASN139      0.2627
     60  OD1      -63.3770   31.6600  -19.8110 O.2   139  ASN139     -0.2716
     61  ND2      -63.9340   33.6360  -20.7520 N.am  139  ASN139     -0.0877
     62  N        -62.3480   35.4670  -14.3720 N.3   141  HIS141     -0.1226
     63  CA       -62.1510   36.9200  -14.2880 C.3   141  HIS141      0.1752
     64  C        -63.4680   37.7120  -14.3650 C.2   141  HIS141      0.2596
     65  O        -63.5020   38.9130  -14.0800 O.2   141  HIS141     -0.2718
     66  CB       -61.1440   37.4080  -15.3430 C.3   141  HIS141      0.0759
     67  CG       -61.7050   37.5080  -16.7320 C.ar  141  HIS141      0.0818
     68  ND1      -61.1580   38.3360  -17.6940 N.ar  141  HIS141     -0.2268
     69  CD2      -62.7510   36.8890  -17.3250 C.ar  141  HIS141      0.1154
     70  CE1      -61.8450   38.2210  -18.8170 C.ar  141  HIS141      0.1986
     71  NE2      -62.8220   37.3490  -18.6180 N.ar  141  HIS141     -0.2212
     72  N        -64.5460   37.0360  -14.7500 N.am  142  GLY142     -0.1957
     73  CA       -65.8640   37.6500  -14.7790 C.3   142  GLY142      0.1869
     74  C        -66.7310   37.3540  -13.5570 C.2   142  GLY142      0.2309
     75  O        -67.9070   37.7350  -13.5180 O.2   142  GLY142     -0.2863
     76  N        -70.9890   47.1660  -20.5180 N.3   181  ASP181     -0.1239
     77  CA       -71.1510   45.8170  -21.0670 C.3   181  ASP181      0.1674
     78  C        -71.5760   44.8150  -19.9840 C.2   181  ASP181      0.2266
     79  O        -70.9580   43.7610  -19.8280 O.2   181  ASP181     -0.2867
     80  CB       -69.8490   45.3530  -21.7400 C.3   181  ASP181      0.1410
     81  CG       -70.0280   44.0860  -22.5780 C.2   181  ASP181      0.3668
     82  OD1      -71.1760   43.7440  -22.9320 O.co2 181  ASP181     -0.2456
     83  OD2      -69.0110   43.4310  -22.8920 O.co2 181  ASP181     -0.2456
     84  N        -73.8240   41.9240  -18.1110 N.3   183  ASP183     -0.1239
     85  CA       -74.6850   40.7920  -18.4460 C.3   183  ASP183      0.1674
     86  C        -76.0390   41.0070  -17.7700 C.2   183  ASP183      0.2266
     87  O        -76.1230   41.7020  -16.7550 O.2   183  ASP183     -0.2867
     88  CB       -74.0500   39.4710  -18.0020 C.3   183  ASP183      0.1410
     89  CG       -72.8510   39.0710  -18.8680 C.2   183  ASP183      0.3668
     90  OD1      -72.7880   39.5050  -20.0470 O.co2 183  ASP183     -0.2456
     91  OD2      -71.9730   38.3220  -18.3720 O.co2 183  ASP183     -0.2456
     92  N        -76.1970   40.2260  -14.1490 N.3   186  GLU186     -0.1245
     93  CA       -75.4500   41.1570  -13.3120 C.3   186  GLU186      0.1567
     94  C        -76.3100   42.3910  -13.0400 C.2   186  GLU186      0.2260
     95  O        -76.3840   42.8760  -11.9090 O.2   186  GLU186     -0.2867
     96  CB       -74.1360   41.5620  -13.9850 C.3   186  GLU186      0.0388
     97  CG       -73.0500   40.4970  -13.9510 C.3   186  GLU186      0.1160
     98  CD       -71.8300   40.9090  -14.7570 C.2   186  GLU186      0.3649
     99  OE1      -71.9970   41.1940  -15.9600 O.co2 186  GLU186     -0.2457
    100  OE2      -70.7120   40.9550  -14.1950 O.co2 186  GLU186     -0.2457
    101  N        -59.7660   48.0900  -13.7830 N.3   232  ASP232     -0.1239
    102  CA       -59.6010   47.2640  -14.9790 C.3   232  ASP232      0.1674
    103  C        -59.2560   48.1890  -16.1310 C.2   232  ASP232      0.2266
    104  O        -60.0220   49.1040  -16.4490 O.2   232  ASP232     -0.2867
    105  CB       -60.8750   46.4670  -15.2980 C.3   232  ASP232      0.1410
    106  CG       -60.7130   45.5310  -16.5080 C.2   232  ASP232      0.3668
    107  OD1      -59.8720   45.7980  -17.3970 O.co2 232  ASP232     -0.2456
    108  OD2      -61.4520   44.5240  -16.5830 O.co2 232  ASP232     -0.2456
    109  N        -60.7720   42.0640  -23.3240 N.3   246  THR246     -0.1218
    110  CA       -62.1880   42.2920  -23.6080 C.3   246  THR246      0.1862
    111  C        -62.4930   43.7840  -23.7520 C.2   246  THR246      0.2287
    112  O        -63.1710   44.3810  -22.9100 O.2   246  THR246     -0.2866
    113  CB       -63.0900   41.6470  -22.5250 C.3   246  THR246      0.1770
    114  OG1      -62.5830   41.9670  -21.2210 O.3   246  THR246     -0.2211
    115  CG2      -63.1080   40.1340  -22.6810 C.3   246  THR246      0.0375
    116  N        -55.8640   43.3130  -16.1390 N.3   277  GLU277     -0.1245
    117  CA       -56.1780   43.0340  -17.5450 C.3   277  GLU277      0.1567
    118  C        -55.2400   43.6250  -18.6120 C.2   277  GLU277      0.2260
    119  O        -55.5760   43.6400  -19.8030 O.2   277  GLU277     -0.2867
    120  CB       -57.6510   43.3480  -17.8550 C.3   277  GLU277      0.0388
    121  CG       -58.6500   42.5010  -17.0400 C.3   277  GLU277      0.1160
    122  CD       -58.6300   41.0000  -17.4090 C.2   277  GLU277      0.3649
    123  OE1      -57.9710   40.6200  -18.4020 O.co2 277  GLU277     -0.2457
    124  OE2      -59.2840   40.1970  -16.7120 O.co2 277  GLU277     -0.2457
@<TRIPOS>BOND
     1   111   110    1
     2   111   112    2
     3   110   109    1
     4   110   113    1
     5    82    81   ar
     6    83    81   ar
     7   115   113    1
     8    81    80    1
     9   113   114    1
    10    80    77    1
    11    46    45    2
    12    47    44    1
    13    77    76    1
    14    77    78    1
    15    20    19   ar
    16    20    18   ar
    17    61    59   am
    18    45    44    1
    19    45    48   am
    20    19    17   ar
    21    52    49    1
    22    52    53    1
    23    49    48    1
    24    49    50    1
    25    44    43    1
    26    90    89   ar
    27    51    50    2
    28    78    79    2
    29    18    16   ar
    30    60    59    2
    31   119   118    2
    32    59    58    1
    33    17    16   ar
    34    89    91   ar
    35    89    88    1
    36    43    39   am
    37    70    71   ar
    38    70    68   ar
    39    16    15    1
    40    71    69   ar
    41   118   117    1
    42    85    84    1
    43    85    88    1
    44    85    86    1
    45   123   122   ar
    46    58    55    1
    47   120   117    1
    48   120   121    1
    49    86    87    2
    50    39    40    2
    51    39    38    1
    52    68    67   ar
    53   117   116    1
    54    54    55    1
    55   122   121    1
    56   122   124   ar
    57   107   106   ar
    58    15    12    1
    59    69    67   ar
    60    11    12    1
    61    55    56    1
    62    12    13    1
    63    67    66    1
    64    42    41    1
    65   108   106   ar
    66   106   105    1
    67   104   103    2
    68    38    41    1
    69    38    37    1
    70   103   102    1
    71    36    34   am
    72    99    98   ar
    73    56    57    2
    74    13    14    2
    75    66    63    1
    76   105   102    1
    77    34    35    2
    78    34    33    1
    79   102   101    1
    80    28    26   ar
    81    73    72    1
    82    73    74    1
    83    98   100   ar
    84    98    97    1
    85    72    64   am
    86    62    63    1
    87    64    63    1
    88    64    65    2
    89    92    93    1
    90     1     2    1
    91    96    97    1
    92    96    93    1
    93    33    30    1
    94    26    27   ar
    95    26    25    1
    96    21    22    1
    97    74    75    2
    98     5     2    1
    99     5     6    1
   100    93    94    1
   101     7     6   ar
   102     7     9   ar
   103    94    95    2
   104    22    25    1
   105    22    23    1
   106     2     3    1
   107     6     8   ar
   108    30    29    1
   109    30    31    1
   110     9    10   ar
   111     3     4    2
   112    23    24    2
   113     8    10   ar
   114    31    32    2
