@<TRIPOS>MOLECULE
tmp/4q3rD00.pdb
 137 126 0 0 0
SMALL
GASTEIGER

@<TRIPOS>ATOM
      1  N         -4.7590  -13.9070   58.3810 N.3   100  HIS100     -0.1241
      2  CA        -4.2280  -14.6300   57.2270 C.3   100  HIS100      0.1621
      3  C         -5.2610  -15.0890   56.1960 C.2   100  HIS100      0.2264
      4  O         -4.8870  -15.6230   55.1500 O.2   100  HIS100     -0.2867
      5  CB        -3.4420  -15.8520   57.7090 C.3   100  HIS100      0.0745
      6  CG        -2.1120  -16.0180   57.0450 C.ar  100  HIS100      0.0817
      7  ND1       -1.0660  -16.6940   57.6350 N.ar  100  HIS100     -0.2268
      8  CD2       -1.6570  -15.5990   55.8400 C.ar  100  HIS100      0.1154
      9  CE1       -0.0250  -16.6820   56.8250 C.ar  100  HIS100      0.1986
     10  NE2       -0.3570  -16.0240   55.7280 N.ar  100  HIS100     -0.2212
     11  N          1.5210  -22.4910   61.6070 N.3   125  HIS125     -0.1241
     12  CA         0.3380  -23.2840   61.2780 C.3   125  HIS125      0.1621
     13  C          0.2600  -23.6510   59.8020 C.2   125  HIS125      0.2264
     14  O          0.8960  -23.0290   58.9580 O.2   125  HIS125     -0.2867
     15  CB        -0.9350  -22.5300   61.6710 C.3   125  HIS125      0.0745
     16  CG        -0.9260  -22.0220   63.0750 C.ar  125  HIS125      0.0817
     17  ND1       -0.4690  -20.7660   63.4080 N.ar  125  HIS125     -0.2268
     18  CD2       -1.3180  -22.6010   64.2340 C.ar  125  HIS125      0.1154
     19  CE1       -0.5820  -20.5910   64.7120 C.ar  125  HIS125      0.1986
     20  NE2       -1.0920  -21.6910   65.2360 N.ar  125  HIS125     -0.2212
     21  N         -2.6130  -23.5880   57.9620 N.3   127  ASP127     -0.1239
     22  CA        -3.5940  -22.7230   57.3000 C.3   127  ASP127      0.1674
     23  C         -4.2170  -23.4150   56.0830 C.2   127  ASP127      0.2266
     24  O         -4.5640  -22.7710   55.0960 O.2   127  ASP127     -0.2867
     25  CB        -2.9490  -21.3920   56.8890 C.3   127  ASP127      0.1410
     26  CG        -2.6150  -20.5020   58.0840 C.2   127  ASP127      0.3668
     27  OD1       -2.6420  -21.0070   59.2240 O.co2 127  ASP127     -0.2456
     28  OD2       -2.3170  -19.3030   57.8870 O.co2 127  ASP127     -0.2456
     29  N         -6.5430  -26.2450   56.5290 N.3   129  ASN129     -0.1240
     30  CA        -7.7060  -27.0220   56.9490 C.3   129  ASN129      0.1653
     31  C         -8.8530  -26.9110   55.9500 C.2   129  ASN129      0.2266
     32  O         -9.1340  -25.8280   55.4390 O.2   129  ASN129     -0.2867
     33  CB        -8.1880  -26.5640   58.3300 C.3   129  ASN129      0.1155
     34  CG        -7.5530  -27.3450   59.4650 C.2   129  ASN129      0.2627
     35  OD1       -7.5140  -28.5750   59.4440 O.2   129  ASN129     -0.2716
     36  ND2       -7.0540  -26.6300   60.4670 N.am  129  ASN129     -0.0877
     37  N        -12.2810  -28.4620   60.1350 N.3   134  SER134     -0.1202
     38  CA       -11.8990  -27.3610   61.0090 C.3   134  SER134      0.2020
     39  C        -12.6630  -27.3770   62.3260 C.2   134  SER134      0.2619
     40  O        -13.8820  -27.2360   62.3480 O.2   134  SER134     -0.2717
     41  CB       -12.1250  -26.0270   60.3050 C.3   134  SER134      0.2103
     42  OG       -11.9970  -24.9560   61.2190 O.3   134  SER134     -0.2182
     43  N        -11.9350  -27.5310   63.4260 N.am  135  ALA135     -0.1965
     44  CA       -12.5510  -27.6000   64.7450 C.3   135  ALA135      0.1728
     45  C        -12.7790  -26.2170   65.3420 C.2   135  ALA135      0.2616
     46  O        -13.2520  -26.0960   66.4730 O.2   135  ALA135     -0.2715
     47  CB       -11.6990  -28.4380   65.6800 C.3   135  ALA135      0.0334
     48  N        -12.4470  -25.1760   64.5840 N.am  136  SER136     -0.1950
     49  CA       -12.6020  -23.8130   65.0730 C.3   136  SER136      0.1924
     50  C        -13.5980  -23.0270   64.2290 C.2   136  SER136      0.2314
     51  O        -14.3300  -22.1850   64.7460 O.2   136  SER136     -0.2863
     52  CB       -11.2550  -23.0890   65.0950 C.3   136  SER136      0.2116
     53  OG       -10.8460  -22.7390   63.7860 O.3   136  SER136     -0.2180
     54  N        -12.7450  -20.9400   62.0310 N.3   138  ASN138     -0.1240
     55  CA       -12.0850  -19.7050   61.6700 C.3   138  ASN138      0.1653
     56  C        -11.4410  -19.7630   60.2710 C.2   138  ASN138      0.2266
     57  O        -10.6600  -20.6470   59.9810 O.2   138  ASN138     -0.2867
     58  CB       -11.0330  -19.3540   62.7320 C.3   138  ASN138      0.1155
     59  CG       -11.6170  -19.2360   64.1480 C.2   138  ASN138      0.2627
     60  OD1      -12.7530  -18.8780   64.3230 O.2   138  ASN138     -0.2716
     61  ND2      -10.8210  -19.5320   65.1420 N.am  138  ASN138     -0.0877
     62  N         -9.0890  -17.8750   58.8880 N.3   140  HIS140     -0.1226
     63  CA        -7.6350  -17.7120   58.7850 C.3   140  HIS140      0.1752
     64  C         -6.9030  -19.0630   58.8790 C.2   140  HIS140      0.2596
     65  O         -5.7490  -19.1530   58.4990 O.2   140  HIS140     -0.2718
     66  CB        -7.0850  -16.7110   59.8240 C.3   140  HIS140      0.0759
     67  CG        -7.0400  -17.2250   61.2360 C.ar  140  HIS140      0.0818
     68  ND1       -6.2090  -16.6830   62.1930 N.ar  140  HIS140     -0.2268
     69  CD2       -7.7350  -18.2100   61.8570 C.ar  140  HIS140      0.1154
     70  CE1       -6.3860  -17.3200   63.3380 C.ar  140  HIS140      0.1986
     71  NE2       -7.3050  -18.2550   63.1580 N.ar  140  HIS140     -0.2212
     72  N         -7.5900  -20.1130   59.3180 N.am  141  GLY141     -0.1957
     73  CA        -7.0120  -21.4510   59.3500 C.3   141  GLY141      0.1869
     74  C         -7.2600  -22.2790   58.0920 C.2   141  GLY141      0.2309
     75  O         -6.8450  -23.4310   58.0020 O.2   141  GLY141     -0.2863
     76  N          2.4870  -26.3920   64.9970 N.3   180  ASP180     -0.1239
     77  CA         1.1710  -26.5810   65.5910 C.3   180  ASP180      0.1674
     78  C          0.1780  -27.0740   64.5350 C.2   180  ASP180      0.2266
     79  O         -0.9590  -26.6050   64.4480 O.2   180  ASP180     -0.2867
     80  CB         0.6830  -25.2820   66.2380 C.3   180  ASP180      0.1410
     81  CG        -0.5270  -25.4930   67.1330 C.2   180  ASP180      0.3668
     82  OD1       -0.6260  -26.5700   67.7540 O.co2 180  ASP180     -0.2456
     83  OD2       -1.3830  -24.5860   67.2120 O.co2 180  ASP180     -0.2456
     84  N         -2.5360  -29.2070   62.4870 N.3   182  ASP182     -0.1225
     85  CA        -3.7050  -30.0390   62.7650 C.3   182  ASP182      0.1805
     86  C         -3.4990  -31.4040   62.1280 C.2   182  ASP182      0.2597
     87  O         -2.8270  -31.5140   61.1080 O.2   182  ASP182     -0.2718
     88  CB        -4.9930  -29.4010   62.2410 C.3   182  ASP182      0.1424
     89  CG        -5.5080  -28.2960   63.1440 C.2   182  ASP182      0.3668
     90  OD1       -5.1370  -28.2910   64.3380 O.co2 182  ASP182     -0.2456
     91  OD2       -6.2820  -27.4390   62.6610 O.co2 182  ASP182     -0.2456
     92  N         -4.0790  -32.4390   62.7270 N.am  183  ALA183     -0.1979
     93  CA        -3.8810  -33.8070   62.2540 C.3   183  ALA183      0.1597
     94  C         -4.2980  -33.9900   60.7950 C.2   183  ALA183      0.2287
     95  O         -3.6250  -34.6800   60.0330 O.2   183  ALA183     -0.2864
     96  CB        -4.6400  -34.7830   63.1440 C.3   183  ALA183      0.0319
     97  N         -4.4730  -31.6010   58.5500 N.3   185  GLU185     -0.1245
     98  CA        -3.5190  -30.8580   57.7390 C.3   185  GLU185      0.1567
     99  C         -2.2930  -31.7260   57.4600 C.2   185  GLU185      0.2260
    100  O         -1.7870  -31.7500   56.3440 O.2   185  GLU185     -0.2867
    101  CB        -3.1030  -29.5630   58.4290 C.3   185  GLU185      0.0388
    102  CG        -4.1750  -28.5020   58.5040 C.3   185  GLU185      0.1160
    103  CD        -3.6930  -27.2810   59.2530 C.2   185  GLU185      0.3649
    104  OE1       -3.2450  -27.4440   60.4010 O.co2 185  GLU185     -0.2457
    105  OE2       -3.7390  -26.1660   58.6930 O.co2 185  GLU185     -0.2457
    106  N          3.3520  -15.2250   58.0600 N.3   231  ASP231     -0.1239
    107  CA         2.5890  -15.0790   59.2900 C.3   231  ASP231      0.1674
    108  C          3.5580  -14.7310   60.4100 C.2   231  ASP231      0.2266
    109  O          4.4830  -15.4930   60.6820 O.2   231  ASP231     -0.2867
    110  CB         1.8250  -16.3730   59.6090 C.3   231  ASP231      0.1410
    111  CG         0.8380  -16.2230   60.7650 C.2   231  ASP231      0.3668
    112  OD1        1.0520  -15.3730   61.6520 O.co2 231  ASP231     -0.2456
    113  OD2       -0.1550  -16.9810   60.7930 O.co2 231  ASP231     -0.2456
    114  N          3.2600  -15.1590   63.2820 N.3   233  ASP233     -0.1239
    115  CA         3.2370  -16.3960   64.0900 C.3   233  ASP233      0.1674
    116  C          4.4950  -17.2190   64.0670 C.2   233  ASP233      0.2266
    117  O          4.8360  -17.8660   65.0580 O.2   233  ASP233     -0.2867
    118  CB         2.1480  -17.3540   63.6070 C.3   233  ASP233      0.1410
    119  CG         0.8200  -17.0360   64.1600 C.2   233  ASP233      0.3668
    120  OD1        0.7640  -16.2130   65.0910 O.co2 233  ASP233     -0.2456
    121  OD2       -0.1630  -17.6190   63.6700 O.co2 233  ASP233     -0.2456
    122  N         -2.5360  -16.3390   67.6430 N.3   245  THR245     -0.1218
    123  CA        -2.2600  -17.7160   68.0320 C.3   245  THR245      0.1862
    124  C         -0.7610  -17.9460   68.1910 C.2   245  THR245      0.2287
    125  O         -0.1260  -18.5800   67.3530 O.2   245  THR245     -0.2866
    126  CB        -2.8280  -18.7160   67.0060 C.3   245  THR245      0.1770
    127  OG1       -4.1710  -18.3500   66.6680 O.3   245  THR245     -0.2211
    128  CG2       -2.8140  -20.1310   67.5740 C.3   245  THR245      0.0375
    129  N         -1.4030  -11.4380   60.5950 N.3   276  GLU276     -0.1245
    130  CA        -1.6610  -11.6880   62.0180 C.3   276  GLU276      0.1567
    131  C         -0.9870  -10.7320   63.0070 C.2   276  GLU276      0.2260
    132  O         -0.7740  -11.0850   64.1660 O.2   276  GLU276     -0.2867
    133  CB        -1.2790  -13.1280   62.3760 C.3   276  GLU276      0.0388
    134  CG        -2.0960  -14.1740   61.6400 C.3   276  GLU276      0.1160
    135  CD        -3.5750  -14.1420   62.0030 C.2   276  GLU276      0.3649
    136  OE1       -3.9250  -13.6550   63.0990 O.co2 276  GLU276     -0.2457
    137  OE2       -4.3860  -14.6130   61.1900 O.co2 276  GLU276     -0.2457
@<TRIPOS>BOND
     1    24    23    2
     2     4     3    2
     3    32    31    2
     4    10     8   ar
     5    10     9   ar
     6     8     6   ar
     7    31    30    1
     8    23    22    1
     9     3     2    1
    10   100    99    2
    11    29    30    1
    12     9     7   ar
    13    25    22    1
    14    25    26    1
    15    30    33    1
    16     6     7   ar
    17     6     5    1
    18     2     5    1
    19     2     1    1
    20    22    21    1
    21    99    98    1
    22    98   101    1
    23    98    97    1
    24    28    26   ar
    25    75    74    2
    26   106   107    1
    27    26    27   ar
    28    74    73    1
    29    33    34    1
    30   101   102    1
    31    65    64    2
    32   102   103    1
    33   105   103   ar
    34    63    64    1
    35    63    62    1
    36    63    66    1
    37    64    72   am
    38    14    13    2
    39   103   104   ar
    40   107   110    1
    41   107   108    1
    42    72    73    1
    43    35    34    2
    44    34    36   am
    45   110   111    1
    46    13    12    1
    47    66    67    1
    48    57    56    2
    49    95    94    2
    50    37    38    1
    51    56    55    1
    52    41    38    1
    53    41    42    1
    54   108   109    2
    55   129   130    1
    56   111   113   ar
    57   111   112   ar
    58    94    93    1
    59    38    39    1
    60    87    86    2
    61   137   135   ar
    62    67    69   ar
    63    67    68   ar
    64    12    11    1
    65    12    15    1
    66   134   135    1
    67   134   133    1
    68    55    54    1
    69    55    58    1
    70    15    16    1
    71    69    71   ar
    72   135   136   ar
    73   130   133    1
    74   130   131    1
    75    86    92   am
    76    86    85    1
    77    68    70   ar
    78    88    85    1
    79    88    89    1
    80    93    92    1
    81    93    96    1
    82    39    40    2
    83    39    43   am
    84    84    85    1
    85    91    89   ar
    86    58    59    1
    87   131   132    2
    88    16    17   ar
    89    16    18   ar
    90    89    90   ar
    91    71    70   ar
    92   114   115    1
    93    17    19   ar
    94    43    44    1
    95   118   115    1
    96   118   119    1
    97   121   119   ar
    98    53    52    1
    99   116   115    1
   100   116   117    2
   101    59    60    2
   102    59    61   am
   103   119   120   ar
   104    50    51    2
   105    50    49    1
   106    18    20   ar
   107    79    78    2
   108    78    77    1
   109    48    49    1
   110    48    45   am
   111    19    20   ar
   112    44    45    1
   113    44    47    1
   114    76    77    1
   115    49    52    1
   116    45    46    2
   117    77    80    1
   118    80    81    1
   119   127   126    1
   120   126   128    1
   121   126   123    1
   122    81    83   ar
   123    81    82   ar
   124   125   124    2
   125   122   123    1
   126   123   124    1
