@<TRIPOS>MOLECULE
tmp/4q3sB00.pdb
 122 113 0 0 0
SMALL
GASTEIGER

@<TRIPOS>ATOM
      1  N        -64.4430   13.6550   91.5530 N.3   130  HIS130     -0.1241
      2  CA       -63.8370   14.2050   92.7650 C.3   130  HIS130      0.1621
      3  C        -62.3150   14.2880   92.6690 C.2   130  HIS130      0.2264
      4  O        -61.6970   13.6130   91.8510 O.2   130  HIS130     -0.2867
      5  CB       -64.2320   13.3570   93.9740 C.3   130  HIS130      0.0745
      6  CG       -65.6910   13.0210   94.0170 C.ar  130  HIS130      0.0817
      7  ND1      -66.2000   11.8520   93.4930 N.ar  130  HIS130     -0.2268
      8  CD2      -66.7490   13.7100   94.5030 C.ar  130  HIS130      0.1154
      9  CE1      -67.5110   11.8310   93.6660 C.ar  130  HIS130      0.1986
     10  NE2      -67.8700   12.9480   94.2730 N.ar  130  HIS130     -0.2212
     11  N        -60.0850   13.5420   95.1670 N.3   132  ASP132     -0.1239
     12  CA       -59.4390   12.4710   95.9290 C.3   132  ASP132      0.1674
     13  C        -58.0540   12.8890   96.4360 C.2   132  ASP132      0.2266
     14  O        -57.1360   12.0730   96.5280 O.2   132  ASP132     -0.2867
     15  CB       -59.3340   11.2040   95.0760 C.3   132  ASP132      0.1410
     16  CG       -60.6860   10.5670   94.8140 C.2   132  ASP132      0.3668
     17  OD1      -61.7140   11.1840   95.1620 O.co2 132  ASP132     -0.2456
     18  OD2      -60.7210    9.4510   94.2560 O.co2 132  ASP132     -0.2456
     19  N        -57.7730   15.3670   99.1540 N.3   134  ASN134     -0.1240
     20  CA       -57.8700   15.9750  100.4740 C.3   134  ASN134      0.1653
     21  C        -56.7350   15.5030  101.3830 C.2   134  ASN134      0.2266
     22  O        -56.4240   14.3130  101.4340 O.2   134  ASN134     -0.2867
     23  CB       -59.2190   15.6520  101.1220 C.3   134  ASN134      0.1155
     24  CG       -60.2690   16.7220  100.8650 C.2   134  ASN134      0.2627
     25  OD1      -59.9840   17.9200  100.9190 O.2   134  ASN134     -0.2716
     26  ND2      -61.4940   16.2910  100.5890 N.am  134  ASN134     -0.0877
     27  N        -60.2160   16.9410  105.6350 N.3   139  SER139     -0.1202
     28  CA       -61.2970   16.0900  105.2320 C.3   139  SER139      0.2020
     29  C        -62.4160   16.1230  106.2430 C.2   139  SER139      0.2619
     30  O        -62.2950   15.6350  107.3120 O.2   139  SER139     -0.2717
     31  CB       -60.8170   14.6750  105.0510 C.3   139  SER139      0.2103
     32  OG       -61.8850   13.7870  105.0000 O.3   139  SER139     -0.2182
     33  N        -63.5290   16.6570  105.8340 N.am  140  ALA140     -0.1965
     34  CA       -64.7150   16.6360  106.6480 C.3   140  ALA140      0.1728
     35  C        -65.2060   15.2120  106.9160 C.2   140  ALA140      0.2616
     36  O        -65.6540   14.9100  107.9610 O.2   140  ALA140     -0.2715
     37  CB       -65.8040   17.4710  106.0330 C.3   140  ALA140      0.0334
     38  N        -65.0910   14.3490  105.9400 N.am  141  SER141     -0.1950
     39  CA       -65.6570   13.0050  106.0060 C.3   141  SER141      0.1924
     40  C        -64.7640   12.0230  106.7630 C.2   141  SER141      0.2314
     41  O        -65.2540   11.1490  107.4790 O.2   141  SER141     -0.2863
     42  CB       -65.9180   12.4750  104.5960 C.3   141  SER141      0.2116
     43  OG       -64.7070   12.0890  103.9720 O.3   141  SER141     -0.2180
     44  N        -63.0930    9.9000  105.2550 N.3   143  ASN143     -0.1240
     45  CA       -63.0720    8.7250  104.3910 C.3   143  ASN143      0.1653
     46  C        -61.8070    8.6910  103.5290 C.2   143  ASN143      0.2266
     47  O        -61.5370    9.6270  102.7740 O.2   143  ASN143     -0.2867
     48  CB       -64.3250    8.6930  103.5100 C.3   143  ASN143      0.1155
     49  CG       -65.6050    8.5450  104.3160 C.2   143  ASN143      0.2627
     50  OD1      -65.5980    7.9940  105.4160 O.2   143  ASN143     -0.2716
     51  ND2      -66.7150    9.0310  103.7660 N.am  143  ASN143     -0.0877
     52  N        -60.9450    7.1300  100.8840 N.3   145  HIS145     -0.1226
     53  CA       -61.0500    7.1170   99.4240 C.3   145  HIS145      0.1752
     54  C        -61.0620    8.5500   98.8830 C.2   145  HIS145      0.2596
     55  O        -60.9270    8.7730   97.6730 O.2   145  HIS145     -0.2718
     56  CB       -62.2920    6.3400   98.9550 C.3   145  HIS145      0.0759
     57  CG       -63.5970    7.0450   99.1940 C.ar  145  HIS145      0.0818
     58  ND1      -64.7400    6.7470   98.4820 N.ar  145  HIS145     -0.2268
     59  CD2      -63.9440    8.0220  100.0670 C.ar  145  HIS145      0.1154
     60  CE1      -65.7310    7.5150   98.9000 C.ar  145  HIS145      0.1986
     61  NE2      -65.2760    8.2970   99.8620 N.ar  145  HIS145     -0.2212
     62  N        -61.1920    9.5210   99.7870 N.am  146  GLY146     -0.1957
     63  CA       -61.1210   10.9200   99.4090 C.3   146  GLY146      0.1869
     64  C        -59.7430   11.5330   99.6030 C.2   146  GLY146      0.2309
     65  O        -59.5550   12.7210   99.3420 O.2   146  GLY146     -0.2863
     66  N        -67.2240   18.0460   91.5790 N.3   185  ASP185     -0.1225
     67  CA       -67.5930   18.1980   92.9830 C.3   185  ASP185      0.1805
     68  C        -66.3610   18.2470   93.8860 C.2   185  ASP185      0.2598
     69  O        -66.2300   17.4600   94.8210 O.2   185  ASP185     -0.2718
     70  CB       -68.5290   17.0640   93.4190 C.3   185  ASP185      0.1424
     71  CG       -69.4900   17.4880   94.5200 C.2   185  ASP185      0.3668
     72  OD1      -69.6430   18.7070   94.7460 O.co2 185  ASP185     -0.2456
     73  OD2      -70.1000   16.6040   95.1550 O.co2 185  ASP185     -0.2456
     74  N        -65.4660   19.1880   93.5970 N.am  186  LEU186     -0.1966
     75  CA       -64.2790   19.4210   94.4160 C.3   186  LEU186      0.1728
     76  C        -64.6080   20.0600   95.7610 C.2   186  LEU186      0.2616
     77  O        -65.5070   20.8950   95.8550 O.2   186  LEU186     -0.2715
     78  CB       -63.2890   20.3240   93.6740 C.3   186  LEU186      0.0311
     79  CG       -62.5480   19.7910   92.4470 C.3   186  LEU186      0.0022
     80  CD1      -61.8780   20.9440   91.7160 C.3   186  LEU186      0.0001
     81  CD2      -61.5200   18.7340   92.8440 C.3   186  LEU186      0.0001
     82  N        -63.8710   19.6740   96.7980 N.am  187  ASP187     -0.1971
     83  CA       -63.8870   20.4240   98.0480 C.3   187  ASP187      0.1709
     84  C        -63.0010   21.6500   97.8660 C.2   187  ASP187      0.2293
     85  O        -62.0530   21.6160   97.0850 O.2   187  ASP187     -0.2864
     86  CB       -63.3980   19.5740   99.2230 C.3   187  ASP187      0.1436
     87  CG       -64.3510   18.4440   99.5660 C.2   187  ASP187      0.3671
     88  OD1      -65.5830   18.6640   99.5400 O.co2 187  ASP187     -0.2456
     89  OD2      -63.8610   17.3320   99.8610 O.co2 187  ASP187     -0.2456
     90  N        -59.3500   21.1900   98.1620 N.3   190  GLU190     -0.1245
     91  CA       -58.8100   20.4740   97.0090 C.3   190  GLU190      0.1567
     92  C        -58.5290   21.4580   95.8820 C.2   190  GLU190      0.2260
     93  O        -57.4600   21.4360   95.2700 O.2   190  GLU190     -0.2867
     94  CB       -59.7740   19.3880   96.5320 C.3   190  GLU190      0.0388
     95  CG       -59.8540   18.1800   97.4450 C.3   190  GLU190      0.1160
     96  CD       -60.8260   17.1400   96.9320 C.2   190  GLU190      0.3649
     97  OE1      -62.0150   17.4810   96.7510 O.co2 190  GLU190     -0.2457
     98  OE2      -60.4020   15.9870   96.7040 O.co2 190  GLU190     -0.2457
     99  N        -62.2660    6.4220   88.1700 N.3   236  ASP236     -0.1239
    100  CA       -63.3720    6.2940   89.1090 C.3   236  ASP236      0.1674
    101  C        -64.6460    6.1700   88.2860 C.2   236  ASP236      0.2266
    102  O        -64.9230    7.0150   87.4380 O.2   236  ASP236     -0.2867
    103  CB       -63.4280    7.5000   90.0500 C.3   236  ASP236      0.1410
    104  CG       -64.4050    7.3140   91.2050 C.2   236  ASP236      0.3668
    105  OD1      -65.3840    6.5510   91.0660 O.co2 236  ASP236     -0.2456
    106  OD2      -64.1960    7.9560   92.2600 O.co2 236  ASP236     -0.2456
    107  N        -70.7130    7.6730   95.5900 N.3   250  THR250     -0.1218
    108  CA       -70.8430    9.1270   95.5720 C.3   250  THR250      0.1862
    109  C        -71.1470    9.6360   94.1670 C.2   250  THR250      0.2287
    110  O        -70.3180   10.2930   93.5370 O.2   250  THR250     -0.2866
    111  CB       -69.5670    9.8150   96.1070 C.3   250  THR250      0.1770
    112  OG1      -68.4380    9.4140   95.3220 O.3   250  THR250     -0.2211
    113  CG2      -69.3210    9.4190   97.5520 C.3   250  THR250      0.0375
    114  N        -64.5850    2.1190   92.6690 N.3   281  GLU281     -0.1245
    115  CA       -65.8720    2.5400   93.2330 C.3   281  GLU281      0.1567
    116  C        -67.1130    1.8620   92.6410 C.2   281  GLU281      0.2260
    117  O        -68.2290    2.3520   92.8110 O.2   281  GLU281     -0.2867
    118  CB       -66.0220    4.0620   93.1290 C.3   281  GLU281      0.0388
    119  CG       -64.9700    4.8500   93.9140 C.3   281  GLU281      0.1160
    120  CD       -65.0790    4.6730   95.4290 C.2   281  GLU281      0.3649
    121  OE1      -66.1120    4.1620   95.9150 O.co2 281  GLU281     -0.2457
    122  OE2      -64.1230    5.0540   96.1370 O.co2 281  GLU281     -0.2457
@<TRIPOS>BOND
     1   102   101    2
     2    99   100    1
     3   101   100    1
     4   100   103    1
     5   103   104    1
     6   105   104   ar
     7   104   106   ar
     8     1     2    1
     9    66    67    1
    10    80    79    1
    11     4     3    2
    12    79    81    1
    13    79    78    1
    14   116   117    2
    15   116   115    1
    16     3     2    1
    17   114   115    1
    18     2     5    1
    19    67    70    1
    20    67    68    1
    21   118   115    1
    22   118   119    1
    23    70    71    1
    24     7     9   ar
    25     7     6   ar
    26   110   109    2
    27    74    68   am
    28    74    75    1
    29     9    10   ar
    30    78    75    1
    31    68    69    2
    32   119   120    1
    33     5     6    1
    34     6     8   ar
    35   109   108    1
    36    18    16   ar
    37    10     8   ar
    38    75    76    1
    39    71    72   ar
    40    71    73   ar
    41    16    15    1
    42    16    17   ar
    43    15    12    1
    44    11    12    1
    45    93    92    2
    46   112   111    1
    47   120   121   ar
    48   120   122   ar
    49   108   107    1
    50   108   111    1
    51    76    77    2
    52    76    82   am
    53    92    91    1
    54    12    13    1
    55   111   113    1
    56    13    14    2
    57    94    91    1
    58    94    95    1
    59    98    96   ar
    60    97    96   ar
    61    82    83    1
    62    96    95    1
    63    91    90    1
    64    85    84    2
    65    55    54    2
    66    84    83    1
    67    83    86    1
    68    58    60   ar
    69    58    57   ar
    70    54    53    1
    71    54    62   am
    72    60    61   ar
    73    56    57    1
    74    56    53    1
    75    19    20    1
    76    57    59   ar
    77    86    87    1
    78    65    64    2
    79    63    64    1
    80    63    62    1
    81    53    52    1
    82    88    87   ar
    83    87    89   ar
    84    61    59   ar
    85    20    23    1
    86    20    21    1
    87    26    24   am
    88    24    25    2
    89    24    23    1
    90    21    22    2
    91    47    46    2
    92    48    49    1
    93    48    45    1
    94    46    45    1
    95    51    49   am
    96    43    42    1
    97    49    50    2
    98    45    44    1
    99    42    39    1
   100    32    31    1
   101    31    28    1
   102    28    27    1
   103    28    29    1
   104    33    29   am
   105    33    34    1
   106    38    39    1
   107    38    35   am
   108    39    40    1
   109    37    34    1
   110    29    30    2
   111    34    35    1
   112    40    41    2
   113    35    36    2
