@<TRIPOS>MOLECULE
tmp/4q3tC00.pdb
 140 128 0 0 0
SMALL
GASTEIGER

@<TRIPOS>ATOM
      1  N        -17.2220   17.7880   -0.3190 N.3   103  HIS103     -0.1241
      2  CA       -16.7640   18.8480    0.5790 C.3   103  HIS103      0.1621
      3  C        -17.4890   20.1850    0.4340 C.2   103  HIS103      0.2264
      4  O        -17.2320   21.1110    1.2050 O.2   103  HIS103     -0.2867
      5  CB       -15.2610   19.0690    0.4080 C.3   103  HIS103      0.0745
      6  CG       -14.5180   19.2410    1.6970 C.ar  103  HIS103      0.0817
      7  ND1      -13.1830   18.9280    1.8320 N.ar  103  HIS103     -0.2268
      8  CD2      -14.9220   19.6910    2.9100 C.ar  103  HIS103      0.1154
      9  CE1      -12.7930   19.1830    3.0680 C.ar  103  HIS103      0.1986
     10  NE2      -13.8280   19.6470    3.7440 N.ar  103  HIS103     -0.2212
     11  N         -6.6410   18.4040    3.9230 N.3   126  ASP126     -0.1239
     12  CA        -7.0250   18.1600    2.5380 C.3   126  ASP126      0.1674
     13  C         -5.7890   18.1580    1.6600 C.2   126  ASP126      0.2266
     14  O         -4.7980   18.8030    1.9770 O.2   126  ASP126     -0.2867
     15  CB        -7.9760   19.2700    2.0810 C.3   126  ASP126      0.1410
     16  CG        -8.9070   18.8410    0.9610 C.2   126  ASP126      0.3668
     17  OD1       -8.4650   18.1260    0.0340 O.co2 126  ASP126     -0.2456
     18  OD2      -10.0990   19.2350    1.0010 O.co2 126  ASP126     -0.2456
     19  N         -6.2240   19.3250   -1.2160 N.3   128  HIS128     -0.1241
     20  CA        -6.6210   20.4680   -2.0310 C.3   128  HIS128      0.1621
     21  C         -6.9820   21.6820   -1.1810 C.2   128  HIS128      0.2264
     22  O         -7.3890   21.5530   -0.0240 O.2   128  HIS128     -0.2867
     23  CB        -7.8200   20.0910   -2.9030 C.3   128  HIS128      0.0745
     24  CG        -7.6400   18.8080   -3.6530 C.ar  128  HIS128      0.0817
     25  ND1       -8.0880   17.5960   -3.1710 N.ar  128  HIS128     -0.2268
     26  CD2       -7.0530   18.5460   -4.8430 C.ar  128  HIS128      0.1154
     27  CE1       -7.7870   16.6430   -4.0370 C.ar  128  HIS128      0.1986
     28  NE2       -7.1550   17.1920   -5.0580 N.ar  128  HIS128     -0.2212
     29  N         -9.4090   23.8530   -1.8000 N.3   130  ASP130     -0.1239
     30  CA       -10.8620   24.0460   -1.7680 C.3   130  ASP130      0.1674
     31  C        -11.2570   25.5120   -1.6100 C.2   130  ASP130      0.2266
     32  O        -12.2480   25.8310   -0.9530 O.2   130  ASP130     -0.2867
     33  CB       -11.4800   23.2090   -0.6490 C.3   130  ASP130      0.1410
     34  CG       -11.5120   21.7390   -0.9830 C.2   130  ASP130      0.3668
     35  OD1      -12.1060   20.9630   -0.2110 O.co2 130  ASP130     -0.2456
     36  OD2      -10.9500   21.3610   -2.0320 O.co2 130  ASP130     -0.2456
     37  N        -10.9870   27.8580   -4.4290 N.3   132  ASN132     -0.1240
     38  CA       -11.1510   28.5050   -5.7240 C.3   132  ASN132      0.1653
     39  C        -12.2980   29.4920   -5.6710 C.2   132  ASN132      0.2266
     40  O        -13.3760   29.1680   -5.1760 O.2   132  ASN132     -0.2867
     41  CB       -11.4130   27.4840   -6.8290 C.3   132  ASN132      0.1155
     42  CG       -10.1400   26.8410   -7.3370 C.2   132  ASN132      0.2627
     43  OD1       -9.9930   25.6220   -7.3170 O.2   132  ASN132     -0.2716
     44  ND2       -9.2040   27.6700   -7.7920 N.am  132  ASN132     -0.0877
     45  N        -12.2230   28.9150  -11.1960 N.3   137  SER137     -0.1202
     46  CA       -12.3870   27.4660  -11.1900 C.3   137  SER137      0.2020
     47  C        -12.3970   26.8890  -12.6000 C.2   137  SER137      0.2619
     48  O        -13.2560   27.2290  -13.4160 O.2   137  SER137     -0.2717
     49  CB       -13.6630   27.0630  -10.4550 C.3   137  SER137      0.2103
     50  OG       -13.8830   25.6680  -10.5730 O.3   137  SER137     -0.2182
     51  N        -11.4400   26.0080  -12.8740 N.am  138  ALA138     -0.1965
     52  CA       -11.3800   25.3110  -14.1490 C.3   138  ALA138      0.1728
     53  C        -12.5440   24.3360  -14.2850 C.2   138  ALA138      0.2616
     54  O        -13.0400   24.0990  -15.3840 O.2   138  ALA138     -0.2715
     55  CB       -10.0600   24.5700  -14.2770 C.3   138  ALA138      0.0334
     56  N        -12.9840   23.7800  -13.1600 N.am  139  SER139     -0.1950
     57  CA       -13.9920   22.7210  -13.1750 C.3   139  SER139      0.1924
     58  C        -15.4220   23.2250  -13.0130 C.2   139  SER139      0.2314
     59  O        -16.3460   22.6760  -13.6080 O.2   139  SER139     -0.2863
     60  CB       -13.6920   21.6870  -12.0850 C.3   139  SER139      0.2116
     61  OG       -13.8140   22.2570  -10.7900 O.3   139  SER139     -0.2180
     62  N        -16.8010   22.8750  -10.2570 N.3   141  ASN141     -0.1240
     63  CA       -17.2530   21.9820   -9.1950 C.3   141  ASN141      0.1653
     64  C        -17.2310   22.6920   -7.8470 C.2   141  ASN141      0.2266
     65  O        -16.1730   23.1230   -7.3860 O.2   141  ASN141     -0.2867
     66  CB       -16.3710   20.7360   -9.1440 C.3   141  ASN141      0.1155
     67  CG       -16.4510   19.9150  -10.4180 C.2   141  ASN141      0.2627
     68  OD1      -17.4270   20.0000  -11.1670 O.2   141  ASN141     -0.2716
     69  ND2      -15.4290   19.1070  -10.6660 N.am  141  ASN141     -0.0877
     70  N        -17.3270   21.7560   -4.8530 N.3   143  HIS143     -0.1226
     71  CA       -16.5510   21.1790   -3.7530 C.3   143  HIS143      0.1752
     72  C        -15.1190   21.7070   -3.7210 C.2   143  HIS143      0.2596
     73  O        -14.3720   21.4350   -2.7810 O.2   143  HIS143     -0.2718
     74  CB       -16.5830   19.6410   -3.7670 C.3   143  HIS143      0.0759
     75  CG       -15.6900   19.0140   -4.7950 C.ar  143  HIS143      0.0818
     76  ND1      -15.2570   17.7060   -4.7020 N.ar  143  HIS143     -0.2268
     77  CD2      -15.1640   19.5030   -5.9440 C.ar  143  HIS143      0.1154
     78  CE1      -14.5010   17.4200   -5.7470 C.ar  143  HIS143      0.1986
     79  NE2      -14.4290   18.4910   -6.5170 N.ar  143  HIS143     -0.2212
     80  N        -14.7500   22.4660   -4.7530 N.am  144  GLY144     -0.1957
     81  CA       -13.4390   23.0870   -4.8330 C.3   144  GLY144      0.1869
     82  C        -13.4740   24.5670   -4.5000 C.2   144  GLY144      0.2309
     83  O        -12.4560   25.2580   -4.5870 O.2   144  GLY144     -0.2863
     84  N         -1.9230   19.4290   -4.0550 N.3   183  ASP183     -0.1239
     85  CA        -2.4410   19.6940   -5.3930 C.3   183  ASP183      0.1674
     86  C         -3.1790   21.0320   -5.4680 C.2   183  ASP183      0.2266
     87  O         -4.3660   21.0770   -5.7810 O.2   183  ASP183     -0.2867
     88  CB        -3.3430   18.5440   -5.8520 C.3   183  ASP183      0.1410
     89  CG        -3.6430   18.5930   -7.3400 C.2   183  ASP183      0.3668
     90  OD1       -2.9200   19.2940   -8.0740 O.co2 183  ASP183     -0.2456
     91  OD2       -4.5960   17.9200   -7.7750 O.co2 183  ASP183     -0.2456
     92  N         -4.2300   24.6680   -6.9480 N.3   185  ASP185     -0.1239
     93  CA        -4.3240   25.4430   -8.1770 C.3   185  ASP185      0.1674
     94  C         -3.5350   26.7320   -7.9810 C.2   185  ASP185      0.2266
     95  O         -3.3850   27.2050   -6.8540 O.2   185  ASP185     -0.2867
     96  CB        -5.7870   25.7350   -8.5160 C.3   185  ASP185      0.1410
     97  CG        -6.5800   24.4670   -8.7940 C.2   185  ASP185      0.3668
     98  OD1       -5.9950   23.5150   -9.3610 O.co2 185  ASP185     -0.2456
     99  OD2       -7.7790   24.4170   -8.4380 O.co2 185  ASP185     -0.2456
    100  N         -5.3010   29.6050   -6.1650 N.3   188  GLU188     -0.1245
    101  CA        -5.4200   29.2990   -4.7460 C.3   188  GLU188      0.1567
    102  C         -4.1220   29.6320   -4.0200 C.2   188  GLU188      0.2260
    103  O         -4.1440   30.2300   -2.9470 O.2   188  GLU188     -0.2867
    104  CB        -5.7580   27.8280   -4.5380 C.3   188  GLU188      0.0388
    105  CG        -7.1600   27.4490   -4.9520 C.3   188  GLU188      0.1160
    106  CD        -7.4030   25.9640   -4.8210 C.2   188  GLU188      0.3649
    107  OE1       -6.5940   25.1830   -5.3680 O.co2 188  GLU188     -0.2457
    108  OE2       -8.3940   25.5770   -4.1660 O.co2 188  GLU188     -0.2457
    109  N        -10.9410   16.1400    4.7400 N.3   234  ASP234     -0.1239
    110  CA       -11.1970   15.4970    3.4590 C.3   234  ASP234      0.1674
    111  C        -10.4660   14.1640    3.4770 C.2   234  ASP234      0.2266
    112  O         -9.2540   14.1210    3.6820 O.2   234  ASP234     -0.2867
    113  CB       -10.6760   16.3740    2.3160 C.3   234  ASP234      0.1410
    114  CG       -11.1390   15.9060    0.9470 C.2   234  ASP234      0.3668
    115  OD1      -11.3250   14.6870    0.7460 O.co2 234  ASP234     -0.2456
    116  OD2      -11.3090   16.7690    0.0560 O.co2 234  ASP234     -0.2456
    117  N         -9.4470   12.4870    1.1940 N.3   236  ASP236     -0.1239
    118  CA        -8.3810   12.4550    0.1890 C.3   236  ASP236      0.1674
    119  C         -7.0800   13.1050    0.6590 C.2   236  ASP236      0.2266
    120  O         -6.0780   13.0970   -0.0580 O.2   236  ASP236     -0.2867
    121  CB        -8.8390   12.9950   -1.1830 C.3   236  ASP236      0.1410
    122  CG        -9.0240   14.5130   -1.2160 C.2   236  ASP236      0.3668
    123  OD1       -9.8250   14.9770   -2.0540 O.co2 236  ASP236     -0.2456
    124  OD2       -8.3770   15.2510   -0.4450 O.co2 236  ASP236     -0.2456
    125  N        -11.1920   12.5610   -5.9940 N.3   248  THR248     -0.1218
    126  CA       -10.0020   13.2430   -6.4930 C.3   248  THR248      0.1862
    127  C         -8.7720   12.8280   -5.6950 C.2   248  THR248      0.2287
    128  O         -8.2190   13.6180   -4.9290 O.2   248  THR248     -0.2866
    129  CB       -10.1550   14.7820   -6.4450 C.3   248  THR248      0.1770
    130  OG1      -10.4490   15.1930   -5.1090 O.3   248  THR248     -0.2211
    131  CG2      -11.2840   15.2470   -7.3710 C.3   248  THR248      0.0375
    132  N        -15.9460   13.5260    1.3200 N.3   279  GLU279     -0.1245
    133  CA       -15.4950   12.8940    0.0720 C.3   279  GLU279      0.1567
    134  C        -15.3640   11.3600    0.0620 C.2   279  GLU279      0.2260
    135  O        -14.7250   10.7980   -0.8310 O.2   279  GLU279     -0.2867
    136  CB       -14.2130   13.5590   -0.4600 C.3   279  GLU279      0.0388
    137  CG       -14.3460   15.0590   -0.7480 C.3   279  GLU279      0.1160
    138  CD       -15.1740   15.3540   -1.9940 C.2   279  GLU279      0.3649
    139  OE1      -15.4010   14.4250   -2.7960 O.co2 279  GLU279     -0.2457
    140  OE2      -15.5970   16.5180   -2.1740 O.co2 279  GLU279     -0.2457
@<TRIPOS>BOND
     1    54    53    2
     2    53    52    1
     3    53    56   am
     4    55    52    1
     5    52    51    1
     6    59    58    2
     7    48    47    2
     8    57    56    1
     9    57    58    1
    10    57    60    1
    11    51    47   am
    12    47    46    1
    13    60    61    1
    14    45    46    1
    15    46    49    1
    16    68    67    2
    17    69    67   am
    18    50    49    1
    19    67    66    1
    20    62    63    1
    21    98    97   ar
    22    63    66    1
    23    63    64    1
    24    97    96    1
    25    97    99   ar
    26    96    93    1
    27    93    94    1
    28    93    92    1
    29    90    89   ar
    30    94    95    2
    31    64    65    2
    32    44    42   am
    33    91    89   ar
    34   131   129    1
    35    89    88    1
    36    42    43    2
    37    42    41    1
    38    41    38    1
    39    79    77   ar
    40    79    78   ar
    41   126   129    1
    42   126   125    1
    43   126   127    1
    44   129   130    1
    45   100   101    1
    46    77    75   ar
    47    88    85    1
    48    87    86    2
    49    78    76   ar
    50    38    39    1
    51    38    37    1
    52   127   128    2
    53    39    40    2
    54    86    85    1
    55    85    84    1
    56   107   106   ar
    57    28    26   ar
    58    28    27   ar
    59   105   106    1
    60   105   104    1
    61    70    71    1
    62    26    24   ar
    63    81    80    1
    64    81    82    1
    65   106   108   ar
    66    75    76   ar
    67    75    74    1
    68    80    72   am
    69   101   104    1
    70   101   102    1
    71    83    82    2
    72    27    25   ar
    73   102   103    2
    74    74    71    1
    75    71    72    1
    76    72    73    2
    77    24    25   ar
    78    24    23    1
    79    23    20    1
    80   139   138   ar
    81   140   138   ar
    82   123   122   ar
    83    36    34   ar
    84    20    19    1
    85    20    21    1
    86   138   137    1
    87    29    30    1
    88    30    31    1
    89    30    33    1
    90    31    32    2
    91   122   121    1
    92   122   124   ar
    93   121   118    1
    94    21    22    2
    95    34    33    1
    96    34    35   ar
    97   135   134    2
    98   137   136    1
    99   136   133    1
   100     1     2    1
   101   120   119    2
   102    17    16   ar
   103   116   114   ar
   104   134   133    1
   105   133   132    1
   106   118   119    1
   107   118   117    1
   108     5     2    1
   109     5     6    1
   110     3     2    1
   111     3     4    2
   112   115   114   ar
   113   114   113    1
   114    16    18   ar
   115    16    15    1
   116    13    14    2
   117    13    12    1
   118     6     7   ar
   119     6     8   ar
   120     7     9   ar
   121    15    12    1
   122   113   110    1
   123    12    11    1
   124     8    10   ar
   125     9    10   ar
   126   110   111    1
   127   110   109    1
   128   111   112    2
