@<TRIPOS>MOLECULE
tmp/4q3uD00.pdb
 140 128 0 0 0
SMALL
GASTEIGER

@<TRIPOS>ATOM
      1  N        -58.4880  -40.0560  103.1540 N.3   100  HIS100     -0.1241
      2  CA       -59.1570  -40.6510  101.9940 C.3   100  HIS100      0.1621
      3  C        -59.6710  -39.6250  100.9710 C.2   100  HIS100      0.2264
      4  O        -60.1150  -40.0010   99.8810 O.2   100  HIS100     -0.2867
      5  CB       -60.3150  -41.5540  102.4560 C.3   100  HIS100      0.0745
      6  CG       -60.4460  -42.8240  101.6660 C.ar  100  HIS100      0.0817
      7  ND1      -61.2010  -43.8960  102.0950 N.ar  100  HIS100     -0.2268
      8  CD2      -59.9190  -43.1900  100.4720 C.ar  100  HIS100      0.1154
      9  CE1      -61.1290  -44.8690  101.2030 C.ar  100  HIS100      0.1986
     10  NE2      -60.3600  -44.4650  100.2060 N.ar  100  HIS100     -0.2212
     11  N        -64.5070  -50.0440  103.4350 N.3   123  ASP123     -0.1239
     12  CA       -64.6130  -48.9180  104.3530 C.3   123  ASP123      0.1674
     13  C        -65.7130  -49.0700  105.4150 C.2   123  ASP123      0.2266
     14  O        -66.7720  -49.6600  105.1570 O.2   123  ASP123     -0.2867
     15  CB       -64.8540  -47.6440  103.5290 C.3   123  ASP123      0.1410
     16  CG       -64.3160  -46.3870  104.1960 C.2   123  ASP123      0.3668
     17  OD1      -64.5400  -46.1920  105.4070 O.co2 123  ASP123     -0.2456
     18  OD2      -63.6810  -45.5830  103.4890 O.co2 123  ASP123     -0.2456
     19  N        -66.9900  -46.2660  106.4640 N.3   125  HIS125     -0.1241
     20  CA       -67.7930  -45.0990  106.0920 C.3   125  HIS125      0.1621
     21  C        -68.0730  -45.0700  104.5980 C.2   125  HIS125      0.2264
     22  O        -67.3100  -45.6270  103.8020 O.2   125  HIS125     -0.2867
     23  CB       -67.0930  -43.8000  106.5100 C.3   125  HIS125      0.0745
     24  CG       -66.6080  -43.8130  107.9260 C.ar  125  HIS125      0.0817
     25  ND1      -65.3530  -44.2640  108.2780 N.ar  125  HIS125     -0.2268
     26  CD2      -67.2210  -43.4650  109.0810 C.ar  125  HIS125      0.1154
     27  CE1      -65.2090  -44.1800  109.5870 C.ar  125  HIS125      0.1986
     28  NE2      -66.3280  -43.6990  110.0980 N.ar  125  HIS125     -0.2212
     29  N        -68.3210  -42.2240  102.6610 N.3   127  ASP127     -0.1239
     30  CA       -67.4700  -41.2240  102.0050 C.3   127  ASP127      0.1674
     31  C        -68.1100  -40.6680  100.7300 C.2   127  ASP127      0.2266
     32  O        -67.4180  -40.3880   99.7490 O.2   127  ASP127     -0.2867
     33  CB       -66.0900  -41.8150  101.6720 C.3   127  ASP127      0.1410
     34  CG       -65.1620  -41.8870  102.8820 C.2   127  ASP127      0.3668
     35  OD1      -65.6310  -41.6620  104.0210 O.co2 127  ASP127     -0.2456
     36  OD2      -63.9580  -42.1790  102.6910 O.co2 127  ASP127     -0.2456
     37  N        -70.9300  -38.2890  100.9970 N.3   129  ASN129     -0.1240
     38  CA       -71.6950  -37.0920  101.3730 C.3   129  ASN129      0.1653
     39  C        -71.6130  -35.9750  100.3380 C.2   129  ASN129      0.2266
     40  O        -70.5810  -35.7870   99.7040 O.2   129  ASN129     -0.2867
     41  CB       -71.2120  -36.5490  102.7230 C.3   129  ASN129      0.1155
     42  CG       -71.9370  -37.1710  103.9050 C.2   129  ASN129      0.2627
     43  OD1      -73.1640  -37.3250  103.8910 O.2   129  ASN129     -0.2716
     44  ND2      -71.1790  -37.5330  104.9370 N.am  129  ASN129     -0.0877
     45  N        -73.1240  -32.5460  104.5250 N.3   134  SER134     -0.1202
     46  CA       -72.0630  -32.8820  105.4760 C.3   134  SER134      0.2020
     47  C        -72.1950  -32.0760  106.7690 C.2   134  SER134      0.2619
     48  O        -72.4000  -30.8650  106.7320 O.2   134  SER134     -0.2717
     49  CB       -70.6860  -32.6400  104.8400 C.3   134  SER134      0.2103
     50  OG       -69.6270  -33.0370  105.6970 O.3   134  SER134     -0.2182
     51  N        -72.0830  -32.7480  107.9110 N.am  135  ALA135     -0.1965
     52  CA       -72.1320  -32.0630  109.2040 C.3   135  ALA135      0.1728
     53  C        -70.7290  -31.7900  109.7520 C.2   135  ALA135      0.2616
     54  O        -70.5670  -31.0230  110.7010 O.2   135  ALA135     -0.2715
     55  CB       -72.9400  -32.8690  110.2050 C.3   135  ALA135      0.0334
     56  N        -69.7210  -32.4100  109.1480 N.am  136  SER136     -0.1950
     57  CA       -68.3390  -32.2190  109.5760 C.3   136  SER136      0.1924
     58  C        -67.6240  -31.2330  108.6660 C.2   136  SER136      0.2314
     59  O        -66.6600  -30.5860  109.0730 O.2   136  SER136     -0.2863
     60  CB       -67.5750  -33.5530  109.5960 C.3   136  SER136      0.2116
     61  OG       -67.2650  -34.0030  108.2820 O.3   136  SER136     -0.2180
     62  N        -65.7180  -32.1000  106.6200 N.3   138  ASN138     -0.1240
     63  CA       -64.4420  -32.7560  106.3450 C.3   138  ASN138      0.1653
     64  C        -64.4660  -33.4210  104.9710 C.2   138  ASN138      0.2266
     65  O        -65.3490  -34.2320  104.6750 O.2   138  ASN138     -0.2867
     66  CB       -64.1060  -33.7870  107.4320 C.3   138  ASN138      0.1155
     67  CG       -63.8910  -33.1520  108.8010 C.2   138  ASN138      0.2627
     68  OD1      -63.5410  -31.9750  108.9040 O.2   138  ASN138     -0.2716
     69  ND2      -64.0950  -33.9360  109.8580 N.am  138  ASN138     -0.0877
     70  N        -62.5410  -35.5950  103.5160 N.3   140  HIS140     -0.1226
     71  CA       -62.2350  -37.0250  103.4480 C.3   140  HIS140      0.1752
     72  C        -63.5150  -37.8730  103.5150 C.2   140  HIS140      0.2596
     73  O        -63.4880  -39.0710  103.2290 O.2   140  HIS140     -0.2718
     74  CB       -61.2450  -37.4270  104.5640 C.3   140  HIS140      0.0759
     75  CG       -61.8690  -37.6430  105.9190 C.ar  140  HIS140      0.0818
     76  ND1      -61.3020  -38.4670  106.8680 N.ar  140  HIS140     -0.2268
     77  CD2      -62.9910  -37.1360  106.4870 C.ar  140  HIS140      0.1154
     78  CE1      -62.0540  -38.4740  107.9550 C.ar  140  HIS140      0.1986
     79  NE2      -63.0870  -37.6780  107.7480 N.ar  140  HIS140     -0.2212
     80  N        -64.6280  -37.2370  103.8830 N.am  141  GLY141     -0.1957
     81  CA       -65.9170  -37.9030  103.9700 C.3   141  GLY141      0.1869
     82  C        -66.8730  -37.5760  102.8260 C.2   141  GLY141      0.2309
     83  O        -68.0890  -37.8170  102.9140 O.2   141  GLY141     -0.2863
     84  N        -71.1340  -47.2170  109.5850 N.3   180  ASP180     -0.1239
     85  CA       -71.2450  -45.8550  110.1130 C.3   180  ASP180      0.1674
     86  C        -71.6590  -44.8640  109.0190 C.2   180  ASP180      0.2266
     87  O        -71.0810  -43.7830  108.8890 O.2   180  ASP180     -0.2867
     88  CB       -69.9040  -45.4410  110.7600 C.3   180  ASP180      0.1410
     89  CG       -70.0380  -44.2920  111.7530 C.2   180  ASP180      0.3668
     90  OD1      -71.1450  -44.0300  112.2760 O.co2 180  ASP180     -0.2456
     91  OD2      -69.0040  -43.6560  112.0340 O.co2 180  ASP180     -0.2456
     92  N        -73.8200  -42.0230  107.2220 N.3   182  ASP182     -0.1239
     93  CA       -74.6870  -40.8780  107.5400 C.3   182  ASP182      0.1674
     94  C        -76.0280  -41.0800  106.8360 C.2   182  ASP182      0.2266
     95  O        -76.0840  -41.7500  105.8010 O.2   182  ASP182     -0.2867
     96  CB       -74.0590  -39.5450  107.1050 C.3   182  ASP182      0.1410
     97  CG       -72.7370  -39.2500  107.8090 C.2   182  ASP182      0.3668
     98  OD1      -72.5730  -39.6560  108.9860 O.co2 182  ASP182     -0.2456
     99  OD2      -71.8610  -38.6060  107.1850 O.co2 182  ASP182     -0.2456
    100  N        -76.1930  -40.2870  103.1650 N.3   185  GLU185     -0.1245
    101  CA       -75.4290  -41.2370  102.3580 C.3   185  GLU185      0.1567
    102  C        -76.2800  -42.4820  102.0580 C.2   185  GLU185      0.2260
    103  O        -76.2620  -43.0050  100.9390 O.2   185  GLU185     -0.2867
    104  CB       -74.1290  -41.6340  103.0660 C.3   185  GLU185      0.0388
    105  CG       -73.0040  -40.5960  103.0250 C.3   185  GLU185      0.1160
    106  CD       -71.8220  -41.0030  103.9040 C.2   185  GLU185      0.3649
    107  OE1      -72.0760  -41.5130  105.0150 O.co2 185  GLU185     -0.2457
    108  OE2      -70.6480  -40.8300  103.4950 O.co2 185  GLU185     -0.2457
    109  N        -59.7440  -48.1320  102.8770 N.3   231  ASP231     -0.1239
    110  CA       -59.5650  -47.3760  104.1170 C.3   231  ASP231      0.1674
    111  C        -59.1730  -48.3490  105.2330 C.2   231  ASP231      0.2266
    112  O        -59.8580  -49.3450  105.4740 O.2   231  ASP231     -0.2867
    113  CB       -60.8430  -46.6040  104.4890 C.3   231  ASP231      0.1410
    114  CG       -60.6680  -45.6950  105.7230 C.2   231  ASP231      0.3668
    115  OD1      -59.8260  -45.9860  106.6020 O.co2 231  ASP231     -0.2456
    116  OD2      -61.3940  -44.6840  105.8280 O.co2 231  ASP231     -0.2456
    117  N        -59.5340  -48.1040  108.3070 N.3   233  ASP233     -0.1239
    118  CA       -60.4890  -48.1820  109.4190 C.3   233  ASP233      0.1674
    119  C        -61.6800  -49.1010  109.1040 C.2   233  ASP233      0.2266
    120  O        -62.5980  -49.2440  109.9260 O.2   233  ASP233     -0.2867
    121  CB       -60.9760  -46.7780  109.8460 C.3   233  ASP233      0.1410
    122  CG       -61.7490  -46.0350  108.7560 C.2   233  ASP233      0.3668
    123  OD1      -62.4750  -46.6700  107.9600 O.co2 233  ASP233     -0.2456
    124  OD2      -61.6320  -44.7920  108.7070 O.co2 233  ASP233     -0.2456
    125  N        -60.9870  -42.0680  112.4420 N.3   245  THR245     -0.1218
    126  CA       -62.3460  -42.4840  112.7830 C.3   245  THR245      0.1862
    127  C        -62.4390  -44.0030  112.9430 C.2   245  THR245      0.2287
    128  O        -62.8300  -44.7060  112.0070 O.2   245  THR245     -0.2866
    129  CB       -63.3840  -42.0640  111.7120 C.3   245  THR245      0.1770
    130  OG1      -62.9970  -40.8340  111.0860 O.3   245  THR245     -0.2211
    131  CG2      -64.7720  -41.9170  112.3480 C.3   245  THR245      0.0375
    132  N        -55.8990  -43.4200  105.2950 N.3   276  GLU276     -0.1245
    133  CA       -56.1840  -43.0920  106.6980 C.3   276  GLU276      0.1567
    134  C        -55.2810  -43.7910  107.7370 C.2   276  GLU276      0.2260
    135  O        -55.6310  -43.8950  108.9210 O.2   276  GLU276     -0.2867
    136  CB       -57.6630  -43.3640  107.0050 C.3   276  GLU276      0.0388
    137  CG       -58.6430  -42.5240  106.1420 C.3   276  GLU276      0.1160
    138  CD       -58.8370  -41.0830  106.6470 C.2   276  GLU276      0.3649
    139  OE1      -58.4610  -40.7810  107.8060 O.co2 276  GLU276     -0.2457
    140  OE2      -59.3780  -40.2500  105.8900 O.co2 276  GLU276     -0.2457
@<TRIPOS>BOND
     1    40    39    2
     2    32    31    2
     3     4     3    2
     4    10     8   ar
     5    10     9   ar
     6    39    38    1
     7     8     6   ar
     8    31    30    1
     9   103   102    2
    10     3     2    1
    11    37    38    1
    12     9     7   ar
    13    38    41    1
    14     6     7   ar
    15     6     5    1
    16    33    30    1
    17    33    34    1
    18     2     5    1
    19     2     1    1
    20    30    29    1
    21   102   101    1
    22   101   104    1
    23   101   100    1
    24    36    34   ar
    25    41    42    1
    26    82    83    2
    27    82    81    1
    28   109   110    1
    29    34    35   ar
    30   105   104    1
    31   105   106    1
    32    73    72    2
    33    11    12    1
    34    71    72    1
    35    71    70    1
    36    71    74    1
    37    18    16   ar
    38   108   106   ar
    39    72    80   am
    40    15    16    1
    41    15    12    1
    42    22    21    2
    43    80    81    1
    44    43    42    2
    45   106   107   ar
    46    42    44   am
    47   110   113    1
    48   110   111    1
    49    16    17   ar
    50    12    13    1
    51   113   114    1
    52    45    46    1
    53    74    75    1
    54    21    20    1
    55    65    64    2
    56    49    46    1
    57    49    50    1
    58    64    63    1
    59    14    13    2
    60   111   112    2
    61   132   133    1
    62    46    47    1
    63   114   116   ar
    64   114   115   ar
    65    95    94    2
    66   140   138   ar
    67    75    77   ar
    68    75    76   ar
    69    20    19    1
    70    20    23    1
    71   137   138    1
    72   137   136    1
    73    63    62    1
    74    63    66    1
    75    77    79   ar
    76    23    24    1
    77   138   139   ar
    78   133   136    1
    79   133   134    1
    80    48    47    2
    81    47    51   am
    82    94    93    1
    83    76    78   ar
    84    96    93    1
    85    96    97    1
    86    99    97   ar
    87    92    93    1
    88    66    67    1
    89   134   135    2
    90    79    78   ar
    91    97    98   ar
    92    51    52    1
    93    24    25   ar
    94    24    26   ar
    95   123   122   ar
    96    25    27   ar
    97    61    60    1
    98   117   118    1
    99    58    59    2
   100    58    57    1
   101   124   122   ar
   102   122   121    1
   103    67    68    2
   104    67    69   am
   105    87    86    2
   106    86    85    1
   107    26    28   ar
   108   119   118    1
   109   119   120    2
   110    56    57    1
   111    56    53   am
   112    52    53    1
   113    52    55    1
   114   118   121    1
   115    57    60    1
   116    84    85    1
   117    27    28   ar
   118    53    54    2
   119    85    88    1
   120    88    89    1
   121   130   129    1
   122   129   131    1
   123   129   126    1
   124    89    91   ar
   125    89    90   ar
   126   128   127    2
   127   125   126    1
   128   126   127    1
