@<TRIPOS>MOLECULE
tmp/4q3vC00.pdb
 122 111 0 0 0
SMALL
GASTEIGER

@<TRIPOS>ATOM
      1  N        -43.2690  -63.9270  -38.2960 N.3   133  HIS133     -0.1241
      2  CA       -42.4620  -65.0720  -37.9060 C.3   133  HIS133      0.1621
      3  C        -43.3350  -66.2770  -37.5740 C.2   133  HIS133      0.2264
      4  O        -44.5160  -66.1340  -37.2600 O.2   133  HIS133     -0.2867
      5  CB       -41.5940  -64.7080  -36.6990 C.3   133  HIS133      0.0745
      6  CG       -40.8390  -63.4270  -36.8660 C.ar  133  HIS133      0.0817
      7  ND1      -41.3570  -62.2040  -36.5010 N.ar  133  HIS133     -0.2268
      8  CD2      -39.6080  -63.1770  -37.3710 C.ar  133  HIS133      0.1154
      9  CE1      -40.4760  -61.2560  -36.7660 C.ar  133  HIS133      0.1986
     10  NE2      -39.4060  -61.8200  -37.2970 N.ar  133  HIS133     -0.2212
     11  N        -42.7250  -68.4960  -35.0710 N.3   135  ASP135     -0.1239
     12  CA       -42.7570  -68.7010  -33.6200 C.3   135  ASP135      0.1674
     13  C        -42.9740  -70.1670  -33.2350 C.2   135  ASP135      0.2266
     14  O        -43.6160  -70.4690  -32.2280 O.2   135  ASP135     -0.2867
     15  CB       -43.8390  -67.8280  -32.9800 C.3   135  ASP135      0.1410
     16  CG       -43.4880  -66.3540  -32.9930 C.2   135  ASP135      0.3668
     17  OD1      -44.2610  -65.5610  -32.4150 O.co2 135  ASP135     -0.2456
     18  OD2      -42.4410  -65.9840  -33.5690 O.co2 135  ASP135     -0.2456
     19  N        -40.2710  -72.6030  -33.5510 N.3   137  ASN137     -0.1240
     20  CA       -38.9780  -73.2570  -33.4180 C.3   137  ASN137      0.1653
     21  C        -38.9700  -74.2230  -32.2470 C.2   137  ASN137      0.2266
     22  O        -39.4250  -73.8860  -31.1560 O.2   137  ASN137     -0.2867
     23  CB       -37.8680  -72.2230  -33.2270 C.3   137  ASN137      0.1155
     24  CG       -37.2550  -71.7790  -34.5350 C.2   137  ASN137      0.2627
     25  OD1      -37.0700  -72.5820  -35.4510 O.2   137  ASN137     -0.2716
     26  ND2      -36.9340  -70.4920  -34.6320 N.am  137  ASN137     -0.0877
     27  N        -33.2640  -73.6990  -32.3570 N.3   142  SER142     -0.1202
     28  CA       -33.2780  -72.2550  -32.1550 C.3   142  SER142      0.2020
     29  C        -31.8640  -71.6920  -32.0720 C.2   142  SER142      0.2619
     30  O        -31.0790  -72.0850  -31.2110 O.2   142  SER142     -0.2717
     31  CB       -34.0580  -71.8910  -30.8890 C.3   142  SER142      0.2103
     32  OG       -33.9870  -70.4970  -30.6340 O.3   142  SER142     -0.2182
     33  N        -31.5440  -70.7680  -32.9710 N.am  143  ALA143     -0.1965
     34  CA       -30.2320  -70.1360  -32.9800 C.3   143  ALA143      0.1728
     35  C        -30.1750  -68.9900  -31.9780 C.2   143  ALA143      0.2616
     36  O        -29.0980  -68.5710  -31.5600 O.2   143  ALA143     -0.2715
     37  CB       -29.8980  -69.6370  -34.3730 C.3   143  ALA143      0.0334
     38  N        -31.3430  -68.4890  -31.5910 N.am  144  SER144     -0.1950
     39  CA       -31.4190  -67.3530  -30.6810 C.3   144  SER144      0.1924
     40  C        -31.4890  -67.8090  -29.2330 C.2   144  SER144      0.2314
     41  O        -30.7780  -67.2870  -28.3750 O.2   144  SER144     -0.2863
     42  CB       -32.6380  -66.4880  -31.0030 C.3   144  SER144      0.2116
     43  OG       -33.8410  -67.1590  -30.6690 O.3   144  SER144     -0.2180
     44  N        -34.2360  -67.4550  -27.7400 N.3   146  ASN146     -0.1240
     45  CA       -35.3190  -66.6010  -27.2780 C.3   146  ASN146      0.1653
     46  C        -36.6570  -67.3350  -27.3250 C.2   146  ASN146      0.2266
     47  O        -37.0830  -67.8020  -28.3820 O.2   146  ASN146     -0.2867
     48  CB       -35.3740  -65.3130  -28.1030 C.3   146  ASN146      0.1155
     49  CG       -34.0780  -64.5210  -28.0360 C.2   146  ASN146      0.2627
     50  OD1      -33.2890  -64.6740  -27.1040 O.2   146  ASN146     -0.2716
     51  ND2      -33.8540  -63.6670  -29.0290 N.am  146  ASN146     -0.0877
     52  N        -39.6870  -66.4330  -27.2220 N.3   148  HIS148     -0.1226
     53  CA       -40.7850  -65.8520  -27.9960 C.3   148  HIS148      0.1752
     54  C        -40.8450  -66.4080  -29.4170 C.2   148  HIS148      0.2596
     55  O        -41.8210  -66.1910  -30.1340 O.2   148  HIS148     -0.2718
     56  CB       -40.7140  -64.3190  -28.0130 C.3   148  HIS148      0.0759
     57  CG       -39.6050  -63.7660  -28.8540 C.ar  148  HIS148      0.0818
     58  ND1      -39.6190  -62.4780  -29.3460 N.ar  148  HIS148     -0.2268
     59  CD2      -38.4460  -64.3190  -29.2830 C.ar  148  HIS148      0.1154
     60  CE1      -38.5200  -62.2640  -30.0460 C.ar  148  HIS148      0.1986
     61  NE2      -37.7900  -63.3650  -30.0230 N.ar  148  HIS148     -0.2212
     62  N        -39.7980  -67.1250  -29.8130 N.am  149  GLY149     -0.1957
     63  CA       -39.7570  -67.7780  -31.1090 C.3   149  GLY149      0.1869
     64  C        -40.0560  -69.2620  -31.0110 C.2   149  GLY149      0.2309
     65  O        -39.9750  -69.9860  -32.0030 O.2   149  GLY149     -0.2863
     66  N        -40.5390  -64.1500  -42.6190 N.3   188  ASP188     -0.1239
     67  CA       -39.2110  -64.3660  -42.0560 C.3   188  ASP188      0.1674
     68  C        -39.1170  -65.7150  -41.3370 C.2   188  ASP188      0.2266
     69  O        -38.7180  -65.7860  -40.1750 O.2   188  ASP188     -0.2867
     70  CB       -38.8410  -63.2150  -41.1150 C.3   188  ASP188      0.1410
     71  CG       -37.3560  -63.1710  -40.7930 C.2   188  ASP188      0.3668
     72  OD1      -36.5810  -63.9070  -41.4380 O.co2 188  ASP188     -0.2456
     73  OD2      -36.9640  -62.3910  -39.8970 O.co2 188  ASP188     -0.2456
     74  N        -37.7630  -69.5100  -40.4140 N.3   190  ASP190     -0.1239
     75  CA       -36.5110  -70.2490  -40.3420 C.3   190  ASP190      0.1674
     76  C        -36.6550  -71.5430  -41.1350 C.2   190  ASP190      0.2266
     77  O        -37.7690  -72.0120  -41.3670 O.2   190  ASP190     -0.2867
     78  CB       -36.1410  -70.5540  -38.8910 C.3   190  ASP190      0.1410
     79  CG       -35.9190  -69.3020  -38.0710 C.2   190  ASP190      0.3668
     80  OD1      -35.5470  -68.2630  -38.6560 O.co2 190  ASP190     -0.2456
     81  OD2      -36.1150  -69.3560  -36.8380 O.co2 190  ASP190     -0.2456
     82  N        -38.4730  -74.3420  -39.3300 N.3   193  GLU193     -0.1245
     83  CA       -39.8820  -73.9870  -39.2120 C.3   193  GLU193      0.1567
     84  C        -40.6020  -74.3070  -40.5190 C.2   193  GLU193      0.2260
     85  O        -41.6930  -74.8760  -40.5140 O.2   193  GLU193     -0.2867
     86  CB       -40.0440  -72.5070  -38.8690 C.3   193  GLU193      0.0388
     87  CG       -39.5530  -72.1380  -37.4810 C.3   193  GLU193      0.1160
     88  CD       -39.7730  -70.6740  -37.1560 C.2   193  GLU193      0.3649
     89  OE1      -39.3710  -69.8140  -37.9680 O.co2 193  GLU193     -0.2457
     90  OE2      -40.3560  -70.3820  -36.0890 O.co2 193  GLU193     -0.2457
     91  N        -49.3270  -60.7660  -33.5740 N.3   239  ASP239     -0.1239
     92  CA       -48.0320  -60.1380  -33.3540 C.3   239  ASP239      0.1674
     93  C        -48.0150  -58.8230  -34.1210 C.2   239  ASP239      0.2266
     94  O        -48.2520  -58.7990  -35.3280 O.2   239  ASP239     -0.2867
     95  CB       -46.9060  -61.0490  -33.8380 C.3   239  ASP239      0.1410
     96  CG       -45.5320  -60.5880  -33.3760 C.2   239  ASP239      0.3668
     97  OD1      -45.3290  -59.3680  -33.1940 O.co2 239  ASP239     -0.2456
     98  OD2      -44.6500  -61.4540  -33.1950 O.co2 239  ASP239     -0.2456
     99  N        -45.7250  -57.1290  -35.1920 N.3   241  ASP241     -0.1239
    100  CA       -44.7170  -57.0620  -36.2500 C.3   241  ASP241      0.1674
    101  C        -45.2140  -57.6330  -37.5760 C.2   241  ASP241      0.2266
    102  O        -44.5350  -57.5320  -38.5950 O.2   241  ASP241     -0.2867
    103  CB       -43.3720  -57.6860  -35.8230 C.3   241  ASP241      0.1410
    104  CG       -43.4350  -59.2010  -35.6350 C.2   241  ASP241      0.3668
    105  OD1      -42.5900  -59.7280  -34.8800 O.co2 241  ASP241     -0.2456
    106  OD2      -44.2990  -59.8740  -36.2350 O.co2 241  ASP241     -0.2456
    107  N        -38.5680  -57.1580  -33.3840 N.3   253  THR253     -0.1218
    108  CA       -38.1050  -57.8540  -34.5770 C.3   253  THR253      0.1862
    109  C        -38.8950  -57.4280  -35.8080 C.2   253  THR253      0.2287
    110  O        -39.6060  -58.2330  -36.4120 O.2   253  THR253     -0.2866
    111  CB       -38.1850  -59.3840  -34.4060 C.3   253  THR253      0.1770
    112  OG1      -39.5130  -59.7530  -34.0170 O.3   253  THR253     -0.2211
    113  CG2      -37.2080  -59.8530  -33.3390 C.3   253  THR253      0.0375
    114  N        -45.7870  -58.2220  -28.5950 N.3   284  GLU284     -0.1245
    115  CA       -44.5540  -57.5940  -29.0800 C.3   284  GLU284      0.1567
    116  C        -44.5720  -56.0670  -29.2130 C.2   284  GLU284      0.2260
    117  O        -43.7860  -55.5050  -29.9760 O.2   284  GLU284     -0.2867
    118  CB       -44.0730  -58.2450  -30.3870 C.3   284  GLU284      0.0388
    119  CG       -43.8140  -59.7420  -30.2880 C.3   284  GLU284      0.1160
    120  CD       -42.6000  -60.0910  -29.4330 C.2   284  GLU284      0.3649
    121  OE1      -41.8110  -59.1810  -29.1010 O.co2 284  GLU284     -0.2457
    122  OE2      -42.4340  -61.2830  -29.0940 O.co2 284  GLU284     -0.2457
@<TRIPOS>BOND
     1    66    67    1
     2    67    68    1
     3    67    70    1
     4    72    71   ar
     5    77    76    2
     6    68    69    2
     7    76    75    1
     8    70    71    1
     9    71    73   ar
    10    84    85    2
    11    84    83    1
    12    74    75    1
    13    75    78    1
    14    82    83    1
    15    83    86    1
    16    78    79    1
    17    86    87    1
    18    80    79   ar
    19   102   101    2
    20     1     2    1
    21    79    81   ar
    22    89    88   ar
    23     2     3    1
    24     2     5    1
    25   101   100    1
    26     3     4    2
    27    87    88    1
    28     8    10   ar
    29     8     6   ar
    30    10     9   ar
    31    88    90   ar
    32     6     5    1
    33     6     7   ar
    34     9     7   ar
    35   110   109    2
    36   100   103    1
    37   100    99    1
    38   106   104   ar
    39   103   104    1
    40   109   108    1
    41   104   105   ar
    42    25    24    2
    43    94    93    2
    44    11    12    1
    45    26    24   am
    46   108   111    1
    47   108   107    1
    48    24    23    1
    49   111   112    1
    50   111   113    1
    51    37    34    1
    52    93    92    1
    53    95    96    1
    54    95    92    1
    55    12    13    1
    56    12    15    1
    57    91    92    1
    58    18    16   ar
    59    19    20    1
    60    20    23    1
    61    20    21    1
    62    96    98   ar
    63    96    97   ar
    64    13    14    2
    65    16    15    1
    66    16    17   ar
    67    34    33    1
    68    34    35    1
    69    33    29   am
    70    27    28    1
    71    21    22    2
    72    28    29    1
    73    28    31    1
    74    29    30    2
    75    65    64    2
    76    35    38   am
    77    35    36    2
    78    38    39    1
    79    63    64    1
    80    63    62    1
    81    42    39    1
    82    42    43    1
    83    31    32    1
    84    39    40    1
    85   118   119    1
    86   118   115    1
    87   119   120    1
    88    55    54    2
    89    60    61   ar
    90    60    58   ar
    91    61    59   ar
    92   117   116    2
    93    62    54   am
    94   120   121   ar
    95   120   122   ar
    96    54    53    1
    97    58    57   ar
    98    59    57   ar
    99    40    41    2
   100   116   115    1
   101   115   114    1
   102    51    49   am
   103    57    56    1
   104    47    46    2
   105    48    49    1
   106    48    45    1
   107    49    50    2
   108    56    53    1
   109    53    52    1
   110    44    45    1
   111    46    45    1
