@<TRIPOS>MOLECULE
tmp/4q40C00.pdb
 92 83 0 0 0
SMALL
GASTEIGER

@<TRIPOS>ATOM
      1  N        -82.5020   19.1900    1.2480 N.3   130  HIS130     -0.1241
      2  CA       -82.1020   20.3280    2.0740 C.3   130  HIS130      0.1621
      3  C        -81.7340   21.5440    1.2270 C.2   130  HIS130      0.2264
      4  O        -81.3670   21.4060    0.0580 O.2   130  HIS130     -0.2867
      5  CB       -80.8890   19.9320    2.9210 C.3   130  HIS130      0.0745
      6  CG       -81.0810   18.6590    3.6790 C.ar  130  HIS130      0.0817
      7  ND1      -80.6290   17.4400    3.2190 N.ar  130  HIS130     -0.2268
      8  CD2      -81.6850   18.4150    4.8660 C.ar  130  HIS130      0.1154
      9  CE1      -80.9470   16.4970    4.0920 C.ar  130  HIS130      0.1986
     10  NE2      -81.5870   17.0630    5.1020 N.ar  130  HIS130     -0.2212
     11  N        -79.1890   23.8170    1.8870 N.3   132  ASP132     -0.1239
     12  CA       -77.7410   23.9980    1.7900 C.3   132  ASP132      0.1674
     13  C        -77.3720   25.4600    1.5580 C.2   132  ASP132      0.2266
     14  O        -76.3750   25.7670    0.8890 O.2   132  ASP132     -0.2867
     15  CB       -77.1660   23.1240    0.6640 C.3   132  ASP132      0.1410
     16  CG       -77.1390   21.6470    1.0280 C.2   132  ASP132      0.3668
     17  OD1      -76.5520   20.8460    0.2670 O.co2 132  ASP132     -0.2456
     18  OD2      -77.7120   21.2710    2.0800 O.co2 132  ASP132     -0.2456
     19  N        -77.7760   27.8780    4.3030 N.3   134  ASN134     -0.1240
     20  CA       -77.6390   28.5620    5.5810 C.3   134  ASN134      0.1653
     21  C        -76.4820   29.5480    5.5260 C.2   134  ASN134      0.2266
     22  O        -75.4400   29.2520    4.9570 O.2   134  ASN134     -0.2867
     23  CB       -77.4190   27.5530    6.7090 C.3   134  ASN134      0.1155
     24  CG       -78.7190   27.1130    7.3340 C.2   134  ASN134      0.2627
     25  OD1      -79.6170   27.9330    7.5550 O.2   134  ASN134     -0.2716
     26  ND2      -78.8390   25.8270    7.6140 N.am  134  ASN134     -0.0877
     27  N        -76.5340   28.9340   11.0390 N.3   139  SER139     -0.1217
     28  CA       -76.3850   27.4830   11.0450 C.3   139  SER139      0.1889
     29  C        -76.4030   26.9220   12.4670 C.2   139  SER139      0.2288
     30  O        -75.5190   27.2180   13.2710 O.2   139  SER139     -0.2866
     31  CB       -75.0920   27.0740   10.3400 C.3   139  SER139      0.2089
     32  OG       -74.8710   25.6810   10.4920 O.3   139  SER139     -0.2183
     33  N        -76.0200   23.7590   13.0710 N.3   141  SER141     -0.1217
     34  CA       -75.0750   22.6310   13.0980 C.3   141  SER141      0.1889
     35  C        -73.6150   23.0470   12.9970 C.2   141  SER141      0.2288
     36  O        -72.7280   22.3550   13.5100 O.2   141  SER141     -0.2866
     37  CB       -75.3890   21.6280   11.9820 C.3   141  SER141      0.2089
     38  OG       -75.1380   22.1890   10.7010 O.3   141  SER141     -0.2183
     39  N        -72.1080   22.7810   10.3300 N.3   143  ASN143     -0.1240
     40  CA       -71.6020   21.8800    9.2900 C.3   143  ASN143      0.1653
     41  C        -71.5920   22.5510    7.9140 C.2   143  ASN143      0.2266
     42  O        -72.6450   22.9630    7.4100 O.2   143  ASN143     -0.2867
     43  CB       -72.4400   20.5990    9.2490 C.3   143  ASN143      0.1155
     44  CG       -72.3060   19.7780   10.5230 C.2   143  ASN143      0.2627
     45  OD1      -71.2700   19.8210   11.1910 O.2   143  ASN143     -0.2716
     46  ND2      -73.3420   19.0150   10.8570 N.am  143  ASN143     -0.0877
     47  N        -71.4570   21.6170    4.9070 N.3   145  HIS145     -0.1226
     48  CA       -72.2410   21.0450    3.8040 C.3   145  HIS145      0.1752
     49  C        -73.6760   21.5740    3.7800 C.2   145  HIS145      0.2596
     50  O        -74.4480   21.3020    2.8430 O.2   145  HIS145     -0.2718
     51  CB       -72.2070   19.5090    3.8440 C.3   145  HIS145      0.0759
     52  CG       -73.1330   18.8960    4.8540 C.ar  145  HIS145      0.0818
     53  ND1      -73.5890   17.5960    4.7500 N.ar  145  HIS145     -0.2268
     54  CD2      -73.6950   19.4010    5.9790 C.ar  145  HIS145      0.1154
     55  CE1      -74.3880   17.3270    5.7680 C.ar  145  HIS145      0.1986
     56  NE2      -74.4670   18.4050    6.5290 N.ar  145  HIS145     -0.2212
     57  N        -74.0300   22.3460    4.8050 N.am  146  GLY146     -0.1957
     58  CA       -75.3430   22.9720    4.8700 C.3   146  GLY146      0.1869
     59  C        -75.3240   24.4530    4.5290 C.2   146  GLY146      0.2309
     60  O        -76.3580   25.1350    4.6310 O.2   146  GLY146     -0.2863
     61  N        -86.7960   19.4640    4.0680 N.3   185  ASP185     -0.1239
     62  CA       -86.2550   19.7400    5.3970 C.3   185  ASP185      0.1674
     63  C        -85.4760   21.0560    5.4390 C.2   185  ASP185      0.2266
     64  O        -84.2920   21.0780    5.7780 O.2   185  ASP185     -0.2867
     65  CB       -85.3680   18.5750    5.8600 C.3   185  ASP185      0.1410
     66  CG       -85.1470   18.5680    7.3710 C.2   185  ASP185      0.3668
     67  OD1      -85.8440   19.3220    8.0840 O.co2 185  ASP185     -0.2456
     68  OD2      -84.2780   17.8020    7.8420 O.co2 185  ASP185     -0.2456
     69  N        -84.4170   24.6740    6.9250 N.3   187  ASP187     -0.1239
     70  CA       -84.3490   25.4390    8.1670 C.3   187  ASP187      0.1674
     71  C        -85.1100   26.7560    7.9690 C.2   187  ASP187      0.2266
     72  O        -85.1770   27.2670    6.8550 O.2   187  ASP187     -0.2867
     73  CB       -82.8910   25.7000    8.5730 C.3   187  ASP187      0.1410
     74  CG       -82.1390   24.4130    8.9170 C.2   187  ASP187      0.3668
     75  OD1      -82.7700   23.4790    9.4720 O.co2 187  ASP187     -0.2456
     76  OD2      -80.9240   24.3290    8.6280 O.co2 187  ASP187     -0.2456
     77  N        -83.4360   29.5340    5.9850 N.3   190  GLU190     -0.1245
     78  CA       -83.3630   29.2130    4.5540 C.3   190  GLU190      0.1567
     79  C        -84.6960   29.5210    3.8790 C.2   190  GLU190      0.2260
     80  O        -84.7380   30.1160    2.7980 O.2   190  GLU190     -0.2867
     81  CB       -83.0130   27.7440    4.3360 C.3   190  GLU190      0.0388
     82  CG       -81.6360   27.3580    4.8360 C.3   190  GLU190      0.1160
     83  CD       -81.3980   25.8700    4.7350 C.2   190  GLU190      0.3649
     84  OE1      -82.1860   25.1090    5.3390 O.co2 190  GLU190     -0.2457
     85  OE2      -80.4360   25.4600    4.0480 O.co2 190  GLU190     -0.2457
     86  N        -77.5590   12.4680    6.0650 N.3   250  THR250     -0.1218
     87  CA       -78.7490   13.1680    6.5470 C.3   250  THR250      0.1862
     88  C        -79.9830   12.7360    5.7550 C.2   250  THR250      0.2287
     89  O        -80.5230   13.5130    4.9700 O.2   250  THR250     -0.2866
     90  CB       -78.5740   14.7040    6.4980 C.3   250  THR250      0.1770
     91  OG1      -78.1480   15.1020    5.1910 O.3   250  THR250     -0.2211
     92  CG2      -77.5230   15.1630    7.5090 C.3   250  THR250      0.0375
@<TRIPOS>BOND
     1     4     3    2
     2    17    16   ar
     3    15    16    1
     4    15    12    1
     5    14    13    2
     6    16    18   ar
     7     3     2    1
     8     1     2    1
     9    13    12    1
    10    12    11    1
    11     2     5    1
    12    80    79    2
    13    50    49    2
    14     5     6    1
    15     7     6   ar
    16     7     9   ar
    17     6     8   ar
    18    49    48    1
    19    49    57   am
    20    48    51    1
    21    48    47    1
    22    51    52    1
    23    79    78    1
    24    85    83   ar
    25    61    62    1
    26     9    10   ar
    27    19    20    1
    28    81    78    1
    29    81    82    1
    30    59    60    2
    31    59    58    1
    32    78    77    1
    33    83    82    1
    34    83    84   ar
    35    53    52   ar
    36    53    55   ar
    37    57    58    1
    38    52    54   ar
    39     8    10   ar
    40    22    21    2
    41    89    88    2
    42    91    90    1
    43    62    63    1
    44    62    65    1
    45    63    64    2
    46    21    20    1
    47    20    23    1
    48    88    87    1
    49    55    56   ar
    50    65    66    1
    51    54    56   ar
    52    86    87    1
    53    90    87    1
    54    90    92    1
    55    23    24    1
    56    72    71    2
    57    69    70    1
    58    24    25    2
    59    24    26   am
    60    66    68   ar
    61    66    67   ar
    62    42    41    2
    63    41    40    1
    64    71    70    1
    65    70    73    1
    66    73    74    1
    67    76    74   ar
    68    74    75   ar
    69    43    40    1
    70    43    44    1
    71    40    39    1
    72    31    32    1
    73    31    28    1
    74    44    46   am
    75    44    45    2
    76    38    37    1
    77    27    28    1
    78    28    29    1
    79    37    34    1
    80    29    30    2
    81    35    34    1
    82    35    36    2
    83    33    34    1
