@<TRIPOS>MOLECULE
tmp/4q42A00.pdb
 130 119 0 0 0
SMALL
GASTEIGER

@<TRIPOS>ATOM
      1  N        -64.5170   -1.5330    0.7730 N.3   130  HIS130     -0.1241
      2  CA       -63.4330   -1.3630   -0.2160 C.3   130  HIS130      0.1621
      3  C        -62.0680   -1.0600    0.4290 C.2   130  HIS130      0.2264
      4  O        -62.0000   -0.5540    1.5480 O.2   130  HIS130     -0.2867
      5  CB       -63.7810   -0.2220   -1.1820 C.3   130  HIS130      0.0745
      6  CG       -65.1510   -0.3230   -1.7800 C.ar  130  HIS130      0.0817
      7  ND1      -66.2280    0.3850   -1.2960 N.ar  130  HIS130     -0.2268
      8  CD2      -65.6160   -1.0380   -2.8320 C.ar  130  HIS130      0.1154
      9  CE1      -67.3000    0.1060   -2.0160 C.ar  130  HIS130      0.1986
     10  NE2      -66.9540   -0.7530   -2.9590 N.ar  130  HIS130     -0.2212
     11  N        -59.6900    1.0720   -0.8010 N.3   132  ASP132     -0.1239
     12  CA       -59.3220    2.4810   -0.9860 C.3   132  ASP132      0.1674
     13  C        -57.8050    2.6860   -1.0090 C.2   132  ASP132      0.2266
     14  O        -57.2820    3.6940   -0.5200 O.2   132  ASP132     -0.2867
     15  CB       -59.9750    3.3460    0.1000 C.3   132  ASP132      0.1410
     16  CG       -61.4750    3.4620   -0.0810 C.2   132  ASP132      0.3668
     17  OD1      -62.1300    4.1800    0.7020 O.co2 132  ASP132     -0.2456
     18  OD2      -62.0070    2.8400   -1.0260 O.co2 132  ASP132     -0.2456
     19  N        -55.8470    1.6480   -3.9850 N.3   134  ASN134     -0.1240
     20  CA       -55.3270    1.5940   -5.3440 C.3   134  ASN134      0.1653
     21  C        -54.2600    2.6550   -5.5920 C.2   134  ASN134      0.2266
     22  O        -54.4380    3.8150   -5.2300 O.2   134  ASN134     -0.2867
     23  CB       -56.4440    1.7980   -6.3520 C.3   134  ASN134      0.1155
     24  CG       -57.1470    0.5140   -6.6950 C.2   134  ASN134      0.2627
     25  OD1      -56.5080   -0.4920   -7.0310 O.2   134  ASN134     -0.2716
     26  ND2      -58.4690    0.5330   -6.6230 N.am  134  ASN134     -0.0877
     27  N        -55.6180    1.9920  -10.9930 N.3   139  SER139     -0.1202
     28  CA       -57.0160    2.3540  -10.8130 C.3   139  SER139      0.2020
     29  C        -57.7640    2.2970  -12.1340 C.2   139  SER139      0.2619
     30  O        -57.4080    2.9910  -13.0790 O.2   139  SER139     -0.2717
     31  CB       -57.1330    3.7560  -10.2280 C.3   139  SER139      0.2103
     32  OG       -58.4780    4.2020  -10.2920 O.3   139  SER139     -0.2182
     33  N        -58.8080    1.4830  -12.1970 N.am  140  ALA140     -0.1965
     34  CA       -59.6140    1.4030  -13.4050 C.3   140  ALA140      0.1728
     35  C        -60.4750    2.6440  -13.5940 C.2   140  ALA140      0.2616
     36  O        -60.8130    2.9990  -14.7180 O.2   140  ALA140     -0.2715
     37  CB       -60.4830    0.1450  -13.3950 C.3   140  ALA140      0.0334
     38  N        -60.8280    3.3140  -12.4990 N.am  141  SER141     -0.1950
     39  CA       -61.7920    4.4080  -12.5760 C.3   141  SER141      0.1924
     40  C        -61.1540    5.7920  -12.6250 C.2   141  SER141      0.2314
     41  O        -61.7500    6.7260  -13.1430 O.2   141  SER141     -0.2863
     42  CB       -62.7440    4.3520  -11.3810 C.3   141  SER141      0.2116
     43  OG       -62.0330    4.5890  -10.1750 O.3   141  SER141     -0.2180
     44  N        -60.9010    7.4580   -9.9960 N.3   143  ASN143     -0.1240
     45  CA       -61.5800    8.1570   -8.9000 C.3   143  ASN143      0.1653
     46  C        -60.7250    8.2040   -7.6430 C.2   143  ASN143      0.2266
     47  O        -60.3520    7.1600   -7.1000 O.2   143  ASN143     -0.2867
     48  CB       -62.9310    7.5010   -8.5880 C.3   143  ASN143      0.1155
     49  CG       -63.9040    7.5820   -9.7540 C.2   143  ASN143      0.2627
     50  OD1      -63.8120    8.4820  -10.5900 O.2   143  ASN143     -0.2716
     51  ND2      -64.8430    6.6380   -9.8130 N.am  143  ASN143     -0.0877
     52  N        -61.3270    8.7960   -4.5470 N.3   145  HIS145     -0.1226
     53  CA       -61.8560    8.1720   -3.3250 C.3   145  HIS145      0.1752
     54  C        -61.4930    6.6890   -3.2250 C.2   145  HIS145      0.2597
     55  O        -61.6990    6.0590   -2.1840 O.2   145  HIS145     -0.2718
     56  CB       -63.3720    8.3990   -3.1810 C.3   145  HIS145      0.0759
     57  CG       -64.2230    7.4620   -3.9910 C.ar  145  HIS145      0.0818
     58  ND1      -65.5040    7.1160   -3.6190 N.ar  145  HIS145     -0.2268
     59  CD2      -63.9870    6.8160   -5.1590 C.ar  145  HIS145      0.1154
     60  CE1      -66.0200    6.2930   -4.5150 C.ar  145  HIS145      0.1986
     61  NE2      -65.1180    6.0930   -5.4610 N.ar  145  HIS145     -0.2212
     62  N        -60.9390    6.1400   -4.3060 N.am  146  GLY146     -0.1942
     63  CA       -60.4570    4.7660   -4.3100 C.3   146  GLY146      0.2014
     64  C        -58.9530    4.6450   -4.0960 C.2   146  GLY146      0.2638
     65  O        -58.3960    3.5380   -4.1580 O.2   146  GLY146     -0.2714
     66  N        -58.2930    5.7740   -3.8330 N.am  147  MET147     -0.1976
     67  CA       -56.8300    5.7960   -3.6750 C.3   147  MET147      0.1605
     68  C        -56.2970    6.4520   -2.3890 C.2   147  MET147      0.2287
     69  O        -55.0810    6.5480   -2.2120 O.2   147  MET147     -0.2864
     70  CB       -56.1760    6.5310   -4.8660 C.3   147  MET147      0.0413
     71  CG       -56.6800    6.1280   -6.2560 C.3   147  MET147      0.0598
     72  SD       -55.7900    7.0150   -7.5770 S.3   147  MET147     -0.1393
     73  CE       -57.0930    7.1910   -8.7900 C.3   147  MET147      0.0692
     74  N        -65.1350   -6.0850   -1.5100 N.3   185  ASP185     -0.1239
     75  CA       -64.9770   -5.7320   -2.9250 C.3   185  ASP185      0.1674
     76  C        -63.5840   -5.1460   -3.2180 C.2   185  ASP185      0.2266
     77  O        -63.4690   -3.9950   -3.6330 O.2   185  ASP185     -0.2867
     78  CB       -66.0530   -4.7210   -3.3530 C.3   185  ASP185      0.1410
     79  CG       -66.2430   -4.6610   -4.8780 C.2   185  ASP185      0.3668
     80  OD1      -65.6490   -5.4770   -5.6000 O.co2 185  ASP185     -0.2456
     81  OD2      -67.0090   -3.8050   -5.3540 O.co2 185  ASP185     -0.2456
     82  N        -60.1700   -4.7410   -5.3540 N.3   187  ASP187     -0.1239
     83  CA       -59.5660   -4.9050   -6.6730 C.3   187  ASP187      0.1674
     84  C        -58.3420   -5.8140   -6.5370 C.2   187  ASP187      0.2266
     85  O        -57.6880   -5.8230   -5.4970 O.2   187  ASP187     -0.2867
     86  CB       -59.1440   -3.5460   -7.2400 C.3   187  ASP187      0.1410
     87  CG       -60.3280   -2.6210   -7.4950 C.2   187  ASP187      0.3668
     88  OD1      -61.4650   -3.1230   -7.6480 O.co2 187  ASP187     -0.2456
     89  OD2      -60.1250   -1.3860   -7.5500 O.co2 187  ASP187     -0.2456
     90  N        -55.1390   -4.2830   -5.2140 N.3   190  GLU190     -0.1245
     91  CA       -55.2240   -4.0060   -3.7740 C.3   190  GLU190      0.1567
     92  C        -54.9300   -5.2600   -2.9490 C.2   190  GLU190      0.2260
     93  O        -54.1730   -5.2260   -1.9770 O.2   190  GLU190     -0.2867
     94  CB       -56.6080   -3.4600   -3.4180 C.3   190  GLU190      0.0388
     95  CG       -56.9200   -2.1080   -4.0570 C.3   190  GLU190      0.1160
     96  CD       -58.2940   -1.6030   -3.6650 C.2   190  GLU190      0.3649
     97  OE1      -59.2900   -2.2600   -4.0300 O.co2 190  GLU190     -0.2457
     98  OE2      -58.3790   -0.5620   -2.9820 O.co2 190  GLU190     -0.2457
     99  N        -66.3350    4.1910    6.4450 N.3   236  ASP236     -0.1239
    100  CA       -67.0900    4.4010    5.2110 C.3   236  ASP236      0.1674
    101  C        -68.4980    3.8650    5.4630 C.2   236  ASP236      0.2266
    102  O        -68.6630    2.6960    5.8150 O.2   236  ASP236     -0.2867
    103  CB       -66.4330    3.6260    4.0410 C.3   236  ASP236      0.1410
    104  CG       -67.0380    3.9640    2.6720 C.2   236  ASP236      0.3668
    105  OD1      -68.2430    4.2700    2.6000 O.co2 236  ASP236     -0.2456
    106  OD2      -66.3050    3.9080    1.6480 O.co2 236  ASP236     -0.2456
    107  N        -70.5520    2.8170    3.5510 N.3   238  ASP238     -0.1239
    108  CA       -70.8210    1.6470    2.7050 C.3   238  ASP238      0.1674
    109  C        -70.2680    0.3110    3.2420 C.2   238  ASP238      0.2266
    110  O        -70.5000   -0.7620    2.6580 O.2   238  ASP238     -0.2867
    111  CB       -70.4490    1.8950    1.2230 C.3   238  ASP238      0.1410
    112  CG       -68.9570    1.8310    0.9530 C.2   238  ASP238      0.3668
    113  OD1      -68.5170    2.4300   -0.0630 O.co2 238  ASP238     -0.2456
    114  OD2      -68.2170    1.1900    1.7290 O.co2 238  ASP238     -0.2456
    115  N        -71.2600    3.6160   -3.8120 N.3   250  THR250     -0.1218
    116  CA       -70.7540    2.3020   -4.1990 C.3   250  THR250      0.1862
    117  C        -71.2040    1.2550   -3.1800 C.2   250  THR250      0.2287
    118  O        -70.4030    0.7380   -2.3940 O.2   250  THR250     -0.2866
    119  CB       -69.2160    2.2950   -4.3480 C.3   250  THR250      0.1770
    120  OG1      -68.6180    2.7870   -3.1420 O.3   250  THR250     -0.2211
    121  CG2      -68.7920    3.2030   -5.4920 C.3   250  THR250      0.0375
    122  N        -68.7820    9.1040    2.6780 N.3   281  GLU281     -0.1245
    123  CA       -69.6070    8.5840    1.5890 C.3   281  GLU281      0.1567
    124  C        -71.1290    8.6570    1.7640 C.2   281  GLU281      0.2260
    125  O        -71.8650    8.0280    1.0080 O.2   281  GLU281     -0.2867
    126  CB       -69.1710    7.1560    1.2150 C.3   281  GLU281      0.0388
    127  CG       -67.7060    7.0460    0.7360 C.3   281  GLU281      0.1160
    128  CD       -67.4670    7.6610   -0.6530 C.2   281  GLU281      0.3649
    129  OE1      -68.4490    7.9800   -1.3480 O.co2 281  GLU281     -0.2457
    130  OE2      -66.2920    7.8150   -1.0570 O.co2 281  GLU281     -0.2457
@<TRIPOS>BOND
     1    36    35    2
     2    35    34    1
     3    35    38   am
     4    34    37    1
     5    34    33    1
     6    41    40    2
     7    30    29    2
     8    40    39    1
     9    39    38    1
    10    39    42    1
    11    33    29   am
    12    29    28    1
    13    42    43    1
    14    27    28    1
    15    28    31    1
    16    50    49    2
    17    32    31    1
    18    44    45    1
    19    51    49   am
    20    49    48    1
    21    45    48    1
    22    45    46    1
    23    73    72    1
    24    88    87   ar
    25    46    47    2
    26    72    71    1
    27    89    87   ar
    28    87    86    1
    29    86    83    1
    30    25    24    2
    31    24    26   am
    32    24    23    1
    33    83    84    1
    34    83    82    1
    35    84    85    2
    36    23    20    1
    37    71    70    1
    38    80    79   ar
    39    21    20    1
    40    21    22    2
    41   121   119    1
    42    61    59   ar
    43    61    60   ar
    44    81    79   ar
    45    20    19    1
    46    90    91    1
    47    59    57   ar
    48    79    78    1
    49    70    67    1
    50    52    53    1
    51    60    58   ar
    52   119   116    1
    53   119   120    1
    54    63    62    1
    55    63    64    1
    56    62    54   am
    57   116   115    1
    58   116   117    1
    59    65    64    2
    60    64    66   am
    61    95    96    1
    62    95    94    1
    63    97    96   ar
    64    57    58   ar
    65    57    56    1
    66    66    67    1
    67    91    94    1
    68    91    92    1
    69    67    68    1
    70    96    98   ar
    71    77    76    2
    72    78    75    1
    73    53    54    1
    74    53    56    1
    75    54    55    2
    76    76    75    1
    77   117   118    2
    78    10     8   ar
    79    10     9   ar
    80    92    93    2
    81    75    74    1
    82     8     6   ar
    83    68    69    2
    84     9     7   ar
    85     6     7   ar
    86     6     5    1
    87   129   128   ar
    88     5     2    1
    89   130   128   ar
    90    18    16   ar
    91    13    12    1
    92    13    14    2
    93    12    11    1
    94    12    15    1
    95   128   127    1
    96     2     3    1
    97     2     1    1
    98    16    15    1
    99    16    17   ar
   100   113   112   ar
   101     3     4    2
   102   127   126    1
   103   112   111    1
   104   112   114   ar
   105   125   124    2
   106   126   123    1
   107   111   108    1
   108   123   124    1
   109   123   122    1
   110   106   104   ar
   111   105   104   ar
   112   110   109    2
   113   104   103    1
   114   108   109    1
   115   108   107    1
   116   103   100    1
   117   100   101    1
   118   100    99    1
   119   101   102    2
