@<TRIPOS>MOLECULE
tmp/4q43B00.pdb
 158 153 0 0 0
SMALL
GASTEIGER

@<TRIPOS>ATOM
      1  N         38.3260  -14.9240   69.4010 N.3     9  ASP9       -0.1225
      2  CA        37.0860  -15.6710   69.1660 C.3     9  ASP9        0.1805
      3  C         36.9890  -16.8940   70.1000 C.2     9  ASP9        0.2598
      4  O         37.8010  -17.8180   70.0070 O.2     9  ASP9       -0.2718
      5  CB        37.0700  -16.1220   67.6940 C.3     9  ASP9        0.1424
      6  CG        35.7180  -16.6540   67.2300 C.2     9  ASP9        0.3668
      7  OD1       35.0300  -17.3380   68.0080 O.co2   9  ASP9       -0.2456
      8  OD2       35.3430  -16.4060   66.0580 O.co2   9  ASP9       -0.2456
      9  N         36.0000  -16.8990   70.9920 N.am   10  MET10      -0.1965
     10  CA        35.7360  -18.0630   71.8470 C.3    10  MET10       0.1736
     11  C         35.4220  -19.3150   71.0280 C.2    10  MET10       0.2616
     12  O         34.7980  -19.2290   69.9660 O.2    10  MET10      -0.2715
     13  CB        34.5690  -17.7800   72.7880 C.3    10  MET10       0.0427
     14  CG        34.7530  -16.5310   73.5900 C.3    10  MET10       0.0599
     15  SD        36.2330  -16.6350   74.6000 S.3    10  MET10      -0.1393
     16  CE        35.6350  -17.7860   75.8450 C.3    10  MET10       0.0692
     17  N         35.8570  -20.4740   71.5140 N.am   11  ASP11      -0.1957
     18  CA        35.5980  -21.7320   70.8010 C.3    11  ASP11       0.1840
     19  C         34.2620  -22.2910   71.2320 C.2    11  ASP11       0.2622
     20  O         33.9660  -22.2760   72.4230 O.2    11  ASP11      -0.2715
     21  CB        36.6850  -22.7590   71.1020 C.3    11  ASP11       0.1450
     22  CG        38.0880  -22.2350   70.8160 C.2    11  ASP11       0.3671
     23  OD1       38.3170  -21.6720   69.7170 O.co2  11  ASP11      -0.2456
     24  OD2       38.9710  -22.3940   71.6910 O.co2  11  ASP11      -0.2456
     25  N         33.4640  -22.7680   70.2750 N.am   12  CYS12      -0.1954
     26  CA        32.1480  -23.3850   70.5550 C.3    12  CYS12       0.1843
     27  C         31.3970  -22.7050   71.6950 C.2    12  CYS12       0.2625
     28  O         30.9330  -23.3700   72.6270 O.2    12  CYS12      -0.2714
     29  CB        32.3040  -24.8810   70.8600 C.3    12  CYS12       0.0997
     30  SG        32.9250  -25.8220   69.4510 S.3    12  CYS12      -0.0797
     31  N         31.2940  -21.3790   71.6020 N.am   13  PHE13      -0.1960
     32  CA        31.0240  -20.5160   72.7490 C.3    13  PHE13       0.1771
     33  C         29.9060  -20.9720   73.6770 C.2    13  PHE13       0.2619
     34  O         30.1290  -21.2550   74.8710 O.2    13  PHE13      -0.2715
     35  CB        30.7960  -19.0600   72.3000 C.3    13  PHE13       0.0574
     36  CG        30.6490  -18.1050   73.4400 C.ar   13  PHE13      -0.0200
     37  CD1       31.5310  -18.1550   74.5080 C.ar   13  PHE13      -0.0042
     38  CD2       29.6170  -17.1720   73.4680 C.ar   13  PHE13      -0.0042
     39  CE1       31.3940  -17.2820   75.5990 C.ar   13  PHE13      -0.0003
     40  CE2       29.4850  -16.2830   74.5430 C.ar   13  PHE13      -0.0003
     41  CZ        30.3700  -16.3390   75.6130 C.ar   13  PHE13      -0.0000
     42  N         28.6980  -21.0410   73.1440 N.am   14  PHE14      -0.1974
     43  CA        27.5630  -21.4060   73.9750 C.3    14  PHE14       0.1639
     44  C         27.7750  -22.8150   74.5120 C.2    14  PHE14       0.2290
     45  O         27.6830  -23.0530   75.7300 O.2    14  PHE14      -0.2864
     46  CB        26.2710  -21.3520   73.1730 C.3    14  PHE14       0.0560
     47  CG        25.8450  -19.9710   72.7930 C.ar   14  PHE14      -0.0200
     48  CD1       26.5890  -18.8570   73.1660 C.ar   14  PHE14      -0.0042
     49  CD2       24.6650  -19.7800   72.0810 C.ar   14  PHE14      -0.0042
     50  CE1       26.1630  -17.5750   72.8180 C.ar   14  PHE14      -0.0003
     51  CE2       24.2330  -18.4920   71.7340 C.ar   14  PHE14      -0.0003
     52  CZ        24.9790  -17.3970   72.1020 C.ar   14  PHE14      -0.0000
     53  N         21.7890  -23.2290   67.0050 N.3    43  SER43      -0.1202
     54  CA        22.6530  -22.0710   67.2240 C.3    43  SER43       0.2020
     55  C         24.0920  -22.5340   67.0590 C.2    43  SER43       0.2619
     56  O         24.7710  -22.1680   66.1000 O.2    43  SER43      -0.2717
     57  CB        22.4370  -21.4910   68.6210 C.3    43  SER43       0.2103
     58  OG        22.4550  -20.0740   68.5940 O.3    43  SER43      -0.2182
     59  N         24.5450  -23.3580   67.9980 N.am   44  THR44      -0.1952
     60  CA        25.8990  -23.9280   67.9320 C.3    44  THR44       0.1897
     61  C         25.9630  -25.3780   68.4250 C.2    44  THR44       0.2313
     62  O         25.0190  -25.8840   69.0330 O.2    44  THR44      -0.2863
     63  CB        26.9300  -23.0850   68.7150 C.3    44  THR44       0.1794
     64  OG1       28.2590  -23.5470   68.4350 O.3    44  THR44      -0.2208
     65  CG2       26.6760  -23.1680   70.2060 C.3    44  THR44       0.0378
     66  N         32.2160  -30.0420   69.6010 N.3    47  TYR47      -0.1241
     67  CA        32.9810  -30.8300   68.6250 C.3    47  TYR47       0.1605
     68  C         32.4810  -32.2690   68.3930 C.2    47  TYR47       0.2264
     69  O         32.3550  -32.6950   67.2240 O.2    47  TYR47      -0.2867
     70  CB        34.4970  -30.7390   68.8660 C.3    47  TYR47       0.0534
     71  CG        35.0910  -29.4910   68.2330 C.ar   47  TYR47      -0.0201
     72  CD1       35.3290  -29.4330   66.8650 C.ar   47  TYR47      -0.0009
     73  CD2       35.3680  -28.3580   68.9950 C.ar   47  TYR47      -0.0009
     74  CE1       35.8550  -28.2990   66.2700 C.ar   47  TYR47       0.0417
     75  CE2       35.8970  -27.2120   68.4080 C.ar   47  TYR47       0.0417
     76  CZ        36.1360  -27.1930   67.0440 C.ar   47  TYR47       0.1957
     77  OH        36.6610  -26.0690   66.4550 O.3    47  TYR47      -0.2866
     78  N         29.7160  -31.7650   65.9450 N.3    50  ARG50      -0.1245
     79  CA        30.1670  -31.3210   64.6300 C.3    50  ARG50       0.1563
     80  C         30.7010  -32.4990   63.8310 C.2    50  ARG50       0.2260
     81  O         30.5540  -32.5560   62.6010 O.2    50  ARG50      -0.2867
     82  CB        31.2400  -30.2430   64.7680 C.3    50  ARG50       0.0307
     83  CG        30.6950  -28.8780   65.1200 C.3    50  ARG50       0.0489
     84  CD        31.7230  -28.0910   65.8740 C.3    50  ARG50       0.2205
     85  NE        31.1740  -26.8570   66.4090 N.pl3  50  ARG50      -0.0865
     86  CZ        31.7000  -25.6540   66.2230 C.cat  50  ARG50       0.5346
     87  NH1       32.8180  -25.5250   65.5170 N.pl3  50  ARG50       0.1354
     88  NH2       31.1050  -24.5860   66.7590 N.pl3  50  ARG50       0.1354
     89  N         26.1570  -24.6500   62.8420 N.3    56  SER56      -0.1202
     90  CA        25.3340  -23.4910   63.2040 C.3    56  SER56       0.2020
     91  C         24.3560  -23.2360   62.0670 C.2    56  SER56       0.2618
     92  O         24.6670  -23.5400   60.9190 O.2    56  SER56      -0.2717
     93  CB        26.1990  -22.2390   63.4020 C.3    56  SER56       0.2103
     94  OG        26.6710  -22.1320   64.7420 O.3    56  SER56      -0.2182
     95  N         23.1750  -22.7110   62.3850 N.am   57  ALA57      -0.1979
     96  CA        22.1830  -22.3140   61.3730 C.3    57  ALA57       0.1597
     97  C         21.5400  -23.4810   60.6390 C.2    57  ALA57       0.2287
     98  O         20.7680  -23.2840   59.7000 O.2    57  ALA57      -0.2864
     99  CB        22.7670  -21.2980   60.3760 C.3    57  ALA57       0.0319
    100  N         21.2850  -17.2300   78.1150 N.3    77  PHE77      -0.1241
    101  CA        21.9220  -16.0110   77.6460 C.3    77  PHE77       0.1605
    102  C         22.5640  -15.1310   78.7150 C.2    77  PHE77       0.2264
    103  O         23.4670  -14.3580   78.4110 O.2    77  PHE77      -0.2867
    104  CB        20.9770  -15.2110   76.7350 C.3    77  PHE77       0.0534
    105  CG        20.9400  -15.7260   75.3110 C.ar   77  PHE77      -0.0203
    106  CD1       20.1860  -16.8580   74.9770 C.ar   77  PHE77      -0.0042
    107  CD2       21.6910  -15.1030   74.3140 C.ar   77  PHE77      -0.0042
    108  CE1       20.1600  -17.3520   73.6690 C.ar   77  PHE77      -0.0003
    109  CE2       21.6770  -15.5840   73.0020 C.ar   77  PHE77      -0.0003
    110  CZ        20.9090  -16.7170   72.6780 C.ar   77  PHE77      -0.0000
    111  N         30.2570   -9.2410   68.6490 N.3   102  SER102     -0.1202
    112  CA        29.1900  -10.0930   69.1450 C.3   102  SER102      0.2020
    113  C         29.5890  -10.4660   70.5580 C.2   102  SER102      0.2619
    114  O         30.5920   -9.9620   71.0660 O.2   102  SER102     -0.2717
    115  CB        29.0770  -11.3480   68.2960 C.3   102  SER102      0.2103
    116  OG        30.3110  -12.0550   68.2820 O.3   102  SER102     -0.2182
    117  N         28.8340  -11.3610   71.1830 N.am  103  LEU103     -0.1965
    118  CA        29.1580  -11.8150   72.5360 C.3   103  LEU103      0.1728
    119  C         30.5720  -12.4070   72.6550 C.2   103  LEU103      0.2616
    120  O         31.2900  -12.1170   73.6090 O.2   103  LEU103     -0.2715
    121  CB        28.0970  -12.8110   73.0390 C.3   103  LEU103      0.0311
    122  CG        26.7150  -12.2090   73.3560 C.3   103  LEU103      0.0022
    123  CD1       25.6620  -13.2870   73.5840 C.3   103  LEU103      0.0001
    124  CD2       26.7850  -11.2870   74.5740 C.3   103  LEU103      0.0001
    125  N         30.9860  -13.2010   71.6680 N.am  104  ASP104     -0.1957
    126  CA        32.2310  -13.9700   71.7760 C.3   104  ASP104      0.1840
    127  C         33.3730  -13.5550   70.8370 C.2   104  ASP104      0.2621
    128  O         34.3760  -14.2640   70.7380 O.2   104  ASP104     -0.2715
    129  CB        31.9480  -15.4660   71.5800 C.3   104  ASP104      0.1450
    130  CG        32.1520  -15.9230   70.1330 C.2   104  ASP104      0.3671
    131  OD1       31.5960  -15.2740   69.2230 O.co2 104  ASP104     -0.2456
    132  OD2       32.8790  -16.9300   69.9040 O.co2 104  ASP104     -0.2456
    133  N         33.2280  -12.4380   70.1290 N.am  105  GLU105     -0.1977
    134  CA        34.2840  -12.0080   69.1970 C.3   105  GLU105      0.1602
    135  C         34.6650  -10.5310   69.3970 C.2   105  GLU105      0.2287
    136  O         33.8130   -9.6790   69.6980 O.2   105  GLU105     -0.2864
    137  CB        33.8830  -12.2690   67.7180 C.3   105  GLU105      0.0415
    138  CG        33.4880  -13.7220   67.3640 C.3   105  GLU105      0.1163
    139  CD        33.3000  -13.9660   65.8540 C.2   105  GLU105      0.3649
    140  OE1       33.4540  -12.9920   65.0820 O.co2 105  GLU105     -0.2457
    141  OE2       33.0170  -15.1340   65.4420 O.co2 105  GLU105     -0.2457
    142  N         40.3700  -18.4950   62.6200 N.3   155  ASP155     -0.1239
    143  CA        39.7600  -19.7770   62.2650 C.3   155  ASP155      0.1674
    144  C         40.7900  -20.8240   61.8340 C.2   155  ASP155      0.2266
    145  O         40.4410  -21.9760   61.5840 O.2   155  ASP155     -0.2867
    146  CB        38.7170  -19.5810   61.1570 C.3   155  ASP155      0.1410
    147  CG        37.3530  -19.1880   61.6990 C.2   155  ASP155      0.3668
    148  OD1       37.2550  -18.8760   62.9090 O.co2 155  ASP155     -0.2456
    149  OD2       36.3770  -19.1900   60.9160 O.co2 155  ASP155     -0.2456
    150  N         41.9010  -23.1740   65.1910 N.3   158  LYS158     -0.1245
    151  CA        40.8200  -23.4310   66.1340 C.3   158  LYS158      0.1561
    152  C         40.6750  -24.9470   66.3500 C.2   158  LYS158      0.2260
    153  O         40.7470  -25.7200   65.3920 O.2   158  LYS158     -0.2867
    154  CB        39.5100  -22.8540   65.5720 C.3   158  LYS158      0.0271
    155  CG        38.6840  -22.0970   66.5790 C.3   158  LYS158      0.0035
    156  CD        37.4900  -21.4020   65.9200 C.3   158  LYS158      0.0206
    157  CE        37.1590  -20.0870   66.6300 C.3   158  LYS158      0.1093
    158  NZ        36.6250  -20.2930   68.0190 N.3   158  LYS158     -0.1314
@<TRIPOS>BOND
     1    98    97    2
     2    99    96    1
     3    97    96    1
     4   149   147   ar
     5    92    91    2
     6   146   147    1
     7   146   143    1
     8    96    95    1
     9   145   144    2
    10   147   148   ar
    11   144   143    1
    12    91    95   am
    13    91    90    1
    14   143   142    1
    15    81    80    2
    16    89    90    1
    17    90    93    1
    18    93    94    1
    19    80    79    1
    20    79    82    1
    21    79    78    1
    22    82    83    1
    23   140   139   ar
    24    83    84    1
    25   150   151    1
    26   153   152    2
    27   141   139   ar
    28    87    86    1
    29   154   151    1
    30   154   155    1
    31   139   138    1
    32    84    85    1
    33   156   155    1
    34   156   157    1
    35     8     6   ar
    36    56    55    2
    37   151   152    1
    38    86    85    2
    39    86    88    1
    40    74    72   ar
    41    74    76   ar
    42    77    76    1
    43   157   158    1
    44    72    71   ar
    45    53    54    1
    46    76    75   ar
    47    55    54    1
    48    55    59   am
    49    54    57    1
    50    69    68    2
    51     6     5    1
    52     6     7   ar
    53   138   137    1
    54     5     2    1
    55   137   134    1
    56    60    59    1
    57    60    61    1
    58    60    63    1
    59    71    70    1
    60    71    73   ar
    61   116   115    1
    62   115   112    1
    63    68    67    1
    64    75    73   ar
    65    61    62    2
    66    64    63    1
    67    58    57    1
    68    67    70    1
    69    67    66    1
    70   111   112    1
    71    63    65    1
    72   112   113    1
    73     2     1    1
    74     2     3    1
    75   134   135    1
    76   134   133    1
    77   131   130   ar
    78   135   136    2
    79    30    29    1
    80    23    22   ar
    81   132   130   ar
    82    12    11    2
    83     4     3    2
    84     3     9   am
    85   133   127   am
    86   130   129    1
    87    25    26    1
    88    25    19   am
    89    26    29    1
    90    26    27    1
    91   113   114    2
    92   113   117   am
    93   128   127    2
    94    18    21    1
    95    18    19    1
    96    18    17    1
    97    22    21    1
    98    22    24   ar
    99   127   126    1
   100     9    10    1
   101    11    17   am
   102    11    10    1
   103   117   118    1
   104    19    20    2
   105   129   126    1
   106    31    27   am
   107    31    32    1
   108   125   126    1
   109   125   119   am
   110    27    28    2
   111    51    49   ar
   112    51    52   ar
   113    10    13    1
   114    49    47   ar
   115    52    50   ar
   116    35    32    1
   117    35    36    1
   118   118   119    1
   119   118   121    1
   120   119   120    2
   121   110   109   ar
   122   110   108   ar
   123    32    33    1
   124    13    14    1
   125    47    48   ar
   126    47    46    1
   127    50    48   ar
   128   109   107   ar
   129   121   122    1
   130    42    33   am
   131    42    43    1
   132    46    43    1
   133   122   123    1
   134   122   124    1
   135    36    38   ar
   136    36    37   ar
   137    38    40   ar
   138    14    15    1
   139   108   106   ar
   140    33    34    2
   141    43    44    1
   142   107   105   ar
   143    37    39   ar
   144    44    45    2
   145    40    41   ar
   146    15    16    1
   147   106   105   ar
   148   105   104    1
   149    39    41   ar
   150   104   101    1
   151   101   100    1
   152   101   102    1
   153   103   102    2
