@<TRIPOS>MOLECULE
tmp/4q47A00.pdb
 120 119 0 0 0
SMALL
GASTEIGER

@<TRIPOS>ATOM
      1  N        -25.7860    4.3560   17.1100 N.3    12  LEU12      -0.1245
      2  CA       -25.5350    3.2270   16.2300 C.3    12  LEU12       0.1561
      3  C        -26.2700    1.9890   16.7280 C.2    12  LEU12       0.2260
      4  O        -26.8740    1.2430   15.9560 O.2    12  LEU12      -0.2867
      5  CB       -24.0410    2.9490   16.1310 C.3    12  LEU12       0.0270
      6  CG       -23.6840    1.9420   15.0450 C.3    12  LEU12       0.0019
      7  CD1      -24.3330    2.3500   13.7460 C.3    12  LEU12       0.0001
      8  CD2      -22.1800    1.8240   14.8820 C.3    12  LEU12       0.0001
      9  N        -26.5230   -1.8580   14.5150 N.3    18  TYR18      -0.1228
     10  CA       -25.1480   -2.2640   14.2610 C.3    18  TYR18       0.1721
     11  C        -24.3540   -2.1350   15.5600 C.2    18  TYR18       0.2437
     12  O        -24.5800   -1.2050   16.3510 O.2    18  TYR18      -0.2733
     13  CB       -24.4810   -1.4480   13.1340 C.3    18  TYR18       0.0547
     14  CG       -25.1240   -1.5000   11.7510 C.ar   18  TYR18      -0.0200
     15  CD1      -26.0330   -2.4840   11.3990 C.ar   18  TYR18      -0.0009
     16  CD2      -24.7990   -0.5490   10.7930 C.ar   18  TYR18      -0.0009
     17  CE1      -26.6090   -2.5060   10.1280 C.ar   18  TYR18       0.0417
     18  CE2      -25.3660   -0.5600    9.5360 C.ar   18  TYR18       0.0417
     19  CZ       -26.2630   -1.5420    9.1980 C.ar   18  TYR18       0.1957
     20  OH       -26.8160   -1.5320    7.9320 O.3    18  TYR18      -0.2866
     21  N        -23.4780   -3.1200   15.8190 N.am   19  PRO19      -0.2718
     22  CA       -22.6070   -3.1180   16.9960 C.3    19  PRO19       0.1535
     23  C        -21.4740   -2.0970   16.9220 C.2    19  PRO19       0.2598
     24  O        -21.1500   -1.4910   17.9310 O.2    19  PRO19      -0.2715
     25  CB       -22.0370   -4.5340   17.0000 C.3    19  PRO19       0.0310
     26  CG       -21.9690   -4.8850   15.5550 C.3    19  PRO19       0.0237
     27  CD       -23.1990   -4.2710   14.9390 C.3    19  PRO19       0.0939
     28  N        -20.8890   -1.9140   15.7440 N.am   20  ALA20      -0.1964
     29  CA       -19.6980   -1.0780   15.6210 C.3    20  ALA20       0.1728
     30  C        -19.4560   -0.5770   14.2070 C.2    20  ALA20       0.2616
     31  O        -20.0150   -1.0820   13.2480 O.2    20  ALA20      -0.2715
     32  CB       -18.4700   -1.8420   16.1090 C.3    20  ALA20       0.0334
     33  N        -18.5850    0.4090   14.0870 N.am   21  PHE21      -0.1960
     34  CA       -18.3800    1.0610   12.8080 C.3    21  PHE21       0.1771
     35  C        -17.5100    0.2080   11.8790 C.2    21  PHE21       0.2619
     36  O        -16.4490   -0.2780   12.2670 O.2    21  PHE21      -0.2715
     37  CB       -17.7750    2.4610   13.0320 C.3    21  PHE21       0.0574
     38  CG       -18.7090    3.4080   13.7570 C.ar   21  PHE21      -0.0200
     39  CD1      -19.7960    3.9740   13.1080 C.ar   21  PHE21      -0.0042
     40  CD2      -18.5220    3.6980   15.1050 C.ar   21  PHE21      -0.0042
     41  CE1      -20.6650    4.8280   13.7850 C.ar   21  PHE21      -0.0003
     42  CE2      -19.3940    4.5540   15.7890 C.ar   21  PHE21      -0.0003
     43  CZ       -20.4640    5.1180   15.1250 C.ar   21  PHE21      -0.0000
     44  N        -17.9830    0.0470   10.6500 N.am   22  ARG22      -0.1977
     45  CA       -17.3070   -0.7190    9.6240 C.3    22  ARG22       0.1597
     46  C        -16.3570    0.1460    8.8180 C.2    22  ARG22       0.2287
     47  O        -16.7450    1.1680    8.2510 O.2    22  ARG22      -0.2864
     48  CB       -18.3190   -1.3940    8.7000 C.3    22  ARG22       0.0334
     49  CG       -17.8110   -1.5870    7.2920 C.3    22  ARG22       0.0492
     50  CD       -18.8810   -2.1440    6.3920 C.3    22  ARG22       0.2205
     51  NE       -19.2990   -3.4710    6.8290 N.pl3  22  ARG22      -0.0865
     52  CZ       -20.1240   -4.2590    6.1450 C.cat  22  ARG22       0.5346
     53  NH1      -20.6340   -3.8430    4.9920 N.pl3  22  ARG22       0.1354
     54  NH2      -20.4370   -5.4640    6.6150 N.pl3  22  ARG22       0.1354
     55  N        -16.0650    4.3260    8.7090 N.3    25  GLN25      -0.1245
     56  CA       -17.3020    5.0520    9.0040 C.3    25  GLN25       0.1566
     57  C        -17.1850    6.0350   10.1650 C.2    25  GLN25       0.2260
     58  O        -17.4250    7.2330   10.0040 O.2    25  GLN25      -0.2867
     59  CB       -18.4200    4.0790    9.3450 C.3    25  GLN25       0.0367
     60  CG       -19.0260    3.3710    8.1830 C.3    25  GLN25       0.0905
     61  CD       -20.2410    2.6020    8.6110 C.2    25  GLN25       0.2608
     62  OE1      -20.3600    2.2310    9.7730 O.2    25  GLN25      -0.2717
     63  NE2      -21.1650    2.3760    7.6890 N.am   25  GLN25      -0.0878
     64  N        -17.5050    0.5960   -1.6180 N.3    43  PRO43      -0.2102
     65  CA       -18.2240   -0.2050   -2.6160 C.3    43  PRO43       0.1504
     66  C        -19.6790   -0.4150   -2.1850 C.2    43  PRO43       0.2576
     67  O        -20.0000   -0.2570   -1.0030 O.2    43  PRO43      -0.2718
     68  CB       -17.4360   -1.5130   -2.6460 C.3    43  PRO43       0.0282
     69  CG       -16.8760   -1.6250   -1.2380 C.3    43  PRO43       0.0208
     70  CD       -16.5530   -0.2020   -0.8270 C.3    43  PRO43       0.0893
     71  N        -20.5300   -0.7760   -3.1380 N.am   44  THR44      -0.1939
     72  CA       -21.9380   -1.0360   -2.8790 C.3    44  THR44       0.2028
     73  C        -22.1730   -2.0020   -1.7110 C.2    44  THR44       0.2643
     74  O        -21.5030   -3.0120   -1.5950 O.2    44  THR44      -0.2714
     75  CB       -22.5790   -1.5990   -4.1260 C.3    44  THR44       0.1808
     76  OG1      -22.1910   -0.7890   -5.2440 O.3    44  THR44      -0.2208
     77  CG2      -24.1060   -1.6600   -3.9820 C.3    44  THR44       0.0379
     78  N        -23.1150   -1.6760   -0.8370 N.am   45  GLY45      -0.1939
     79  CA       -23.3370   -2.4390    0.3750 C.3    45  GLY45       0.2014
     80  C        -22.3000   -2.1410    1.4420 C.2    45  GLY45       0.2639
     81  O        -22.4280   -2.5710    2.5840 O.2    45  GLY45      -0.2714
     82  N        -21.2880   -1.3540    1.0850 N.am   46  GLY46      -0.1939
     83  CA       -20.2420   -0.9650    2.0180 C.3    46  GLY46       0.2014
     84  C        -20.6520   -0.2150    3.2840 C.2    46  GLY46       0.2639
     85  O        -19.8860   -0.1910    4.2380 O.2    46  GLY46      -0.2714
     86  N        -21.8550    0.3640    3.3330 N.am   47  GLY47      -0.1939
     87  CA       -22.2580    1.1510    4.4950 C.3    47  GLY47       0.2014
     88  C        -22.2330    2.6780    4.3910 C.2    47  GLY47       0.2639
     89  O        -22.1090    3.3710    5.4100 O.2    47  GLY47      -0.2714
     90  N        -22.2740    3.2070    3.1710 N.am   48  LYS48      -0.1963
     91  CA       -22.3590    4.6590    2.9720 C.3    48  LYS48       0.1728
     92  C        -23.5030    5.3620    3.6830 C.2    48  LYS48       0.2617
     93  O        -23.3130    6.4100    4.2860 O.2    48  LYS48      -0.2715
     94  CB       -22.5190    5.0090    1.5050 C.3    48  LYS48       0.0311
     95  CG       -21.3700    4.7250    0.6060 C.3    48  LYS48       0.0038
     96  CD       -21.9350    4.8620   -0.7950 C.3    48  LYS48       0.0206
     97  CE       -21.1760    4.0600   -1.7880 C.3    48  LYS48       0.1093
     98  NZ       -19.7440    4.4620   -1.7470 N.3    48  LYS48      -0.1314
     99  N        -24.6990    4.7990    3.5790 N.am   49  SER49      -0.1936
    100  CA       -25.9060    5.5630    3.8640 C.3    49  SER49       0.2055
    101  C        -25.8590    6.2050    5.2560 C.2    49  SER49       0.2642
    102  O        -26.3200    7.3250    5.4330 O.2    49  SER49      -0.2714
    103  CB       -27.1470    4.6820    3.6900 C.3    49  SER49       0.2130
    104  OG       -27.4290    3.9370    4.8610 O.3    49  SER49      -0.2179
    105  N        -25.2540    5.5450    6.2330 N.am   50  LEU50      -0.1977
    106  CA       -25.2790    6.1320    7.5620 C.3    50  LEU50       0.1596
    107  C        -24.0780    7.0290    7.7990 C.2    50  LEU50       0.2287
    108  O        -23.9730    7.6830    8.8390 O.2    50  LEU50      -0.2864
    109  CB       -25.3810    5.0560    8.6540 C.3    50  LEU50       0.0297
    110  CG       -24.3840    3.9300    8.9080 C.3    50  LEU50       0.0022
    111  CD1      -23.0930    4.4340    9.4900 C.3    50  LEU50       0.0001
    112  CD2      -25.0380    2.9450    9.8650 C.3    50  LEU50       0.0001
    113  N        -25.4710   12.0620   -2.7440 N.3   141  ASP141     -0.1239
    114  CA       -25.3560   10.6350   -2.9390 C.3   141  ASP141      0.1674
    115  C        -25.1370   10.4350   -4.4110 C.2   141  ASP141      0.2266
    116  O        -25.3000   11.3980   -5.1700 O.2   141  ASP141     -0.2867
    117  CB       -26.6080    9.9240   -2.4560 C.3   141  ASP141      0.1410
    118  CG       -26.2980    8.6690   -1.7160 C.2   141  ASP141      0.3668
    119  OD1      -25.2040    8.0960   -1.9650 O.co2 141  ASP141     -0.2456
    120  OD2      -27.1230    8.2890   -0.8490 O.co2 141  ASP141     -0.2456
@<TRIPOS>BOND
     1    76    75    1
     2   116   115    2
     3   115   114    1
     4    75    77    1
     5    75    72    1
     6    71    72    1
     7    71    66   am
     8   114   113    1
     9   114   117    1
    10    72    73    1
    11    68    65    1
    12    68    69    1
    13    65    66    1
    14    65    64    1
    15   117   118    1
    16    66    67    2
    17   119   118   ar
    18    97    98    1
    19    97    96    1
    20   118   120   ar
    21    73    74    2
    22    73    78   am
    23    64    70    1
    24    69    70    1
    25    78    79    1
    26    96    95    1
    27    79    80    1
    28    95    94    1
    29    82    80   am
    30    82    83    1
    31    80    81    2
    32    94    91    1
    33    83    84    1
    34    91    90    1
    35    91    92    1
    36    90    88   am
    37    84    86   am
    38    84    85    2
    39    86    87    1
    40    99    92   am
    41    99   100    1
    42    92    93    2
    43   103   100    1
    44   103   104    1
    45   100   101    1
    46    88    87    1
    47    88    89    2
    48    53    52    1
    49   101   102    2
    50   101   105   am
    51    52    54    1
    52    52    51    2
    53   105   106    1
    54    50    51    1
    55    50    49    1
    56    49    48    1
    57   106   107    1
    58   106   109    1
    59    63    61   am
    60   107   108    2
    61    20    19    1
    62    60    61    1
    63    60    59    1
    64    47    46    2
    65    61    62    2
    66   109   110    1
    67    48    45    1
    68    55    56    1
    69    46    45    1
    70   110   111    1
    71   110   112    1
    72    56    59    1
    73    56    57    1
    74    19    18   ar
    75    19    17   ar
    76    18    16   ar
    77    45    44    1
    78    58    57    2
    79    17    15   ar
    80    44    35   am
    81    16    14   ar
    82    15    14   ar
    83    14    13    1
    84    35    36    2
    85    35    34    1
    86    34    37    1
    87    34    33    1
    88    37    38    1
    89    39    38   ar
    90    39    41   ar
    91    13    10    1
    92    31    30    2
    93     7     6    1
    94    38    40   ar
    95    41    43   ar
    96    33    30   am
    97    30    29    1
    98    10     9    1
    99    10    11    1
   100     8     6    1
   101    27    26    1
   102    27    21    1
   103     6     5    1
   104    40    42   ar
   105    43    42   ar
   106    26    25    1
   107    11    21   am
   108    11    12    2
   109    29    28    1
   110    29    32    1
   111    28    23   am
   112    21    22    1
   113     4     3    2
   114     5     2    1
   115     2     3    1
   116     2     1    1
   117    23    22    1
   118    23    24    2
   119    22    25    1
