@<TRIPOS>MOLECULE
tmp/4q4aA00.pdb
 132 126 0 0 0
SMALL
GASTEIGER

@<TRIPOS>ATOM
      1  N        -65.1960   24.6080   50.8700 N.3   104  ILE104     -0.1245
      2  CA       -66.1430   24.1160   49.8770 C.3   104  ILE104      0.1561
      3  C        -66.0400   24.9050   48.5690 C.2   104  ILE104      0.2260
      4  O        -66.0400   24.3330   47.4820 O.2   104  ILE104     -0.2867
      5  CB       -67.5900   24.1950   50.4070 C.3   104  ILE104      0.0252
      6  CG1      -67.7770   23.2380   51.5890 C.3   104  ILE104      0.0019
      7  CG2      -68.5990   23.9170   49.2990 C.3   104  ILE104      0.0019
      8  CD1      -67.1720   21.8620   51.3720 C.3   104  ILE104      0.0001
      9  N        -64.7890   23.7520   44.9810 N.3   108  ASN108     -0.1240
     10  CA       -65.7680   23.9120   43.9090 C.3   108  ASN108      0.1653
     11  C        -65.1740   24.4700   42.6160 C.2   108  ASN108      0.2266
     12  O        -65.7490   24.3040   41.5410 O.2   108  ASN108     -0.2867
     13  CB       -66.9520   24.7730   44.3590 C.3   108  ASN108      0.1155
     14  CG       -67.9830   23.9840   45.1410 C.2   108  ASN108      0.2627
     15  OD1      -68.0550   22.7570   45.0350 O.2   108  ASN108     -0.2716
     16  ND2      -68.7940   24.6860   45.9270 N.am  108  ASN108     -0.0877
     17  N        -73.9890   29.6040   45.3400 N.3   344  TYR344     -0.1227
     18  CA       -72.7280   28.9040   45.1060 C.3   344  TYR344      0.1736
     19  C        -71.9070   29.5860   44.0190 C.2   344  TYR344      0.2595
     20  O        -70.7150   29.8470   44.1910 O.2   344  TYR344     -0.2718
     21  CB       -72.9660   27.4340   44.7660 C.3   344  TYR344      0.0548
     22  CG       -73.1320   26.5770   45.9920 C.ar  344  TYR344     -0.0200
     23  CD1      -72.0550   26.3210   46.8290 C.ar  344  TYR344     -0.0009
     24  CD2      -74.3680   26.0390   46.3250 C.ar  344  TYR344     -0.0009
     25  CE1      -72.2020   25.5440   47.9630 C.ar  344  TYR344      0.0417
     26  CE2      -74.5240   25.2590   47.4500 C.ar  344  TYR344      0.0417
     27  CZ       -73.4410   25.0170   48.2710 C.ar  344  TYR344      0.1957
     28  OH       -73.5890   24.2410   49.3980 O.3   344  TYR344     -0.2866
     29  N        -72.5570   29.8680   42.8980 N.am  345  PHE345     -0.1976
     30  CA       -71.9350   30.6200   41.8230 C.3   345  PHE345      0.1639
     31  C        -72.7950   31.8410   41.5450 C.2   345  PHE345      0.2290
     32  O        -74.0190   31.7890   41.6730 O.2   345  PHE345     -0.2864
     33  CB       -71.7910   29.7520   40.5740 C.3   345  PHE345      0.0560
     34  CG       -71.0850   28.4510   40.8260 C.ar  345  PHE345     -0.0200
     35  CD1      -69.7470   28.4340   41.1840 C.ar  345  PHE345     -0.0042
     36  CD2      -71.7630   27.2460   40.7250 C.ar  345  PHE345     -0.0042
     37  CE1      -69.0910   27.2370   41.4230 C.ar  345  PHE345     -0.0003
     38  CE2      -71.1140   26.0450   40.9600 C.ar  345  PHE345     -0.0003
     39  CZ       -69.7760   26.0410   41.3110 C.ar  345  PHE345     -0.0000
     40  N        -79.7740   29.9750   46.3910 N.3   351  VAL351     -0.1245
     41  CA       -80.1780   28.6440   46.8210 C.3   351  VAL351      0.1561
     42  C        -80.7790   28.7170   48.2190 C.2   351  VAL351      0.2260
     43  O        -81.4670   27.8000   48.6560 O.2   351  VAL351     -0.2867
     44  CB       -78.9990   27.6490   46.8030 C.3   351  VAL351      0.0252
     45  CG1      -78.3520   27.6200   45.4250 C.3   351  VAL351      0.0019
     46  CG2      -77.9760   28.0150   47.8630 C.3   351  VAL351      0.0019
     47  N        -88.2790   19.0640   49.7400 N.3   370  GLU370     -0.1231
     48  CA       -88.0520   18.2070   48.5830 C.3   370  GLU370      0.1699
     49  C        -86.5920   18.2570   48.1400 C.2   370  GLU370      0.2593
     50  O        -85.7560   18.8980   48.7810 O.2   370  GLU370     -0.2718
     51  CB       -88.9740   18.5960   47.4250 C.3   370  GLU370      0.0402
     52  CG       -88.7820   20.0160   46.9280 C.3   370  GLU370      0.1161
     53  CD       -89.7170   20.3650   45.7860 C.2   370  GLU370      0.3649
     54  OE1      -90.4200   19.4580   45.2900 O.co2 370  GLU370     -0.2457
     55  OE2      -89.7510   21.5480   45.3860 O.co2 370  GLU370     -0.2457
     56  N        -86.2940   17.5680   47.0440 N.am  371  THR371     -0.1939
     57  CA       -84.9460   17.5260   46.4990 C.3   371  THR371      0.2028
     58  C        -84.5050   18.9320   46.1250 C.2   371  THR371      0.2643
     59  O        -85.2630   19.6820   45.5080 O.2   371  THR371     -0.2714
     60  CB       -84.8910   16.6410   45.2390 C.3   371  THR371      0.1808
     61  OG1      -85.7290   15.4940   45.4200 O.3   371  THR371     -0.2208
     62  CG2      -83.4680   16.1890   44.9480 C.3   371  THR371      0.0379
     63  N        -83.2810   19.2860   46.5110 N.am  372  GLY372     -0.1939
     64  CA       -82.6980   20.5670   46.1550 C.3   372  GLY372      0.2014
     65  C        -83.4550   21.7670   46.6920 C.2   372  GLY372      0.2640
     66  O        -83.6060   22.7740   46.0000 O.2   372  GLY372     -0.2714
     67  N        -83.9380   21.6610   47.9260 N.am  373  SER373     -0.1935
     68  CA       -84.6310   22.7700   48.5690 C.3   373  SER373      0.2055
     69  C        -83.6270   23.6580   49.2970 C.2   373  SER373      0.2644
     70  O        -83.8880   24.8330   49.5420 O.2   373  SER373     -0.2714
     71  CB       -85.7080   22.2590   49.5330 C.3   373  SER373      0.2130
     72  OG       -85.1420   21.4880   50.5790 O.3   373  SER373     -0.2179
     73  N        -82.4760   23.0890   49.6400 N.am  374  GLY374     -0.1939
     74  CA       -81.4000   23.8630   50.2320 C.3   374  GLY374      0.2014
     75  C        -80.9910   23.3910   51.6130 C.2   374  GLY374      0.2639
     76  O        -80.2200   24.0610   52.3040 O.2   374  GLY374     -0.2714
     77  N        -81.4970   22.2270   52.0070 N.am  375  LYS375     -0.1963
     78  CA       -81.3090   21.7280   53.3660 C.3   375  LYS375      0.1728
     79  C        -79.8430   21.5060   53.7240 C.2   375  LYS375      0.2617
     80  O        -79.3880   21.9050   54.7970 O.2   375  LYS375     -0.2715
     81  CB       -82.0970   20.4360   53.5740 C.3   375  LYS375      0.0311
     82  CG       -83.5910   20.5770   53.3530 C.3   375  LYS375      0.0038
     83  CD       -84.3280   19.2910   53.7080 C.3   375  LYS375      0.0206
     84  CE       -84.4800   18.3720   52.5030 C.3   375  LYS375      0.1093
     85  NZ       -83.1910   17.8560   51.9750 N.3   375  LYS375     -0.1314
     86  N        -79.1060   20.8690   52.8240 N.am  376  SER376     -0.1936
     87  CA       -77.7080   20.5650   53.0840 C.3   376  SER376      0.2055
     88  C        -76.8770   21.8420   53.1580 C.2   376  SER376      0.2643
     89  O        -75.9320   21.9330   53.9440 O.2   376  SER376     -0.2714
     90  CB       -77.1620   19.6170   52.0220 C.3   376  SER376      0.2130
     91  OG       -77.8390   18.3720   52.0520 O.3   376  SER376     -0.2179
     92  N        -77.2340   22.8320   52.3460 N.am  377  THR377     -0.1950
     93  CA       -76.5230   24.1040   52.3690 C.3   377  THR377      0.1897
     94  C        -76.7780   24.7870   53.7010 C.2   377  THR377      0.2313
     95  O        -75.8420   25.2020   54.3900 O.2   377  THR377     -0.2863
     96  CB       -76.9690   25.0440   51.2290 C.3   377  THR377      0.1794
     97  OG1      -78.3830   25.2530   51.3120 O.3   377  THR377     -0.2208
     98  CG2      -76.6430   24.4470   49.8830 C.3   377  THR377      0.0378
     99  N        -74.3360   13.5970   53.9190 N.3   417  GLN417     -0.1245
    100  CA       -75.0900   12.7050   53.0340 C.3   417  GLN417      0.1566
    101  C        -74.2090   11.5730   52.5180 C.2   417  GLN417      0.2260
    102  O        -74.3890   10.4140   52.8880 O.2   417  GLN417     -0.2867
    103  CB       -75.6700   13.4630   51.8380 C.3   417  GLN417      0.0367
    104  CG       -76.5830   14.6060   52.1940 C.3   417  GLN417      0.0905
    105  CD       -77.7220   14.7760   51.2000 C.2   417  GLN417      0.2608
    106  OE1      -78.0360   15.8960   50.7860 O.2   417  GLN417     -0.2717
    107  NE2      -78.3540   13.6640   50.8210 N.am  417  GLN417     -0.0878
    108  N        -77.5580   14.7950   58.2010 N.3   497  ASP497     -0.1225
    109  CA       -77.9870   15.1400   56.8540 C.3   497  ASP497      0.1805
    110  C        -78.4270   13.8990   56.0970 C.2   497  ASP497      0.2597
    111  O        -77.6050   13.2180   55.4850 O.2   497  ASP497     -0.2718
    112  CB       -76.8610   15.8510   56.0960 C.3   497  ASP497      0.1424
    113  CG       -77.3510   16.5670   54.8390 C.2   497  ASP497      0.3668
    114  OD1      -78.4180   16.1980   54.2960 O.co2 497  ASP497     -0.2456
    115  OD2      -76.6520   17.5020   54.3820 O.co2 497  ASP497     -0.2456
    116  N        -79.7250   13.6100   56.1540 N.am  498  ASP498     -0.1974
    117  CA       -80.3360   12.5700   55.3300 C.3   498  ASP498      0.1709
    118  C        -79.6780   11.2070   55.5240 C.2   498  ASP498      0.2293
    119  O        -79.5690   10.4300   54.5780 O.2   498  ASP498     -0.2864
    120  CB       -80.2730   12.9790   53.8550 C.3   498  ASP498      0.1436
    121  CG       -81.5080   12.5720   53.0790 C.2   498  ASP498      0.3671
    122  OD1      -81.9570   11.4170   53.2350 O.co2 498  ASP498     -0.2456
    123  OD2      -82.0260   13.4110   52.3060 O.co2 498  ASP498     -0.2456
    124  N        -86.2420   14.2270   53.3520 N.3   529  GLN529     -0.1245
    125  CA       -87.1990   14.6340   52.3300 C.3   529  GLN529      0.1566
    126  C        -88.5310   13.9030   52.5030 C.2   529  GLN529      0.2260
    127  O        -89.4330   14.0240   51.6720 O.2   529  GLN529     -0.2867
    128  CB       -86.6220   14.4200   50.9250 C.3   529  GLN529      0.0367
    129  CG       -85.9470   13.0830   50.7210 C.3   529  GLN529      0.0905
    130  CD       -84.9830   13.0920   49.5470 C.2   529  GLN529      0.2608
    131  OE1      -84.8200   14.1070   48.8690 O.2   529  GLN529     -0.2717
    132  NE2      -84.3350   11.9590   49.3040 N.am  529  GLN529     -0.0878
@<TRIPOS>BOND
     1    33    34    1
     2    33    30    1
     3    36    34   ar
     4    36    38   ar
     5    34    35   ar
     6    38    39   ar
     7    35    37   ar
     8    39    37   ar
     9    12    11    2
    10    31    32    2
    11    31    30    1
    12    30    29    1
    13    11    10    1
    14    29    19   am
    15    10    13    1
    16    10     9    1
    17    19    20    2
    18    19    18    1
    19    13    14    1
    20    21    18    1
    21    21    22    1
    22    62    60    1
    23    15    14    2
    24    18    17    1
    25    14    16   am
    26    60    61    1
    27    60    57    1
    28    54    53   ar
    29    55    53   ar
    30    45    44    1
    31    59    58    2
    32    53    52    1
    33    22    24   ar
    34    22    23   ar
    35    66    65    2
    36    58    57    1
    37    58    63   am
    38    64    63    1
    39    64    65    1
    40    24    26   ar
    41    40    41    1
    42    57    56    1
    43    65    67   am
    44    44    41    1
    45    44    46    1
    46    41    42    1
    47    23    25   ar
    48    52    51    1
    49    56    49   am
    50    51    48    1
    51    26    27   ar
    52     4     3    2
    53    67    68    1
    54    25    27   ar
    55    49    48    1
    56    49    50    2
    57    42    43    2
    58    27    28    1
    59    68    69    1
    60    68    71    1
    61     3     2    1
    62    48    47    1
    63   131   130    2
    64    69    70    2
    65    69    73   am
    66     7     5    1
    67   132   130   am
    68    71    72    1
    69   130   129    1
    70    73    74    1
    71     2     5    1
    72     2     1    1
    73    98    96    1
    74    74    75    1
    75     5     6    1
    76   129   128    1
    77   106   105    2
    78   107   105   am
    79   128   125    1
    80   105   104    1
    81    96    97    1
    82    96    93    1
    83     8     6    1
    84    75    77   am
    85    75    76    2
    86   127   126    2
    87   103   104    1
    88   103   100    1
    89    85    84    1
    90    77    78    1
    91    90    91    1
    92    90    87    1
    93   123   121   ar
    94   125   126    1
    95   125   124    1
    96    92    93    1
    97    92    88   am
    98    93    94    1
    99    84    83    1
   100   101   102    2
   101   101   100    1
   102    86    87    1
   103    86    79   am
   104   100    99    1
   105   121   122   ar
   106   121   120    1
   107    87    88    1
   108    88    89    2
   109    82    81    1
   110    82    83    1
   111    78    81    1
   112    78    79    1
   113    94    95    2
   114    79    80    2
   115   120   117    1
   116   114   113   ar
   117   115   113   ar
   118   119   118    2
   119   113   112    1
   120   117   118    1
   121   117   116    1
   122   111   110    2
   123   112   109    1
   124   110   116   am
   125   110   109    1
   126   109   108    1
