@<TRIPOS>MOLECULE
tmp/4q4bA06.pdb
 122 116 0 0 0
SMALL
GASTEIGER

@<TRIPOS>ATOM
      1  N        -11.4150   -2.6290   29.4450 N.3    25  TYR25      -0.1241
      2  CA       -10.5440   -3.2540   28.4540 C.3    25  TYR25       0.1605
      3  C         -9.8960   -2.1980   27.5740 C.2    25  TYR25       0.2264
      4  O        -10.5850   -1.3230   27.0480 O.2    25  TYR25      -0.2867
      5  CB       -11.3470   -4.2060   27.5660 C.3    25  TYR25       0.0534
      6  CG       -11.8810   -5.4210   28.2820 C.ar   25  TYR25      -0.0201
      7  CD1      -11.1220   -6.5820   28.3790 C.ar   25  TYR25      -0.0009
      8  CD2      -13.1490   -5.4140   28.8570 C.ar   25  TYR25      -0.0009
      9  CE1      -11.6080   -7.7010   29.0340 C.ar   25  TYR25       0.0417
     10  CE2      -13.6450   -6.5290   29.5140 C.ar   25  TYR25       0.0417
     11  CZ       -12.8720   -7.6720   29.6000 C.ar   25  TYR25       0.1957
     12  OH       -13.3530   -8.7870   30.2510 O.3    25  TYR25      -0.2866
     13  N         -7.6320   -1.8280   24.0690 N.3    27  GLN27      -0.1245
     14  CA        -7.3080   -2.5520   22.8430 C.3    27  GLN27       0.1566
     15  C         -6.3290   -1.7380   22.0330 C.2    27  GLN27       0.2260
     16  O         -6.6070   -0.5860   21.7150 O.2    27  GLN27      -0.2867
     17  CB        -8.5670   -2.7690   22.0160 C.3    27  GLN27       0.0367
     18  CG        -9.5050   -3.8080   22.5940 C.3    27  GLN27       0.0905
     19  CD       -10.9190   -3.6510   22.0840 C.2    27  GLN27       0.2608
     20  OE1      -11.5650   -2.6250   22.3240 O.2    27  GLN27      -0.2717
     21  NE2      -11.4130   -4.6640   21.3820 N.am   27  GLN27      -0.0878
     22  N         -4.0070   -0.9680   18.6450 N.3    29  TYR29      -0.1241
     23  CA        -3.9800   -1.1380   17.1960 C.3    29  TYR29       0.1605
     24  C         -2.7410   -0.4390   16.6450 C.2    29  TYR29       0.2264
     25  O         -2.4840    0.7170   16.9740 O.2    29  TYR29      -0.2867
     26  CB        -5.2350   -0.5340   16.5650 C.3    29  TYR29       0.0534
     27  CG        -6.5290   -1.0560   17.1480 C.ar   29  TYR29      -0.0201
     28  CD1       -7.0040   -0.5860   18.3680 C.ar   29  TYR29      -0.0009
     29  CD2       -7.2780   -2.0140   16.4790 C.ar   29  TYR29      -0.0009
     30  CE1       -8.1830   -1.0600   18.9090 C.ar   29  TYR29       0.0417
     31  CE2       -8.4590   -2.4930   17.0120 C.ar   29  TYR29       0.0417
     32  CZ        -8.9080   -2.0100   18.2260 C.ar   29  TYR29       0.1957
     33  OH       -10.0850   -2.4860   18.7590 O.3    29  TYR29      -0.2866
     34  N         -3.2780   -1.1690    9.3130 N.3    49  GLU49      -0.1245
     35  CA        -3.8180   -1.2980   10.6550 C.3    49  GLU49       0.1567
     36  C         -3.7020   -2.7570   11.0870 C.2    49  GLU49       0.2260
     37  O         -3.9950   -3.6620   10.3100 O.2    49  GLU49      -0.2867
     38  CB        -5.2790   -0.8490   10.6770 C.3    49  GLU49       0.0388
     39  CG        -5.8270   -0.5300   12.0560 C.3    49  GLU49       0.1160
     40  CD        -7.2890   -0.1300   12.0050 C.2    49  GLU49       0.3649
     41  OE1       -8.1150   -0.9720   11.5870 O.co2  49  GLU49      -0.2457
     42  OE2       -7.6130    1.0230   12.3750 O.co2  49  GLU49      -0.2457
     43  N         -4.6400   -5.1080   14.5800 N.3    51  GLY51      -0.1210
     44  CA        -5.2210   -5.1800   15.9160 C.3    51  GLY51       0.1940
     45  C         -6.5650   -5.8770   15.9020 C.2    51  GLY51       0.2453
     46  O         -7.0380   -6.2840   14.8450 O.2    51  GLY51      -0.2732
     47  N         -7.2020   -6.0080   17.0750 N.am   52  PRO52      -0.2728
     48  CA        -6.7620   -5.5030   18.3710 C.3    52  PRO52       0.1401
     49  C         -5.7770   -6.4090   19.1080 C.2    52  PRO52       0.2269
     50  O         -5.7060   -7.6070   18.8430 O.2    52  PRO52      -0.2865
     51  CB        -8.0650   -5.4450   19.1650 C.3    52  PRO52       0.0296
     52  CG        -8.8450   -6.5850   18.6350 C.3    52  PRO52       0.0237
     53  CD        -8.5260   -6.6430   17.1680 C.3    52  PRO52       0.0939
     54  N        -18.0230    6.4600   13.7860 N.3   325  GLU325     -0.1231
     55  CA       -18.4450    5.4180   14.7210 C.3   325  GLU325      0.1699
     56  C        -17.2790    4.5930   15.2640 C.2   325  GLU325      0.2592
     57  O        -17.3380    4.1250   16.4000 O.2   325  GLU325     -0.2718
     58  CB       -19.4840    4.4960   14.0640 C.3   325  GLU325      0.0402
     59  CG       -20.3060    3.6540   15.0400 C.3   325  GLU325      0.1161
     60  CD       -21.2890    4.4680   15.8770 C.2   325  GLU325      0.3649
     61  OE1      -21.5270    5.6600   15.5660 O.co2 325  GLU325     -0.2457
     62  OE2      -21.8370    3.9080   16.8530 O.co2 325  GLU325     -0.2457
     63  N        -16.2280    4.4210   14.4630 N.am  326  ASP326     -0.1960
     64  CA       -15.0560    3.6440   14.8830 C.3   326  ASP326      0.1840
     65  C        -14.0200    4.4500   15.6680 C.2   326  ASP326      0.2622
     66  O        -13.2920    3.8790   16.4790 O.2   326  ASP326     -0.2715
     67  CB       -14.3690    3.0030   13.6710 C.3   326  ASP326      0.1450
     68  CG       -15.1480    1.8300   13.1010 C.2   326  ASP326      0.3671
     69  OD1      -16.1320    1.3820   13.7330 O.co2 326  ASP326     -0.2456
     70  OD2      -14.7670    1.3460   12.0140 O.co2 326  ASP326     -0.2456
     71  N        -13.9460    5.7600   15.4260 N.am  327  HIS327     -0.1973
     72  CA       -12.8430    6.5780   15.9470 C.3   327  HIS327      0.1656
     73  C        -13.2140    7.7210   16.8870 C.2   327  HIS327      0.2291
     74  O        -12.3260    8.3360   17.4770 O.2   327  HIS327     -0.2864
     75  CB       -12.0400    7.1280   14.7790 C.3   327  HIS327      0.0771
     76  CG       -11.6020    6.0720   13.8180 C.ar  327  HIS327      0.0820
     77  ND1      -11.6960    6.2260   12.4550 N.ar  327  HIS327     -0.2267
     78  CD2      -11.1020    4.8300   14.0240 C.ar  327  HIS327      0.1154
     79  CE1      -11.2500    5.1350   11.8580 C.ar  327  HIS327      0.1986
     80  NE2      -10.8860    4.2710   12.7880 N.ar  327  HIS327     -0.2212
     81  N        -16.2160    4.5110   25.0530 N.3   344  ALA344     -0.1245
     82  CA       -15.0700    4.1850   24.2160 C.3   344  ALA344      0.1562
     83  C        -14.1310    5.3870   24.1860 C.2   344  ALA344      0.2260
     84  O        -14.3080    6.3120   23.3940 O.2   344  ALA344     -0.2867
     85  CB       -15.5180    3.8140   22.8120 C.3   344  ALA344      0.0290
     86  N        -10.9300    6.7580   23.0180 N.3   346  ARG346     -0.1245
     87  CA       -10.0340    6.4250   21.9060 C.3   346  ARG346      0.1563
     88  C         -9.1040    7.5830   21.5260 C.2   346  ARG346      0.2260
     89  O         -9.5750    8.6800   21.2170 O.2   346  ARG346     -0.2867
     90  CB       -10.8630    6.0170   20.6880 C.3   346  ARG346      0.0307
     91  CG       -11.8550    4.8930   20.9640 C.3   346  ARG346      0.0489
     92  CD       -12.2990    4.1830   19.6910 C.3   346  ARG346      0.2205
     93  NE       -13.5380    4.7440   19.1480 N.pl3 346  ARG346     -0.0865
     94  CZ       -14.7380    4.1600   19.1850 C.cat 346  ARG346      0.5346
     95  NH1      -14.9160    2.9640   19.7320 N.pl3 346  ARG346      0.1354
     96  NH2      -15.7780    4.7830   18.6530 N.pl3 346  ARG346      0.1354
     97  N         -2.8680    3.4900   17.9400 N.3   374  TYR374     -0.1241
     98  CA        -3.9640    4.0890   18.6970 C.3   374  TYR374      0.1605
     99  C         -4.6840    3.0140   19.4780 C.2   374  TYR374      0.2264
    100  O         -4.5500    1.8290   19.1760 O.2   374  TYR374     -0.2867
    101  CB        -4.9350    4.8220   17.7740 C.3   374  TYR374      0.0534
    102  CG        -5.9380    3.9450   17.0670 C.ar  374  TYR374     -0.0201
    103  CD1       -7.1720    3.6590   17.6490 C.ar  374  TYR374     -0.0009
    104  CD2       -5.6700    3.4260   15.8060 C.ar  374  TYR374     -0.0009
    105  CE1       -8.1050    2.8720   17.0010 C.ar  374  TYR374      0.0417
    106  CE2       -6.5980    2.6380   15.1490 C.ar  374  TYR374      0.0417
    107  CZ        -7.8140    2.3640   15.7510 C.ar  374  TYR374      0.1957
    108  OH        -8.7450    1.5790   15.1070 O.3   374  TYR374     -0.2866
    109  N         -8.3530    1.7600   21.9450 N.3   376  ASN376     -0.1240
    110  CA        -9.7070    1.9310   22.4380 C.3   376  ASN376      0.1653
    111  C         -9.7750    1.4070   23.8680 C.2   376  ASN376      0.2266
    112  O         -9.6960    0.1980   24.0880 O.2   376  ASN376     -0.2867
    113  CB       -10.7190    1.1940   21.5520 C.3   376  ASN376      0.1155
    114  CG       -12.1480    1.3620   22.0410 C.2   376  ASN376      0.2627
    115  OD1      -12.3830    2.0580   23.0250 O.2   376  ASN376     -0.2716
    116  ND2      -13.1200    0.7310   21.3650 N.am  376  ASN376     -0.0877
    117  N        -12.2760    0.8940   26.7930 N.3   378  SER378     -0.1217
    118  CA       -13.7370    0.7930   26.8340 C.3   378  SER378      0.1889
    119  C        -14.2700    0.1480   28.1110 C.2   378  SER378      0.2288
    120  O        -13.5640   -0.5970   28.7930 O.2   378  SER378     -0.2866
    121  CB       -14.2420    0.0150   25.6110 C.3   378  SER378      0.2089
    122  OG       -13.5170   -1.1910   25.4270 O.3   378  SER378     -0.2183
@<TRIPOS>BOND
     1    34    35    1
     2    37    36    2
     3    35    38    1
     4    35    36    1
     5    38    39    1
     6    41    40   ar
     7    79    77   ar
     8    79    80   ar
     9    40    39    1
    10    40    42   ar
    11    70    68   ar
    12    77    76   ar
    13    80    78   ar
    14    68    67    1
    15    68    69   ar
    16    67    64    1
    17    54    55    1
    18    76    78   ar
    19    76    75    1
    20    58    55    1
    21    58    59    1
    22    63    64    1
    23    63    56   am
    24    43    44    1
    25    55    56    1
    26    75    72    1
    27    46    45    2
    28    64    65    1
    29    59    60    1
    30   108   107    1
    31   106   107   ar
    32   106   104   ar
    33    56    57    2
    34    71    65   am
    35    71    72    1
    36    61    60   ar
    37    65    66    2
    38   107   105   ar
    39   104   102   ar
    40    60    62   ar
    41    45    44    1
    42    45    47   am
    43    72    73    1
    44    29    31   ar
    45    29    27   ar
    46    26    27    1
    47    26    23    1
    48    24    25    2
    49    24    23    1
    50    73    74    2
    51   105   103   ar
    52    31    32   ar
    53   102   103   ar
    54   102   101    1
    55    47    53    1
    56    47    48    1
    57    27    28   ar
    58    53    52    1
    59    23    22    1
    60   101    98    1
    61    97    98    1
    62    32    33    1
    63    32    30   ar
    64    28    30   ar
    65    48    49    1
    66    48    51    1
    67    52    51    1
    68    96    94    1
    69    98    99    1
    70    50    49    2
    71    93    94    2
    72    93    92    1
    73   100    99    2
    74    94    95    1
    75    92    91    1
    76    90    91    1
    77    90    87    1
    78    89    88    2
    79   116   114   am
    80    21    19   am
    81    88    87    1
    82   113   114    1
    83   113   110    1
    84    16    15    2
    85    87    86    1
    86   109   110    1
    87    17    18    1
    88    17    14    1
    89    15    14    1
    90   114   115    2
    91    19    20    2
    92    19    18    1
    93   110   111    1
    94    85    82    1
    95    14    13    1
    96    84    83    2
    97   111   112    2
    98    83    82    1
    99    82    81    1
   100   122   121    1
   101   121   118    1
   102   117   118    1
   103   118   119    1
   104     4     3    2
   105     5     6    1
   106     5     2    1
   107     3     2    1
   108   119   120    2
   109     6     7   ar
   110     6     8   ar
   111     7     9   ar
   112     2     1    1
   113     8    10   ar
   114     9    11   ar
   115    10    11   ar
   116    11    12    1
