@<TRIPOS>MOLECULE
tmp/4q4bA02.pdb
 100 99 0 0 0
SMALL
GASTEIGER

@<TRIPOS>ATOM
      1  N         -6.1870   -6.0540   26.2150 N.3    55  TYR55      -0.1227
      2  CA        -5.7620   -6.2750   27.5900 C.3    55  TYR55       0.1736
      3  C         -6.8890   -5.8870   28.5320 C.2    55  TYR55       0.2595
      4  O         -7.4740   -4.8180   28.3900 O.2    55  TYR55      -0.2718
      5  CB        -4.5360   -5.4190   27.9130 C.3    55  TYR55       0.0548
      6  CG        -3.2770   -5.8240   27.1850 C.ar   55  TYR55      -0.0200
      7  CD1       -3.0640   -5.4520   25.8630 C.ar   55  TYR55      -0.0009
      8  CD2       -2.2920   -6.5720   27.8230 C.ar   55  TYR55      -0.0009
      9  CE1       -1.9090   -5.8180   25.1920 C.ar   55  TYR55       0.0417
     10  CE2       -1.1330   -6.9420   27.1610 C.ar   55  TYR55       0.0417
     11  CZ        -0.9460   -6.5660   25.8450 C.ar   55  TYR55       0.1957
     12  OH         0.2090   -6.9330   25.1850 O.3    55  TYR55      -0.2866
     13  N         -7.1890   -6.7550   29.4920 N.am   56  ARG56      -0.1980
     14  CA        -8.1390   -6.4340   30.5540 C.3    56  ARG56       0.1597
     15  C         -7.4110   -5.6490   31.6420 C.2    56  ARG56       0.2287
     16  O         -6.2860   -5.9940   32.0070 O.2    56  ARG56      -0.2864
     17  CB        -8.7360   -7.7150   31.1370 C.3    56  ARG56       0.0334
     18  CG        -9.8300   -7.4980   32.1740 C.3    56  ARG56       0.0492
     19  CD       -10.5400   -8.8050   32.4950 C.3    56  ARG56       0.2205
     20  NE        -9.5950   -9.8720   32.8330 N.pl3  56  ARG56      -0.0865
     21  CZ        -9.0320  -10.0510   34.0290 C.cat  56  ARG56       0.5346
     22  NH1       -9.3060   -9.2390   35.0470 N.pl3  56  ARG56       0.1354
     23  NH2       -8.1820  -11.0550   34.2100 N.pl3  56  ARG56       0.1354
     24  N         -6.8500   -3.9860   35.5120 N.3    58  LEU58      -0.1245
     25  CA        -7.0800   -4.1680   36.9400 C.3    58  LEU58       0.1561
     26  C         -6.9390   -2.8060   37.6140 C.2    58  LEU58       0.2260
     27  O         -5.8370   -2.2630   37.7050 O.2    58  LEU58      -0.2867
     28  CB        -6.0710   -5.1520   37.5320 C.3    58  LEU58       0.0270
     29  CG        -5.9080   -6.4830   36.8030 C.3    58  LEU58       0.0019
     30  CD1       -4.8070   -7.3030   37.4570 C.3    58  LEU58       0.0001
     31  CD2       -7.2210   -7.2510   36.7850 C.3    58  LEU58       0.0001
     32  N         -3.3300   -2.0490   36.0460 N.3    80  ALA80      -0.1231
     33  CA        -2.5820   -3.1530   35.4350 C.3    80  ALA80       0.1694
     34  C         -3.2890   -3.6620   34.1850 C.2    80  ALA80       0.2592
     35  O         -4.4730   -3.4050   33.9910 O.2    80  ALA80      -0.2718
     36  CB        -2.3920   -4.2810   36.4350 C.3    80  ALA80       0.0304
     37  N         -2.5500   -4.3860   33.3470 N.am   81  TYR81      -0.1962
     38  CA        -3.0500   -4.8650   32.0580 C.3    81  TYR81       0.1771
     39  C         -2.7900   -6.3590   31.8880 C.2    81  TYR81       0.2619
     40  O         -1.6510   -6.7760   31.6930 O.2    81  TYR81      -0.2715
     41  CB        -2.3710   -4.1050   30.9180 C.3    81  TYR81       0.0574
     42  CG        -2.5660   -2.6060   30.9590 C.ar   81  TYR81      -0.0198
     43  CD1       -1.8070   -1.8090   31.8100 C.ar   81  TYR81      -0.0009
     44  CD2       -3.4930   -1.9820   30.1310 C.ar   81  TYR81      -0.0009
     45  CE1       -1.9730   -0.4360   31.8460 C.ar   81  TYR81       0.0417
     46  CE2       -3.6660   -0.6070   30.1590 C.ar   81  TYR81       0.0417
     47  CZ        -2.9020    0.1600   31.0180 C.ar   81  TYR81       0.1957
     48  OH        -3.0640    1.5230   31.0510 O.3    81  TYR81      -0.2866
     49  N         -3.8540   -7.1560   31.9550 N.am   82  VAL82      -0.1963
     50  CA        -3.7700   -8.6050   31.7680 C.3    82  VAL82       0.1727
     51  C         -4.1770   -8.9450   30.3350 C.2    82  VAL82       0.2616
     52  O         -5.2580   -8.5630   29.8910 O.2    82  VAL82      -0.2715
     53  CB        -4.6940   -9.3460   32.7550 C.3    82  VAL82       0.0290
     54  CG1       -4.4440  -10.8470   32.7010 C.3    82  VAL82       0.0023
     55  CG2       -4.4950   -8.8130   34.1680 C.3    82  VAL82       0.0023
     56  N         -3.3180   -9.6630   29.6160 N.am   83  PHE83      -0.1974
     57  CA        -3.5400   -9.9170   28.1920 C.3    83  PHE83       0.1639
     58  C         -4.5940  -10.9940   27.9470 C.2    83  PHE83       0.2290
     59  O         -4.6410  -11.9950   28.6620 O.2    83  PHE83      -0.2864
     60  CB        -2.2360  -10.3140   27.5030 C.3    83  PHE83       0.0560
     61  CG        -2.3990  -10.6130   26.0420 C.ar   83  PHE83      -0.0200
     62  CD1       -2.8110   -9.6210   25.1640 C.ar   83  PHE83      -0.0042
     63  CD2       -2.1590  -11.8860   25.5450 C.ar   83  PHE83      -0.0042
     64  CE1       -2.9720   -9.8900   23.8160 C.ar   83  PHE83      -0.0003
     65  CE2       -2.3180  -12.1610   24.1980 C.ar   83  PHE83      -0.0003
     66  CZ        -2.7300  -11.1630   23.3330 C.ar   83  PHE83      -0.0000
     67  N          4.7100   -6.7150   21.9910 N.3   138  ASP138     -0.1239
     68  CA         5.0540   -6.6970   23.4190 C.3   138  ASP138      0.1674
     69  C          6.2620   -5.8000   23.7050 C.2   138  ASP138      0.2266
     70  O          6.3080   -5.1290   24.7380 O.2   138  ASP138     -0.2867
     71  CB         5.3320   -8.1110   23.9370 C.3   138  ASP138      0.1410
     72  CG         5.3580   -8.1840   25.4580 C.2   138  ASP138      0.3668
     73  OD1        4.2730   -8.2600   26.0700 O.co2 138  ASP138     -0.2456
     74  OD2        6.4600   -8.1740   26.0440 O.co2 138  ASP138     -0.2456
     75  N          5.5580   -2.6390   26.0440 N.3   142  TRP142     -0.1241
     76  CA         6.0210   -2.7770   27.4270 C.3   142  TRP142      0.1605
     77  C          7.5310   -2.6690   27.5970 C.2   142  TRP142      0.2264
     78  O          8.0370   -2.8270   28.7070 O.2   142  TRP142     -0.2867
     79  CB         5.5220   -4.0980   28.0070 C.3   142  TRP142      0.0550
     80  CG         4.0650   -4.2730   27.7830 C.ar  142  TRP142      0.0003
     81  CD1        3.4680   -5.1550   26.9340 C.ar  142  TRP142      0.0946
     82  CD2        3.0120   -3.5130   28.3820 C.ar  142  TRP142      0.0152
     83  NE1        2.1050   -5.0070   26.9820 N.ar  142  TRP142     -0.2442
     84  CE2        1.7970   -4.0030   27.8630 C.ar  142  TRP142      0.0810
     85  CE3        2.9760   -2.4730   29.3160 C.ar  142  TRP142      0.0012
     86  CZ2        0.5600   -3.4890   28.2460 C.ar  142  TRP142      0.0191
     87  CZ3        1.7470   -1.9640   29.6960 C.ar  142  TRP142      0.0001
     88  CH2        0.5560   -2.4730   29.1600 C.ar  142  TRP142      0.0015
     89  N          2.6360   -0.6830   33.8690 N.3   170  ASN170     -0.1225
     90  CA         1.8460   -1.7930   34.3730 C.3   170  ASN170      0.1785
     91  C          2.0210   -1.8960   35.8810 C.2   170  ASN170      0.2597
     92  O          3.1430   -1.8910   36.3740 O.2   170  ASN170     -0.2718
     93  CB         2.2840   -3.1020   33.7080 C.3   170  ASN170      0.1169
     94  CG         1.2590   -4.2110   33.8730 C.2   170  ASN170      0.2627
     95  OD1        0.0750   -3.9950   33.6340 O.2   170  ASN170     -0.2716
     96  ND2        1.7080   -5.4020   34.2790 N.am  170  ASN170     -0.0877
     97  N          0.9100   -1.9820   36.6070 N.am  171  GLY171     -0.1957
     98  CA         0.9350   -2.1280   38.0600 C.3   171  GLY171      0.1869
     99  C          1.3520   -0.8620   38.7830 C.2   171  GLY171      0.2309
    100  O          1.9100   -0.9290   39.8780 O.2   171  GLY171     -0.2863
@<TRIPOS>BOND
     1    67    68    1
     2    66    64   ar
     3    66    65   ar
     4    68    69    1
     5    68    71    1
     6    69    70    2
     7    64    62   ar
     8    71    72    1
     9    65    63   ar
    10    62    61   ar
    11    12    11    1
    12     9    11   ar
    13     9     7   ar
    14    72    74   ar
    15    72    73   ar
    16    63    61   ar
    17    11    10   ar
    18     7     6   ar
    19    61    60    1
    20    75    76    1
    21     1     2    1
    22    81    83   ar
    23    81    80   ar
    24    83    84   ar
    25    10     8   ar
    26     6     8   ar
    27     6     5    1
    28    76    77    1
    29    76    79    1
    30    60    57    1
    31     2     5    1
    32     2     3    1
    33    77    78    2
    34    80    79    1
    35    80    82   ar
    36    84    86   ar
    37    84    82   ar
    38    58    57    1
    39    58    59    2
    40    57    56    1
    41    86    88   ar
    42    82    85   ar
    43     4     3    2
    44     3    13   am
    45    88    87   ar
    46    85    87   ar
    47    13    14    1
    48    56    51   am
    49    52    51    2
    50    44    46   ar
    51    44    42   ar
    52    46    47   ar
    53    51    50    1
    54    14    17    1
    55    14    15    1
    56    41    42    1
    57    41    38    1
    58    42    43   ar
    59    47    48    1
    60    47    45   ar
    61    17    18    1
    62    15    16    2
    63    40    39    2
    64    50    49    1
    65    50    53    1
    66    43    45   ar
    67    39    49   am
    68    39    38    1
    69    38    37    1
    70    18    19    1
    71    19    20    1
    72    54    53    1
    73    53    55    1
    74    20    21    2
    75    37    34   am
    76    95    94    2
    77    93    94    1
    78    93    90    1
    79    89    90    1
    80    94    96   am
    81    35    34    2
    82    21    23    1
    83    21    22    1
    84    34    33    1
    85    90    91    1
    86    33    32    1
    87    33    36    1
    88    24    25    1
    89    91    92    2
    90    91    97   am
    91    97    98    1
    92    31    29    1
    93    29    30    1
    94    29    28    1
    95    25    28    1
    96    25    26    1
    97    26    27    2
    98    98    99    1
    99    99   100    2
