@<TRIPOS>MOLECULE
tmp/4q4bA04.pdb
 98 94 0 0 0
SMALL
GASTEIGER

@<TRIPOS>ATOM
      1  N         -5.1630   29.7150   31.5970 N.3   208  LYS208     -0.1231
      2  CA        -6.3760   29.0600   31.1200 C.3   208  LYS208      0.1693
      3  C         -6.1310   27.6060   30.7150 C.2   208  LYS208      0.2592
      4  O         -6.8880   26.7140   31.0990 O.2   208  LYS208     -0.2718
      5  CB        -6.9720   29.8390   29.9400 C.3   208  LYS208      0.0285
      6  CG        -8.2570   29.2360   29.3910 C.3   208  LYS208      0.0035
      7  CD        -8.9650   30.1640   28.4180 C.3   208  LYS208      0.0206
      8  CE       -10.2810   29.5530   27.9590 C.3   208  LYS208      0.1093
      9  NZ       -11.0820   30.4720   27.1030 N.3   208  LYS208     -0.1314
     10  N         -5.0740   27.3760   29.9420 N.am  209  CYS209     -0.1970
     11  CA        -4.7620   26.0390   29.4430 C.3   209  CYS209      0.1712
     12  C         -4.1590   25.1250   30.5120 C.2   209  CYS209      0.2296
     13  O         -4.2620   23.9000   30.4110 O.2   209  CYS209     -0.2864
     14  CB        -3.8290   26.1340   28.2370 C.3   209  CYS209      0.0983
     15  SG        -4.6000   26.9230   26.8070 S.3   209  CYS209     -0.0798
     16  N         -5.0900   25.0020   33.7320 N.3   211  MET211     -0.1245
     17  CA        -6.0630   24.6270   34.7630 C.3   211  MET211      0.1570
     18  C         -6.3840   23.1340   34.7220 C.2   211  MET211      0.2261
     19  O         -6.3980   22.5230   33.6500 O.2   211  MET211     -0.2867
     20  CB        -7.3620   25.4170   34.5970 C.3   211  MET211      0.0387
     21  CG        -7.3290   26.8150   35.1810 C.3   211  MET211      0.0595
     22  SD        -8.9530   27.5900   35.0850 S.3   211  MET211     -0.1393
     23  CE        -8.8320   28.4590   33.5290 C.3   211  MET211      0.0692
     24  N         -9.3580   20.9260   35.2380 N.3   213  ASN213     -0.1240
     25  CA       -10.8120   21.0270   35.2870 C.3   213  ASN213      0.1653
     26  C        -11.5000   19.6660   35.3910 C.2   213  ASN213      0.2266
     27  O        -11.1300   18.7140   34.6990 O.2   213  ASN213     -0.2867
     28  CB       -11.3220   21.7360   34.0300 C.3   213  ASN213      0.1155
     29  CG       -11.0720   23.2330   34.0430 C.2   213  ASN213      0.2627
     30  OD1      -10.7690   23.8290   35.0790 O.2   213  ASN213     -0.2716
     31  ND2      -11.2090   23.8490   32.8720 N.am  213  ASN213     -0.0877
     32  N        -16.2940   18.6190   32.1440 N.3   231  TYR231     -0.1241
     33  CA       -14.8400   18.7020   31.9910 C.3   231  TYR231      0.1605
     34  C        -14.1570   17.4390   32.5110 C.2   231  TYR231      0.2264
     35  O        -14.5550   16.8910   33.5370 O.2   231  TYR231     -0.2867
     36  CB       -14.2840   19.9280   32.7260 C.3   231  TYR231      0.0534
     37  CG       -14.4190   21.2170   31.9480 C.ar  231  TYR231     -0.0201
     38  CD1      -13.4250   21.6220   31.0640 C.ar  231  TYR231     -0.0009
     39  CD2      -15.5380   22.0300   32.0920 C.ar  231  TYR231     -0.0009
     40  CE1      -13.5400   22.7990   30.3450 C.ar  231  TYR231      0.0417
     41  CE2      -15.6630   23.2100   31.3770 C.ar  231  TYR231      0.0417
     42  CZ       -14.6600   23.5900   30.5050 C.ar  231  TYR231      0.1957
     43  OH       -14.7730   24.7600   29.7900 O.3   231  TYR231     -0.2866
     44  N         -3.7010   17.5600   29.3970 N.3   239  ARG239     -0.1231
     45  CA        -4.5280   18.7640   29.4720 C.3   239  ARG239      0.1694
     46  C         -5.9470   18.3980   29.8540 C.2   239  ARG239      0.2593
     47  O         -6.3670   17.2570   29.6730 O.2   239  ARG239     -0.2718
     48  CB        -4.5470   19.5130   28.1340 C.3   239  ARG239      0.0321
     49  CG        -4.9980   18.6740   26.9460 C.3   239  ARG239      0.0489
     50  CD        -5.4760   19.5330   25.7850 C.3   239  ARG239      0.2205
     51  NE        -6.7680   20.1620   26.0600 N.pl3 239  ARG239     -0.0865
     52  CZ        -7.5130   20.8030   25.1600 C.cat 239  ARG239      0.5346
     53  NH1       -7.1150   20.9140   23.8960 N.pl3 239  ARG239      0.1354
     54  NH2       -8.6720   21.3380   25.5270 N.pl3 239  ARG239      0.1354
     55  N         -6.6840   19.3710   30.3770 N.am  240  SER240     -0.1938
     56  CA        -8.1090   19.1930   30.6080 C.3   240  SER240      0.2055
     57  C         -8.8380   19.2720   29.2750 C.2   240  SER240      0.2643
     58  O         -8.4080   19.9790   28.3610 O.2   240  SER240     -0.2714
     59  CB        -8.6520   20.2560   31.5620 C.3   240  SER240      0.2130
     60  OG        -8.0960   20.1060   32.8560 O.3   240  SER240     -0.2179
     61  N         -9.9310   18.5250   29.1690 N.am  241  VAL241     -0.1963
     62  CA       -10.8170   18.5900   28.0120 C.3   241  VAL241      0.1727
     63  C        -12.2500   18.6730   28.5190 C.2   241  VAL241      0.2616
     64  O        -12.4840   18.7160   29.7290 O.2   241  VAL241     -0.2715
     65  CB       -10.6470   17.3670   27.0830 C.3   241  VAL241      0.0290
     66  CG1       -9.2060   17.2640   26.6070 C.3   241  VAL241      0.0023
     67  CG2      -11.0810   16.0800   27.7760 C.3   241  VAL241      0.0023
     68  N        -13.2030   18.7130   27.5950 N.am  242  TYR242     -0.1974
     69  CA       -14.6140   18.6720   27.9540 C.3   242  TYR242      0.1639
     70  C        -15.4080   17.8770   26.9280 C.2   242  TYR242      0.2290
     71  O        -15.0170   17.7790   25.7640 O.2   242  TYR242     -0.2864
     72  CB       -15.1840   20.0880   28.1060 C.3   242  TYR242      0.0560
     73  CG       -15.2280   20.9020   26.8260 C.ar  242  TYR242     -0.0198
     74  CD1      -16.2580   20.7320   25.9060 C.ar  242  TYR242     -0.0009
     75  CD2      -14.2510   21.8560   26.5460 C.ar  242  TYR242     -0.0009
     76  CE1      -16.3080   21.4730   24.7390 C.ar  242  TYR242      0.0417
     77  CE2      -14.2960   22.6050   25.3790 C.ar  242  TYR242      0.0417
     78  CZ       -15.3280   22.4070   24.4800 C.ar  242  TYR242      0.1957
     79  OH       -15.3930   23.1360   23.3170 O.3   242  TYR242     -0.2866
     80  N         -8.6240   29.9200   21.6370 N.3   271  ASP271     -0.1239
     81  CA        -8.8130   29.2300   22.9180 C.3   271  ASP271      0.1674
     82  C         -7.7630   28.1360   23.1350 C.2   271  ASP271      0.2266
     83  O         -7.3240   27.9130   24.2650 O.2   271  ASP271     -0.2867
     84  CB       -10.2190   28.6150   23.0090 C.3   271  ASP271      0.1410
     85  CG       -11.2900   29.6380   23.3560 C.2   271  ASP271      0.3668
     86  OD1      -11.1610   30.8120   22.9460 O.co2 271  ASP271     -0.2456
     87  OD2      -12.2690   29.2620   24.0380 O.co2 271  ASP271     -0.2456
     88  N         -2.0030   25.9890   24.0790 N.3   275  PHE275     -0.1241
     89  CA        -1.4210   24.6440   24.0370 C.3   275  PHE275      0.1605
     90  C         -0.2850   24.5210   23.0170 C.2   275  PHE275      0.2264
     91  O          0.5400   23.6150   23.1180 O.2   275  PHE275     -0.2867
     92  CB        -2.4960   23.5990   23.7150 C.3   275  PHE275      0.0534
     93  CG        -3.5420   23.4500   24.7850 C.ar  275  PHE275     -0.0203
     94  CD1       -3.2310   22.8530   25.9990 C.ar  275  PHE275     -0.0042
     95  CD2       -4.8410   23.8910   24.5750 C.ar  275  PHE275     -0.0042
     96  CE1       -4.1900   22.7070   26.9870 C.ar  275  PHE275     -0.0003
     97  CE2       -5.8050   23.7480   25.5600 C.ar  275  PHE275     -0.0003
     98  CZ        -5.4790   23.1560   26.7680 C.ar  275  PHE275     -0.0000
@<TRIPOS>BOND
     1    80    81    1
     2    81    84    1
     3    81    82    1
     4    86    85   ar
     5    84    85    1
     6    90    91    2
     7    90    89    1
     8    82    83    2
     9    79    78    1
    10    85    87   ar
    11    92    89    1
    12    92    93    1
    13    53    52    1
    14    89    88    1
    15    78    76   ar
    16    78    77   ar
    17    95    93   ar
    18    95    97   ar
    19    76    74   ar
    20    93    94   ar
    21    52    54    1
    22    52    51    2
    23    77    75   ar
    24    97    98   ar
    25    71    70    2
    26    50    51    1
    27    50    49    1
    28    74    73   ar
    29    94    96   ar
    30    75    73   ar
    31    66    65    1
    32    98    96   ar
    33    15    14    1
    34    73    72    1
    35    70    69    1
    36    49    48    1
    37    65    67    1
    38    65    62    1
    39     9     8    1
    40    68    69    1
    41    68    63   am
    42    69    72    1
    43     8     7    1
    44    62    63    1
    45    62    61    1
    46    48    45    1
    47    14    11    1
    48    58    57    2
    49     7     6    1
    50    63    64    2
    51    61    57   am
    52    57    56    1
    53     6     5    1
    54    44    45    1
    55    11    10    1
    56    11    12    1
    57    45    46    1
    58    47    46    2
    59    43    42    1
    60    46    55   am
    61     5     2    1
    62    10     3   am
    63    40    42   ar
    64    40    38   ar
    65    55    56    1
    66    13    12    2
    67    42    41   ar
    68    56    59    1
    69     3     4    2
    70     3     2    1
    71    38    37   ar
    72     2     1    1
    73    41    39   ar
    74    59    60    1
    75    37    39   ar
    76    37    36    1
    77    33    32    1
    78    33    34    1
    79    33    36    1
    80    34    35    2
    81    31    29   am
    82    23    22    1
    83    19    18    2
    84    16    17    1
    85    28    29    1
    86    28    25    1
    87    29    30    2
    88    20    17    1
    89    20    21    1
    90    27    26    2
    91    18    17    1
    92    22    21    1
    93    24    25    1
    94    25    26    1
