@<TRIPOS>MOLECULE
tmp/4q4eA00.pdb
 220 210 0 0 0
SMALL
GASTEIGER

@<TRIPOS>ATOM
      1  N         48.0880  -33.6160  -42.2110 N.3   117  GLU117     -0.1245
      2  CA        47.2560  -34.7600  -42.6670 C.3   117  GLU117      0.1567
      3  C         45.8520  -34.2370  -43.0390 C.2   117  GLU117      0.2260
      4  O         45.3030  -33.3750  -42.3240 O.2   117  GLU117     -0.2867
      5  CB        47.1590  -35.8640  -41.5840 C.3   117  GLU117      0.0388
      6  CG        46.5070  -37.1390  -42.1320 C.3   117  GLU117      0.1160
      7  CD        46.3550  -38.2400  -41.1210 C.2   117  GLU117      0.3649
      8  OE1       46.9300  -38.1090  -40.0160 O.co2 117  GLU117     -0.2457
      9  OE2       45.8180  -39.3090  -41.4860 O.co2 117  GLU117     -0.2457
     10  N         41.9190  -28.8730  -35.4520 N.3   255  ASN255     -0.1225
     11  CA        40.7180  -29.4270  -36.0510 C.3   255  ASN255      0.1785
     12  C         40.4180  -30.8230  -35.5620 C.2   255  ASN255      0.2597
     13  O         39.2590  -31.1930  -35.3760 O.2   255  ASN255     -0.2718
     14  CB        40.8270  -29.4330  -37.6130 C.3   255  ASN255      0.1169
     15  CG        40.6480  -28.0590  -38.1580 C.2   255  ASN255      0.2627
     16  OD1       40.0070  -27.1890  -37.5280 O.2   255  ASN255     -0.2716
     17  ND2       41.1820  -27.8310  -39.3160 N.am  255  ASN255     -0.0877
     18  N         41.4550  -31.6110  -35.3750 N.am  256  MET256     -0.1965
     19  CA        41.3020  -33.0150  -34.9620 C.3   256  MET256      0.1736
     20  C         41.6460  -33.1370  -33.4510 C.2   256  MET256      0.2617
     21  O         41.8150  -32.1360  -32.7580 O.2   256  MET256     -0.2715
     22  CB        42.1080  -33.8980  -35.8440 C.3   256  MET256      0.0427
     23  CG        41.8480  -33.7910  -37.3780 C.3   256  MET256      0.0599
     24  SD        40.0760  -34.0110  -37.7850 S.3   256  MET256     -0.1393
     25  CE        39.8510  -35.7620  -37.6370 C.3   256  MET256      0.0692
     26  N         41.6190  -34.3500  -32.9480 N.am  257  GLY257     -0.1940
     27  CA        41.9000  -34.6520  -31.5880 C.3   257  GLY257      0.2014
     28  C         43.3970  -34.5490  -31.3040 C.2   257  GLY257      0.2639
     29  O         43.8280  -34.0280  -30.2930 O.2   257  GLY257     -0.2714
     30  N         44.1560  -35.1080  -32.2270 N.am  258  ALA258     -0.1963
     31  CA        45.6010  -35.0820  -32.0870 C.3   258  ALA258      0.1728
     32  C         46.1930  -35.6800  -33.3790 C.2   258  ALA258      0.2616
     33  O         45.4660  -36.2160  -34.2480 O.2   258  ALA258     -0.2715
     34  CB        46.0020  -35.8920  -30.8510 C.3   258  ALA258      0.0334
     35  N         47.5250  -35.6400  -33.4940 N.am  259  MET259     -0.1963
     36  CA        48.1990  -36.0370  -34.7470 C.3   259  MET259      0.1736
     37  C         49.5470  -36.6670  -34.4370 C.2   259  MET259      0.2616
     38  O         50.2780  -36.1390  -33.6350 O.2   259  MET259     -0.2715
     39  CB        48.4560  -34.8190  -35.5980 C.3   259  MET259      0.0427
     40  CG        49.2550  -35.1000  -36.8430 C.3   259  MET259      0.0599
     41  SD        48.3310  -36.1630  -37.9810 S.3   259  MET259     -0.1393
     42  CE        49.6680  -37.0520  -38.7230 C.3   259  MET259      0.0692
     43  N         49.8310  -37.7890  -35.0860 N.am  260  GLU260     -0.1977
     44  CA        51.0060  -38.6720  -34.8150 C.3   260  GLU260      0.1602
     45  C         52.3030  -38.2860  -35.5180 C.2   260  GLU260      0.2287
     46  O         53.1360  -39.1250  -35.8510 O.2   260  GLU260     -0.2864
     47  CB        50.6130  -40.0680  -35.1920 C.3   260  GLU260      0.0415
     48  CG        50.4680  -40.3400  -36.7180 C.3   260  GLU260      0.1163
     49  CD        49.0310  -40.2560  -37.2420 C.2   260  GLU260      0.3649
     50  OE1       48.1690  -39.4940  -36.6660 O.co2 260  GLU260     -0.2457
     51  OE2       48.7780  -40.8980  -38.2960 O.co2 260  GLU260     -0.2457
     52  N         45.3300  -31.5700  -29.6930 N.3   268  ASN268     -0.1240
     53  CA        44.3460  -30.6030  -29.2180 C.3   268  ASN268      0.1653
     54  C         44.4750  -30.6410  -27.6660 C.2   268  ASN268      0.2266
     55  O         44.5260  -31.7090  -27.0730 O.2   268  ASN268     -0.2867
     56  CB        42.9720  -31.1600  -29.5930 C.3   268  ASN268      0.1155
     57  CG        41.8310  -30.2090  -29.2960 C.2   268  ASN268      0.2627
     58  OD1       41.6870  -29.6250  -28.2280 O.2   268  ASN268     -0.2716
     59  ND2       40.9710  -30.1070  -30.2580 N.am  268  ASN268     -0.0877
     60  N         42.5050  -30.3850  -25.4280 N.3   270  LYS270     -0.1231
     61  CA        41.4170  -31.1750  -24.7790 C.3   270  LYS270      0.1693
     62  C         41.8870  -32.5570  -24.4560 C.2   270  LYS270      0.2592
     63  O         41.4220  -33.1730  -23.5190 O.2   270  LYS270     -0.2718
     64  CB        40.2040  -31.2740  -25.7110 C.3   270  LYS270      0.0285
     65  CG        39.0100  -32.0520  -25.1330 C.3   270  LYS270      0.0035
     66  CD        37.7880  -31.9480  -26.1020 C.3   270  LYS270      0.0206
     67  CE        37.2860  -30.4710  -26.3080 C.3   270  LYS270      0.1093
     68  NZ        36.6320  -29.6840  -25.2210 N.3   270  LYS270     -0.1314
     69  N         42.8030  -33.0700  -25.2460 N.am  271  TYR271     -0.1976
     70  CA        43.3310  -34.3950  -25.0280 C.3   271  TYR271      0.1639
     71  C         44.7180  -34.4680  -24.3740 C.2   271  TYR271      0.2290
     72  O         45.4170  -35.5060  -24.4580 O.2   271  TYR271     -0.2864
     73  CB        43.2510  -35.2400  -26.3390 C.3   271  TYR271      0.0560
     74  CG        41.8440  -35.3340  -26.7710 C.ar  271  TYR271     -0.0198
     75  CD1       40.9250  -35.9620  -25.9630 C.ar  271  TYR271     -0.0009
     76  CD2       41.4110  -34.7360  -27.9320 C.ar  271  TYR271     -0.0009
     77  CE1       39.5850  -36.0010  -26.2710 C.ar  271  TYR271      0.0417
     78  CE2       40.0500  -34.7510  -28.2670 C.ar  271  TYR271      0.0417
     79  CZ        39.1480  -35.4120  -27.4260 C.ar  271  TYR271      0.1957
     80  OH        37.7930  -35.3360  -27.6760 O.3   271  TYR271     -0.2866
     81  N         43.4570  -42.6570  -23.8000 N.3   289  ARG289     -0.1182
     82  CA        43.3120  -43.3280  -25.0460 C.3   289  ARG289      0.1910
     83  C         43.9210  -42.5520  -26.2330 C.2   289  ARG289      0.2634
     84  O         44.4060  -43.1350  -27.1990 O.2   289  ARG289     -0.2714
     85  CB        41.8310  -43.7060  -25.2440 C.2   289  ARG289      0.0007
     86  CG        40.9710  -42.7580  -25.9240 C.2   289  ARG289      0.0176
     87  CD        39.4230  -43.0650  -25.9740 C.3   289  ARG289      0.2464
     88  NE        39.0580  -44.2160  -25.1920 N.pl3 289  ARG289     -0.0815
     89  CZ        38.5310  -44.3400  -23.9800 C.cat 289  ARG289      0.5349
     90  NH1       37.9890  -43.3990  -23.2120 N.pl3 289  ARG289      0.1354
     91  NH2       38.4860  -45.5750  -23.5730 N.pl3 289  ARG289      0.1354
     92  N         43.7780  -41.2420  -26.2610 N.am  290  VAL290     -0.1977
     93  CA        44.3300  -40.4570  -27.3680 C.3   290  VAL290      0.1596
     94  C         45.8530  -40.3900  -27.3390 C.2   290  VAL290      0.2287
     95  O         46.4900  -40.5130  -28.3910 O.2   290  VAL290     -0.2864
     96  CB        43.7170  -39.0460  -27.4100 C.3   290  VAL290      0.0276
     97  CG1       44.3580  -38.1770  -28.4900 C.3   290  VAL290      0.0022
     98  CG2       42.2260  -39.1170  -27.6010 C.3   290  VAL290      0.0022
     99  N         46.7720  -43.7870  -28.5820 N.3   293  HIS293     -0.1226
    100  CA        46.4930  -43.8560  -30.0410 C.3   293  HIS293      0.1752
    101  C         47.6270  -43.2410  -30.8330 C.2   293  HIS293      0.2595
    102  O         48.1170  -43.8770  -31.7590 O.2   293  HIS293     -0.2718
    103  CB        45.1720  -43.1170  -30.3190 C.3   293  HIS293      0.0759
    104  CG        44.7330  -43.1390  -31.7590 C.ar  293  HIS293      0.0818
    105  ND1       43.8920  -44.1080  -32.2520 N.ar  293  HIS293     -0.2268
    106  CD2       45.0310  -42.3340  -32.8040 C.ar  293  HIS293      0.1154
    107  CE1       43.7150  -43.9240  -33.5450 C.ar  293  HIS293      0.1986
    108  NE2       44.4130  -42.8790  -33.9200 N.ar  293  HIS293     -0.2212
    109  N         48.0330  -42.0100  -30.5030 N.am  294  GLU294     -0.1979
    110  CA        49.0450  -41.3570  -31.2960 C.3   294  GLU294      0.1602
    111  C         50.3650  -42.0640  -31.1440 C.2   294  GLU294      0.2287
    112  O         51.1130  -42.1640  -32.0840 O.2   294  GLU294     -0.2864
    113  CB        49.1560  -39.9050  -30.9550 C.3   294  GLU294      0.0415
    114  CG        47.7930  -39.1160  -31.0230 C.3   294  GLU294      0.1163
    115  CD        47.0970  -39.1780  -32.3890 C.2   294  GLU294      0.3649
    116  OE1       47.7920  -39.4370  -33.3680 O.co2 294  GLU294     -0.2457
    117  OE2       45.8670  -38.8950  -32.4560 O.co2 294  GLU294     -0.2457
    118  N         50.4820  -45.2550  -33.3010 N.3   297  HIS297     -0.1241
    119  CA        50.7590  -44.9290  -34.6870 C.3   297  HIS297      0.1621
    120  C         52.2500  -44.9750  -35.0320 C.2   297  HIS297      0.2264
    121  O         52.6030  -45.0860  -36.2060 O.2   297  HIS297     -0.2867
    122  CB        50.2330  -43.5470  -35.0400 C.3   297  HIS297      0.0745
    123  CG        48.8120  -43.4840  -35.5660 C.ar  297  HIS297      0.0817
    124  ND1       48.3390  -44.2890  -36.5810 N.ar  297  HIS297     -0.2268
    125  CD2       47.7960  -42.6400  -35.2590 C.ar  297  HIS297      0.1154
    126  CE1       47.1070  -43.9290  -36.8740 C.ar  297  HIS297      0.1986
    127  NE2       46.7750  -42.9260  -36.0940 N.ar  297  HIS297     -0.2212
    128  N         44.2810  -46.4330  -39.3730 N.3   316  GLU316     -0.1245
    129  CA        43.3340  -45.9650  -38.3510 C.3   316  GLU316      0.1567
    130  C         42.5100  -47.0990  -37.7150 C.2   316  GLU316      0.2260
    131  O         42.3550  -47.1120  -36.4970 O.2   316  GLU316     -0.2867
    132  CB        42.4370  -44.8310  -38.8660 C.3   316  GLU316      0.0388
    133  CG        43.1600  -43.5600  -39.3210 C.3   316  GLU316      0.1160
    134  CD        44.0040  -42.9510  -38.2530 C.2   316  GLU316      0.3649
    135  OE1       43.8040  -43.2720  -37.0300 O.co2 316  GLU316     -0.2457
    136  OE2       44.8320  -42.0720  -38.6120 O.co2 316  GLU316     -0.2457
    137  N         43.1440  -47.7480  -33.8260 N.3   320  VAL320     -0.1245
    138  CA        42.0330  -47.7200  -32.9420 C.3   320  VAL320      0.1561
    139  C         41.8760  -49.0760  -32.2200 C.2   320  VAL320      0.2260
    140  O         41.6180  -49.0980  -31.0030 O.2   320  VAL320     -0.2867
    141  CB        40.6960  -47.4160  -33.6750 C.3   320  VAL320      0.0252
    142  CG1       39.4840  -47.6610  -32.7110 C.3   320  VAL320      0.0019
    143  CG2       40.6900  -45.9800  -34.1710 C.3   320  VAL320      0.0019
    144  N         44.3850  -48.8570  -29.4980 N.3   323  ASP323     -0.1239
    145  CA        44.0250  -47.9910  -28.3930 C.3   323  ASP323      0.1674
    146  C         42.8960  -48.6230  -27.5450 C.2   323  ASP323      0.2266
    147  O         42.8890  -48.4710  -26.3350 O.2   323  ASP323     -0.2867
    148  CB        43.7890  -46.5040  -28.7660 C.3   323  ASP323      0.1410
    149  CG        42.3680  -46.1650  -29.3680 C.2   323  ASP323      0.3668
    150  OD1       41.3130  -46.4080  -28.7110 O.co2 323  ASP323     -0.2456
    151  OD2       42.3200  -45.5540  -30.4720 O.co2 323  ASP323     -0.2456
    152  N         37.6360  -39.2300  -42.5980 N.3   372  TYR372     -0.1227
    153  CA        38.0660  -39.5600  -41.2380 C.3   372  TYR372      0.1736
    154  C         36.8210  -39.8950  -40.4520 C.2   372  TYR372      0.2596
    155  O         36.3420  -39.0760  -39.6290 O.2   372  TYR372     -0.2718
    156  CB        38.8930  -38.3800  -40.6670 C.3   372  TYR372      0.0548
    157  CG        40.2560  -38.3350  -41.3400 C.ar  372  TYR372     -0.0200
    158  CD1       40.4090  -37.8760  -42.6740 C.ar  372  TYR372     -0.0009
    159  CD2       41.3760  -38.8710  -40.6950 C.ar  372  TYR372     -0.0009
    160  CE1       41.6380  -38.0070  -43.3240 C.ar  372  TYR372      0.0417
    161  CE2       42.5940  -38.9940  -41.3420 C.ar  372  TYR372      0.0417
    162  CZ        42.7160  -38.5030  -42.6470 C.ar  372  TYR372      0.1957
    163  OH        43.9120  -38.6310  -43.2700 O.3   372  TYR372     -0.2866
    164  N         36.2790  -41.0790  -40.6860 N.am  373  THR373     -0.1939
    165  CA        34.8860  -41.3620  -40.3440 C.3   373  THR373      0.2028
    166  C         34.7690  -42.4660  -39.2890 C.2   373  THR373      0.2642
    167  O         35.6830  -43.2500  -39.0720 O.2   373  THR373     -0.2714
    168  CB        34.1600  -41.8190  -41.5890 C.3   373  THR373      0.1808
    169  OG1       34.8580  -42.9290  -42.1600 O.3   373  THR373     -0.2208
    170  CG2       34.0420  -40.6680  -42.6010 C.3   373  THR373      0.0379
    171  N         33.5880  -42.5140  -38.6630 N.am  374  LEU374     -0.1977
    172  CA        33.2070  -43.5870  -37.8300 C.3   374  LEU374      0.1596
    173  C         33.4070  -44.9090  -38.5310 C.2   374  LEU374      0.2287
    174  O         33.7880  -45.8950  -37.9130 O.2   374  LEU374     -0.2864
    175  CB        31.7250  -43.4340  -37.4620 C.3   374  LEU374      0.0297
    176  CG        31.3880  -42.2560  -36.5700 C.3   374  LEU374      0.0022
    177  CD1       29.9060  -41.9780  -36.7030 C.3   374  LEU374      0.0001
    178  CD2       31.7520  -42.6070  -35.1570 C.3   374  LEU374      0.0001
    179  N         37.4160  -45.5900  -38.9260 N.3   377  TYR377     -0.1241
    180  CA        37.9740  -45.7660  -37.5640 C.3   377  TYR377      0.1605
    181  C         37.2900  -46.9370  -36.8220 C.2   377  TYR377      0.2264
    182  O         37.9310  -47.9020  -36.4620 O.2   377  TYR377     -0.2867
    183  CB        37.8050  -44.4820  -36.7760 C.3   377  TYR377      0.0534
    184  CG        38.8420  -43.4250  -37.0820 C.ar  377  TYR377     -0.0201
    185  CD1       38.8620  -42.7820  -38.3030 C.ar  377  TYR377     -0.0009
    186  CD2       39.8210  -43.1090  -36.1570 C.ar  377  TYR377     -0.0009
    187  CE1       39.8060  -41.7860  -38.5940 C.ar  377  TYR377      0.0417
    188  CE2       40.7830  -42.1560  -36.4300 C.ar  377  TYR377      0.0417
    189  CZ        40.8180  -41.5140  -37.6470 C.ar  377  TYR377      0.1957
    190  OH        41.7620  -40.5750  -37.9430 O.3   377  TYR377     -0.2866
    191  N         36.9330  -26.3150  -30.9360 N.3   776  ASN776     -0.1240
    192  CA        36.3500  -26.9480  -29.7860 C.3   776  ASN776      0.1653
    193  C         35.0770  -26.1930  -29.3550 C.2   776  ASN776      0.2266
    194  O         34.0830  -26.8430  -28.9990 O.2   776  ASN776     -0.2867
    195  CB        37.2890  -26.9770  -28.5960 C.3   776  ASN776      0.1155
    196  CG        38.5030  -27.9370  -28.7940 C.2   776  ASN776      0.2627
    197  OD1       38.5180  -28.7290  -29.6750 O.2   776  ASN776     -0.2716
    198  ND2       39.5650  -27.7160  -28.0460 N.am  776  ASN776     -0.0877
    199  N         32.2870  -27.0720  -31.8260 N.3   779  ARG779     -0.1245
    200  CA        31.7800  -28.3950  -31.5930 C.3   779  ARG779      0.1563
    201  C         30.9450  -28.5070  -30.3290 C.2   779  ARG779      0.2260
    202  O         29.9130  -29.2090  -30.2820 O.2   779  ARG779     -0.2867
    203  CB        32.9360  -29.3880  -31.4780 C.3   779  ARG779      0.0307
    204  CG        33.5800  -29.6810  -32.8320 C.3   779  ARG779      0.0489
    205  CD        34.6490  -30.7710  -32.7290 C.3   779  ARG779      0.2205
    206  NE        35.9620  -30.3370  -32.1770 N.pl3 779  ARG779     -0.0865
    207  CZ        37.0160  -30.0250  -32.9250 C.cat 779  ARG779      0.5346
    208  NH1       36.9330  -30.0940  -34.2820 N.pl3 779  ARG779      0.1354
    209  NH2       38.2040  -29.7320  -32.3150 N.pl3 779  ARG779      0.1354
    210  N         32.0560  -31.6210  -40.6710 N.3   821  ARG821     -0.1245
    211  CA        31.5790  -32.4660  -39.5500 C.3   821  ARG821      0.1563
    212  C         30.2080  -31.9630  -39.1090 C.2   821  ARG821      0.2260
    213  O         29.2950  -32.7480  -38.7520 O.2   821  ARG821     -0.2867
    214  CB        32.5780  -32.4560  -38.3690 C.3   821  ARG821      0.0307
    215  CG        33.8840  -33.1690  -38.6510 C.3   821  ARG821      0.0489
    216  CD        34.3080  -34.0640  -37.4560 C.3   821  ARG821      0.2205
    217  NE        35.2970  -34.9200  -38.0410 N.pl3 821  ARG821     -0.0865
    218  CZ        35.1320  -36.1690  -38.4730 C.cat 821  ARG821      0.5346
    219  NH1       34.0640  -36.8950  -38.2010 N.pl3 821  ARG821      0.1354
    220  NH2       36.1260  -36.6940  -39.1080 N.pl3 821  ARG821      0.1354
@<TRIPOS>BOND
     1   160   158   ar
     2   160   162   ar
     3   163   162    1
     4     3     2    1
     5     3     4    2
     6   158   157   ar
     7     2     1    1
     8     2     5    1
     9   162   161   ar
    10   170   168    1
    11   152   153    1
    12   169   168    1
    13     6     5    1
    14     6     7    1
    15   168   165    1
    16     9     7   ar
    17   161   159   ar
    18   157   159   ar
    19   157   156    1
    20   153   156    1
    21   153   154    1
    22     7     8   ar
    23   164   154   am
    24   164   165    1
    25   210   211    1
    26   154   155    2
    27   165   166    1
    28   211   212    1
    29   211   214    1
    30   128   129    1
    31   133   132    1
    32   133   134    1
    33    17    15   am
    34   166   167    2
    35   166   171   am
    36   212   213    2
    37   220   218    1
    38   179   180    1
    39   132   129    1
    40    42    41    1
    41   171   172    1
    42   215   214    1
    43   215   216    1
    44   136   134   ar
    45   187   185   ar
    46   187   189   ar
    47   173   174    2
    48   173   172    1
    49   218   219    1
    50   218   217    2
    51   129   130    1
    52   185   184   ar
    53    51    49   ar
    54   134   135   ar
    55    15    14    1
    56    15    16    2
    57   217   216    1
    58    41    40    1
    59   190   189    1
    60   172   175    1
    61    24    25    1
    62    24    23    1
    63   130   131    2
    64   189   188   ar
    65    14    11    1
    66   180   181    1
    67   180   183    1
    68   175   176    1
    69    23    22    1
    70    49    48    1
    71    49    50   ar
    72   184   183    1
    73   184   186   ar
    74   126   124   ar
    75   126   127   ar
    76    40    39    1
    77   181   182    2
    78    48    47    1
    79   177   176    1
    80   124   123   ar
    81   176   178    1
    82   188   186   ar
    83   121   120    2
    84   127   125   ar
    85    11    12    1
    86    11    10    1
    87    46    45    2
    88    22    19    1
    89    39    36    1
    90   123   125   ar
    91   123   122    1
    92    12    13    2
    93    12    18   am
    94    45    44    1
    95    18    19    1
    96    47    44    1
    97    43    44    1
    98    43    37   am
    99   122   119    1
   100   120   119    1
   101    19    20    1
   102    36    37    1
   103    36    35    1
   104   119   118    1
   105    37    38    2
   106   208   207    1
   107    33    32    2
   108   143   141    1
   109   108   107   ar
   110   108   106   ar
   111   137   138    1
   112   141   138    1
   113   141   142    1
   114   107   105   ar
   115    35    32   am
   116    20    26   am
   117    20    21    2
   118    32    31    1
   119   116   115   ar
   120    26    27    1
   121   138   139    1
   122   207   209    1
   123   207   206    2
   124   204   205    1
   125   204   203    1
   126   106   104   ar
   127   205   206    1
   128   117   115   ar
   129   115   114    1
   130   105   104   ar
   131    30    31    1
   132    30    28   am
   133   139   140    2
   134    31    34    1
   135   112   111    2
   136   199   200    1
   137   102   101    2
   138   104   103    1
   139   200   203    1
   140   200   201    1
   141    27    28    1
   142    28    29    2
   143   110   111    1
   144   110   113    1
   145   110   109    1
   146   114   113    1
   147   191   192    1
   148   101   109   am
   149   101   100    1
   150   151   149   ar
   151   201   202    2
   152   103   100    1
   153    59    57   am
   154   100    99    1
   155   192   193    1
   156   192   195    1
   157    52    53    1
   158   197   196    2
   159    56    57    1
   160    56    53    1
   161   144   145    1
   162   149   148    1
   163   149   150   ar
   164   193   194    2
   165    57    58    2
   166    53    54    1
   167   196   195    1
   168   196   198   am
   169   148   145    1
   170    97    96    1
   171   145   146    1
   172    95    94    2
   173    78    76   ar
   174    78    79   ar
   175    76    74   ar
   176    80    79    1
   177    54    55    2
   178    98    96    1
   179   146   147    2
   180    79    77   ar
   181    96    93    1
   182    93    94    1
   183    93    92    1
   184    84    83    2
   185    74    73    1
   186    74    75   ar
   187    73    70    1
   188    67    66    1
   189    67    68    1
   190    77    75   ar
   191    92    83   am
   192    83    82    1
   193    66    65    1
   194    87    86    1
   195    87    88    1
   196    86    85    2
   197    64    65    1
   198    64    61    1
   199    60    61    1
   200    69    70    1
   201    69    62   am
   202    85    82    1
   203    88    89    2
   204    82    81    1
   205    70    71    1
   206    61    62    1
   207    72    71    2
   208    62    63    2
   209    89    91    1
   210    89    90    1
