@<TRIPOS>MOLECULE
tmp/4q4fA06.pdb
 112 105 0 0 0
SMALL
GASTEIGER

@<TRIPOS>ATOM
      1  N         19.0880  -19.5490   36.1440 N.3   109  GLU109     -0.1245
      2  CA        17.9820  -18.8060   35.5530 C.3   109  GLU109      0.1567
      3  C         17.4140  -19.5200   34.3320 C.2   109  GLU109      0.2260
      4  O         16.2000  -19.5430   34.1430 O.2   109  GLU109     -0.2867
      5  CB        18.3930  -17.3710   35.1930 C.3   109  GLU109      0.0388
      6  CG        17.8320  -16.3170   36.1380 C.3   109  GLU109      0.1160
      7  CD        16.3220  -16.1270   36.0080 C.2   109  GLU109      0.3649
      8  OE1       15.6990  -16.7050   35.0830 O.co2 109  GLU109     -0.2457
      9  OE2       15.7470  -15.3870   36.8360 O.co2 109  GLU109     -0.2457
     10  N         15.4750  -22.5730   35.4780 N.3   112  GLN112     -0.1231
     11  CA        14.2040  -22.1070   36.0080 C.3   112  GLN112      0.1698
     12  C         13.2260  -21.7480   34.8880 C.2   112  GLN112      0.2592
     13  O         12.0230  -21.8910   35.0560 O.2   112  GLN112     -0.2718
     14  CB        14.4210  -20.9130   36.9470 C.3   112  GLN112      0.0381
     15  CG        15.1890  -21.2480   38.2240 C.3   112  GLN112      0.0905
     16  CD        14.3400  -21.9750   39.2590 C.2   112  GLN112      0.2608
     17  OE1       14.4830  -23.1850   39.4680 O.2   112  GLN112     -0.2717
     18  NE2       13.4490  -21.2380   39.9130 N.am  112  GLN112     -0.0878
     19  N         13.7480  -21.3040   33.7460 N.am  113  VAL113     -0.1966
     20  CA        12.9250  -21.0030   32.5700 C.3   113  VAL113      0.1727
     21  C         12.8070  -22.2380   31.6560 C.2   113  VAL113      0.2616
     22  O         12.4480  -22.1320   30.4810 O.2   113  VAL113     -0.2715
     23  CB        13.4830  -19.7630   31.8160 C.3   113  VAL113      0.0290
     24  CG1       12.6320  -19.3900   30.6020 C.3   113  VAL113      0.0023
     25  CG2       13.5480  -18.5660   32.7550 C.3   113  VAL113      0.0023
     26  N         13.0900  -23.4140   32.2170 N.am  114  HIS114     -0.1973
     27  CA        13.0060  -24.6890   31.4970 C.3   114  HIS114      0.1656
     28  C         13.7770  -24.6390   30.1880 C.2   114  HIS114      0.2291
     29  O         13.2770  -25.0600   29.1410 O.2   114  HIS114     -0.2864
     30  CB        11.5450  -25.1040   31.2740 C.3   114  HIS114      0.0771
     31  CG        10.8410  -25.5450   32.5240 C.ar  114  HIS114      0.0820
     32  ND1       11.4080  -25.4530   33.7780 N.ar  114  HIS114     -0.2267
     33  CD2        9.6010  -26.0520   32.7140 C.ar  114  HIS114      0.1154
     34  CE1       10.5570  -25.9040   34.6810 C.ar  114  HIS114      0.1986
     35  NE2        9.4510  -26.2710   34.0610 N.ar  114  HIS114     -0.2212
     36  N          8.7390   -6.5790   32.2030 N.3   277  ILE277     -0.1231
     37  CA         8.2630   -7.9060   31.7850 C.3   277  ILE277      0.1678
     38  C          8.2300   -8.8470   32.9930 C.2   277  ILE277      0.2434
     39  O          9.1170   -8.7800   33.8450 O.2   277  ILE277     -0.2733
     40  CB         9.1860   -8.5180   30.6950 C.3   277  ILE277      0.0265
     41  CG1        9.2490   -7.6230   29.4550 C.3   277  ILE277      0.0019
     42  CG2        8.7560   -9.9170   30.2590 C.3   277  ILE277      0.0020
     43  CD1       10.6430   -7.1220   29.1780 C.3   277  ILE277      0.0001
     44  N          7.2240   -9.7390   33.0650 N.am  278  PRO278     -0.2729
     45  CA         6.1410   -9.9880   32.1010 C.3   278  PRO278      0.1401
     46  C          4.9310   -9.0660   32.2480 C.2   278  PRO278      0.2269
     47  O          4.5790   -8.3660   31.3000 O.2   278  PRO278     -0.2865
     48  CB         5.7520  -11.4530   32.3650 C.3   278  PRO278      0.0296
     49  CG         6.5750  -11.9150   33.5310 C.3   278  PRO278      0.0237
     50  CD         7.1840  -10.7080   34.1700 C.3   278  PRO278      0.0939
     51  N          5.4350   -5.5620   36.2680 N.3   281  ASN281     -0.1240
     52  CA         5.6870   -5.5720   37.7030 C.3   281  ASN281      0.1653
     53  C          7.1350   -5.1700   37.9930 C.2   281  ASN281      0.2266
     54  O          8.0350   -6.0070   37.9260 O.2   281  ASN281     -0.2867
     55  CB         5.3780   -6.9600   38.2680 C.3   281  ASN281      0.1155
     56  CG         4.5860   -6.8950   39.5540 C.2   281  ASN281      0.2627
     57  OD1        4.9580   -6.1840   40.4850 O.2   281  ASN281     -0.2716
     58  ND2        3.4800   -7.6320   39.6120 N.am  281  ASN281     -0.0877
     59  N         10.6510   -3.5910   39.7940 N.3   283  LEU283     -0.1245
     60  CA        11.4280   -3.7770   41.0240 C.3   283  LEU283      0.1561
     61  C         11.5190   -2.5410   41.9110 C.2   283  LEU283      0.2260
     62  O         11.8760   -2.6520   43.0830 O.2   283  LEU283     -0.2867
     63  CB        12.8570   -4.1900   40.6840 C.3   283  LEU283      0.0270
     64  CG        13.0600   -5.6230   40.2120 C.3   283  LEU283      0.0019
     65  CD1       14.4340   -5.7560   39.5700 C.3   283  LEU283      0.0001
     66  CD2       12.8960   -6.6070   41.3650 C.3   283  LEU283      0.0001
     67  N         15.5990   -4.3900   34.5520 N.3   289  ASN289     -0.1240
     68  CA        15.8130   -5.8090   34.2640 C.3   289  ASN289      0.1653
     69  C         15.9900   -6.0340   32.7740 C.2   289  ASN289      0.2266
     70  O         15.0630   -5.8310   31.9950 O.2   289  ASN289     -0.2867
     71  CB        14.6430   -6.6220   34.8120 C.3   289  ASN289      0.1155
     72  CG        14.6000   -8.0600   34.3080 C.2   289  ASN289      0.2627
     73  OD1       15.4670   -8.5300   33.5710 O.2   289  ASN289     -0.2716
     74  ND2       13.5460   -8.7660   34.7200 N.am  289  ASN289     -0.0877
     75  N         17.4250   -9.0160   31.5100 N.3   291  SER291     -0.1202
     76  CA        17.5970  -10.4410   31.2790 C.3   291  SER291      0.2020
     77  C         17.3640  -10.7840   29.8120 C.2   291  SER291      0.2618
     78  O         18.2260  -11.3850   29.1700 O.2   291  SER291     -0.2717
     79  CB        16.6450  -11.2350   32.1810 C.3   291  SER291      0.2103
     80  OG        16.5300  -12.5890   31.7750 O.3   291  SER291     -0.2182
     81  N         16.2120  -10.3690   29.2890 N.am  292  ILE292     -0.1979
     82  CA        15.8220  -10.6800   27.9060 C.3   292  ILE292      0.1595
     83  C         16.9510  -10.4410   26.9210 C.2   292  ILE292      0.2287
     84  O         17.4100  -11.3690   26.2680 O.2   292  ILE292     -0.2864
     85  CB        14.5870   -9.8960   27.3630 C.3   292  ILE292      0.0276
     86  CG1       13.9420   -8.9670   28.3970 C.3   292  ILE292      0.0022
     87  CG2       13.5510  -10.8640   26.8020 C.3   292  ILE292      0.0022
     88  CD1       14.6710   -7.6500   28.5840 C.3   292  ILE292      0.0001
     89  N         18.8710  -14.1440   28.7400 N.3   296  GLY296     -0.1225
     90  CA        18.2820  -14.8020   29.8990 C.3   296  GLY296      0.1811
     91  C         19.0830  -14.7440   31.1900 C.2   296  GLY296      0.2280
     92  O         18.7080  -15.3780   32.1710 O.2   296  GLY296     -0.2866
     93  N         20.6270   -6.7820   35.9400 N.3   300  ILE300     -0.1245
     94  CA        19.8620   -5.5780   36.2100 C.3   300  ILE300      0.1561
     95  C         20.7820   -4.3940   36.0300 C.2   300  ILE300      0.2260
     96  O         21.7650   -4.2670   36.7470 O.2   300  ILE300     -0.2867
     97  CB        19.3290   -5.5410   37.6580 C.3   300  ILE300      0.0252
     98  CG1       18.5860   -6.8380   38.0050 C.3   300  ILE300      0.0019
     99  CG2       18.4490   -4.3150   37.8750 C.3   300  ILE300      0.0019
    100  CD1       17.3950   -7.1390   37.1250 C.3   300  ILE300      0.0001
    101  N         20.4170   -9.8430   39.9050 N.3   352  TYR352     -0.1241
    102  CA        19.3090  -10.1960   40.7820 C.3   352  TYR352      0.1605
    103  C         19.6420  -11.5160   41.4450 C.2   352  TYR352      0.2264
    104  O         20.0240  -12.4680   40.7670 O.2   352  TYR352     -0.2867
    105  CB        18.0050  -10.3240   40.0000 C.3   352  TYR352      0.0534
    106  CG        16.8080  -10.5430   40.8930 C.ar  352  TYR352     -0.0201
    107  CD1       16.2520   -9.4850   41.6210 C.ar  352  TYR352     -0.0009
    108  CD2       16.2320  -11.8040   41.0230 C.ar  352  TYR352     -0.0009
    109  CE1       15.1520   -9.6760   42.4460 C.ar  352  TYR352      0.0417
    110  CE2       15.1310  -12.0090   41.8460 C.ar  352  TYR352      0.0417
    111  CZ        14.5950  -10.9450   42.5580 C.ar  352  TYR352      0.1957
    112  OH        13.5050  -11.1500   43.3760 O.3   352  TYR352     -0.2866
@<TRIPOS>BOND
     1    84    83    2
     2    87    85    1
     3    83    82    1
     4    85    82    1
     5    85    86    1
     6    82    81    1
     7    86    88    1
     8    89    90    1
     9    29    28    2
    10    78    77    2
    11    43    41    1
    12    81    77   am
    13    41    40    1
    14    77    76    1
    15    90    91    1
    16    28    27    1
    17    42    40    1
    18    22    21    2
    19    24    23    1
    20    40    37    1
    21    91    92    2
    22    30    27    1
    23    30    31    1
    24    76    75    1
    25    76    79    1
    26    47    46    2
    27    27    26    1
    28    21    26   am
    29    21    20    1
    30    80    79    1
    31    37    36    1
    32    37    38    1
    33    23    20    1
    34    23    25    1
    35    70    69    2
    36    45    46    1
    37    45    48    1
    38    45    44    1
    39    48    49    1
    40    31    33   ar
    41    31    32   ar
    42    20    19    1
    43    33    35   ar
    44    69    68    1
    45    38    44   am
    46    38    39    2
    47    44    50    1
    48    49    50    1
    49    73    72    2
    50    19    12   am
    51    32    34   ar
    52    35    34   ar
    53     4     3    2
    54    68    67    1
    55    68    71    1
    56    72    74   am
    57    72    71    1
    58     3     2    1
    59    12    13    2
    60    12    11    1
    61     8     7   ar
    62     5     2    1
    63     5     6    1
    64    10    11    1
    65     2     1    1
    66    93    94    1
    67    11    14    1
    68     7     6    1
    69     7     9   ar
    70    95    94    1
    71    95    96    2
    72    94    97    1
    73    51    52    1
    74    14    15    1
    75   100    98    1
    76    97    99    1
    77    97    98    1
    78    52    53    1
    79    52    55    1
    80    54    53    2
    81    15    16    1
    82    55    56    1
    83    16    17    2
    84    16    18   am
    85    56    58   am
    86    56    57    2
    87    65    64    1
    88    59    60    1
    89   101   102    1
    90   105   102    1
    91   105   106    1
    92    64    63    1
    93    64    66    1
    94    63    60    1
    95   104   103    2
    96   102   103    1
    97   106   108   ar
    98   106   107   ar
    99   108   110   ar
   100    60    61    1
   101   107   109   ar
   102   110   111   ar
   103    61    62    2
   104   109   111   ar
   105   111   112    1
