@<TRIPOS>MOLECULE
tmp/4q4fA01.pdb
 83 78 0 0 0
SMALL
GASTEIGER

@<TRIPOS>ATOM
      1  N         34.3300   -5.3360   45.1310 N.3    32  ASN32      -0.1225
      2  CA        34.9600   -6.5240   45.6920 C.3    32  ASN32       0.1785
      3  C         34.1820   -6.9430   46.9300 C.2    32  ASN32       0.2597
      4  O         33.9560   -6.1250   47.8180 O.2    32  ASN32      -0.2718
      5  CB        36.4210   -6.1940   46.0580 C.3    32  ASN32       0.1169
      6  CG        37.3290   -7.4140   46.0970 C.2    32  ASN32       0.2627
      7  OD1       36.8980   -8.5440   45.8740 O.2    32  ASN32      -0.2716
      8  ND2       38.6080   -7.1800   46.3780 N.am   32  ASN32      -0.0877
      9  N         33.7640   -8.2060   46.9910 N.am   33  VAL33      -0.1980
     10  CA        32.9160   -8.6760   48.0890 C.3    33  VAL33       0.1595
     11  C         33.7510   -9.0640   49.2990 C.2    33  VAL33       0.2287
     12  O         34.6100   -9.9400   49.2050 O.2    33  VAL33      -0.2864
     13  CB        32.0630   -9.8850   47.6720 C.3    33  VAL33       0.0276
     14  CG1       31.2820  -10.4240   48.8660 C.3    33  VAL33       0.0022
     15  CG2       31.1170   -9.5000   46.5430 C.3    33  VAL33       0.0022
     16  N         36.6220   -0.5960   43.8050 N.3    50  VAL50      -0.1245
     17  CA        37.9650   -0.8140   43.2970 C.3    50  VAL50       0.1561
     18  C         38.0580   -0.3040   41.8730 C.2    50  VAL50       0.2260
     19  O         37.1920   -0.5890   41.0560 O.2    50  VAL50      -0.2867
     20  CB        38.3420   -2.3110   43.3360 C.3    50  VAL50       0.0252
     21  CG1       39.7330   -2.5290   42.7570 C.3    50  VAL50       0.0019
     22  CG2       38.2700   -2.8410   44.7630 C.3    50  VAL50       0.0019
     23  N         39.9940    1.1090   36.1290 N.3    53  TYR53      -0.1241
     24  CA        40.7830    0.3720   35.1380 C.3    53  TYR53       0.1605
     25  C         40.4740    1.0020   33.7840 C.2    53  TYR53       0.2264
     26  O         39.3980    0.7870   33.2210 O.2    53  TYR53      -0.2867
     27  CB        40.4510   -1.1290   35.1640 C.3    53  TYR53       0.0534
     28  CG        40.9000   -1.7830   36.4470 C.ar   53  TYR53      -0.0201
     29  CD1       40.0950   -1.7740   37.5690 C.ar   53  TYR53      -0.0009
     30  CD2       42.1460   -2.3690   36.5500 C.ar   53  TYR53      -0.0009
     31  CE1       40.5140   -2.3510   38.7560 C.ar   53  TYR53       0.0417
     32  CE2       42.5720   -2.9520   37.7300 C.ar   53  TYR53       0.0417
     33  CZ        41.7500   -2.9350   38.8290 C.ar   53  TYR53       0.1957
     34  OH        42.1620   -3.5150   39.9990 O.3    53  TYR53      -0.2866
     35  N         44.3700    1.9140   38.4490 N.3    89  VAL89      -0.1245
     36  CA        44.6990    1.6510   39.8470 C.3    89  VAL89       0.1561
     37  C         45.6360    0.4460   40.0080 C.2    89  VAL89       0.2260
     38  O         46.2620    0.2780   41.0510 O.2    89  VAL89      -0.2867
     39  CB        43.4090    1.4480   40.6830 C.3    89  VAL89       0.0252
     40  CG1       42.8550    0.0370   40.5090 C.3    89  VAL89       0.0019
     41  CG2       43.6520    1.7510   42.1540 C.3    89  VAL89       0.0019
     42  N         45.2100   -8.1730   39.2100 N.3    95  ASP95      -0.1225
     43  CA        44.2650   -7.7830   40.2600 C.3    95  ASP95       0.1805
     44  C         43.0050   -8.6380   40.3140 C.2    95  ASP95       0.2598
     45  O         42.3470   -8.8860   39.2980 O.2    95  ASP95      -0.2718
     46  CB        43.8880   -6.3100   40.1220 C.3    95  ASP95       0.1424
     47  CG        45.0010   -5.3910   40.5510 C.2    95  ASP95       0.3668
     48  OD1       46.0710   -5.9060   40.9450 O.co2  95  ASP95      -0.2456
     49  OD2       44.8050   -4.1580   40.5020 O.co2  95  ASP95      -0.2456
     50  N         42.6700   -9.0450   41.5340 N.am   96  LEU96      -0.1966
     51  CA        41.5990  -10.0000   41.8020 C.3    96  LEU96       0.1728
     52  C         40.3550   -9.3210   42.3450 C.2    96  LEU96       0.2616
     53  O         40.4360   -8.5660   43.3140 O.2    96  LEU96      -0.2715
     54  CB        42.0720  -11.0170   42.8490 C.3    96  LEU96       0.0311
     55  CG        42.7360  -12.3210   42.4080 C.3    96  LEU96       0.0022
     56  CD1       43.5710  -12.1630   41.1520 C.3    96  LEU96       0.0001
     57  CD2       43.5610  -12.8370   43.5680 C.3    96  LEU96       0.0001
     58  N         39.2090   -9.6110   41.7300 N.am   97  ILE97      -0.1963
     59  CA        37.9100   -9.1750   42.2370 C.3    97  ILE97       0.1727
     60  C         37.1250  -10.4170   42.6180 C.2    97  ILE97       0.2616
     61  O         36.9230  -11.2980   41.7850 O.2    97  ILE97      -0.2715
     62  CB        37.1220   -8.3620   41.1870 C.3    97  ILE97       0.0290
     63  CG1       37.4460   -6.8770   41.2920 C.3    97  ILE97       0.0022
     64  CG2       35.6190   -8.4820   41.4030 C.3    97  ILE97       0.0023
     65  CD1       38.9140   -6.5440   41.2390 C.3    97  ILE97       0.0001
     66  N         36.6930  -10.4870   43.8740 N.am   98  ARG98      -0.1977
     67  CA        35.7970  -11.5490   44.3190 C.3    98  ARG98       0.1597
     68  C         34.3550  -11.0910   44.2190 C.2    98  ARG98       0.2287
     69  O         33.9660  -10.1110   44.8700 O.2    98  ARG98      -0.2864
     70  CB        36.0760  -11.9550   45.7630 C.3    98  ARG98       0.0334
     71  CG        35.0500  -12.9410   46.3110 C.3    98  ARG98       0.0492
     72  CD        35.5800  -13.6510   47.5310 C.3    98  ARG98       0.2205
     73  NE        35.7070  -12.7340   48.6540 N.pl3  98  ARG98      -0.0865
     74  CZ        36.5060  -12.9240   49.6990 C.cat  98  ARG98       0.5346
     75  NH1       37.2830  -13.9970   49.7750 N.pl3  98  ARG98       0.1354
     76  NH2       36.5400  -12.0250   50.6720 N.pl3  98  ARG98       0.1354
     77  N         36.5430  -15.7450   42.7520 N.3   134  THR134     -0.1218
     78  CA        37.5570  -14.7320   42.6320 C.3   134  THR134      0.1862
     79  C         38.2660  -14.9470   41.3170 C.2   134  THR134      0.2287
     80  O         38.7220  -16.0450   41.0280 O.2   134  THR134     -0.2866
     81  CB        38.5610  -14.8520   43.7780 C.3   134  THR134      0.1770
     82  OG1       37.8610  -14.8130   45.0250 O.3   134  THR134     -0.2211
     83  CG2       39.5470  -13.7290   43.7240 C.3   134  THR134      0.0375
@<TRIPOS>BOND
     1    26    25    2
     2    25    24    1
     3    24    27    1
     4    24    23    1
     5    27    28    1
     6    28    30   ar
     7    28    29   ar
     8    30    32   ar
     9    29    31   ar
    10    32    33   ar
    11    35    36    1
    12    31    33   ar
    13    33    34    1
    14    42    43    1
    15    45    44    2
    16    36    37    1
    17    36    39    1
    18    37    38    2
    19    46    43    1
    20    46    47    1
    21    43    44    1
    22    44    50   am
    23    49    47   ar
    24    40    39    1
    25    47    48   ar
    26    39    41    1
    27    80    79    2
    28    19    18    2
    29    56    55    1
    30    62    63    1
    31    62    64    1
    32    62    59    1
    33    65    63    1
    34    79    78    1
    35    50    51    1
    36    58    59    1
    37    58    52   am
    38    61    60    2
    39    51    52    1
    40    51    54    1
    41    18    17    1
    42    59    60    1
    43    52    53    2
    44    55    54    1
    45    55    57    1
    46    60    66   am
    47    78    77    1
    48    78    81    1
    49    21    20    1
    50    17    20    1
    51    17    16    1
    52    20    22    1
    53    83    81    1
    54    81    82    1
    55    66    67    1
    56    68    67    1
    57    68    69    2
    58    67    70    1
    59     1     2    1
    60     2     5    1
    61     2     3    1
    62    70    71    1
    63     7     6    2
    64     5     6    1
    65     6     8   am
    66    71    72    1
    67    15    13    1
    68     3     9   am
    69     3     4    2
    70     9    10    1
    71    72    73    1
    72    13    10    1
    73    13    14    1
    74    10    11    1
    75    73    74    2
    76    12    11    2
    77    74    75    1
    78    74    76    1
