@<TRIPOS>MOLECULE
tmp/4q4fA02.pdb
 100 99 0 0 0
SMALL
GASTEIGER

@<TRIPOS>ATOM
      1  N         40.6480    2.2760   29.8610 N.3    55  TYR55      -0.1227
      2  CA        40.8390    1.7620   28.5170 C.3    55  TYR55       0.1736
      3  C         40.5500    2.8830   27.5300 C.2    55  TYR55       0.2595
      4  O         39.4950    3.5070   27.5940 O.2    55  TYR55      -0.2718
      5  CB        39.8930    0.5800   28.2600 C.3    55  TYR55       0.0548
      6  CG        40.2410   -0.6670   29.0470 C.ar   55  TYR55      -0.0200
      7  CD1       39.9590   -0.7570   30.4060 C.ar   55  TYR55      -0.0009
      8  CD2       40.8620   -1.7560   28.4340 C.ar   55  TYR55      -0.0009
      9  CE1       40.2910   -1.8900   31.1360 C.ar   55  TYR55       0.0417
     10  CE2       41.1910   -2.8970   29.1540 C.ar   55  TYR55       0.0417
     11  CZ        40.9020   -2.9570   30.5020 C.ar   55  TYR55       0.1957
     12  OH        41.2240   -4.0820   31.2180 O.3    55  TYR55      -0.2866
     13  N         41.4960    3.1450   26.6320 N.am   56  ARG56      -0.1980
     14  CA        41.2900    4.0950   25.5430 C.3    56  ARG56       0.1597
     15  C         40.6200    3.3690   24.3920 C.2    56  ARG56       0.2287
     16  O         41.0030    2.2460   24.0550 O.2    56  ARG56      -0.2864
     17  CB        42.6240    4.6770   25.0750 C.3    56  ARG56       0.0334
     18  CG        42.4880    5.7620   24.0160 C.3    56  ARG56       0.0492
     19  CD        43.7930    6.5220   23.8140 C.3    56  ARG56       0.2205
     20  NE        44.9310    5.6130   23.6980 N.pl3  56  ARG56      -0.0865
     21  CZ        45.2170    4.8770   22.6250 C.cat  56  ARG56       0.5346
     22  NH1       44.4580    4.9230   21.5320 N.pl3  56  ARG56       0.1354
     23  NH2       46.2800    4.0800   22.6480 N.pl3  56  ARG56       0.1354
     24  N         39.2020    2.7880   20.4000 N.3    58  LEU58      -0.1245
     25  CA        39.3990    3.0240   18.9880 C.3    58  LEU58       0.1561
     26  C         38.0340    2.8320   18.3650 C.2    58  LEU58       0.2260
     27  O         37.3610    1.8510   18.6480 O.2    58  LEU58      -0.2867
     28  CB        40.3790    2.0090   18.4100 C.3    58  LEU58       0.0270
     29  CG        41.6250    1.7290   19.2510 C.3    58  LEU58       0.0019
     30  CD1       42.4090    0.5740   18.6580 C.3    58  LEU58       0.0001
     31  CD2       42.4930    2.9750   19.3620 C.3    58  LEU58       0.0001
     32  N         37.1430   -0.8110   19.9200 N.3    80  ALA80      -0.1231
     33  CA        38.1240   -1.6300   20.6330 C.3    80  ALA80       0.1694
     34  C         38.7450   -0.8560   21.7920 C.2    80  ALA80       0.2592
     35  O         38.7110    0.3740   21.8090 O.2    80  ALA80      -0.2718
     36  CB        39.2010   -2.1170   19.6760 C.3    80  ALA80       0.0304
     37  N         39.3230   -1.5860   22.7460 N.am   81  TYR81      -0.1962
     38  CA        39.7960   -1.0050   24.0060 C.3    81  TYR81       0.1771
     39  C         41.2820   -1.2790   24.2360 C.2    81  TYR81       0.2619
     40  O         41.7060   -2.4300   24.2190 O.2    81  TYR81      -0.2715
     41  CB        38.9880   -1.5840   25.1680 C.3    81  TYR81       0.0574
     42  CG        37.4900   -1.3380   25.0810 C.ar   81  TYR81      -0.0198
     43  CD1       36.6940   -2.0660   24.2030 C.ar   81  TYR81      -0.0009
     44  CD2       36.8670   -0.3860   25.8890 C.ar   81  TYR81      -0.0009
     45  CE1       35.3270   -1.8480   24.1230 C.ar   81  TYR81       0.0417
     46  CE2       35.5000   -0.1620   25.8150 C.ar   81  TYR81       0.0417
     47  CZ        34.7340   -0.8960   24.9310 C.ar   81  TYR81       0.1957
     48  OH        33.3740   -0.6910   24.8490 O.3    81  TYR81      -0.2866
     49  N         42.0600   -0.2190   24.4580 N.am   82  VAL82      -0.1963
     50  CA        43.5050   -0.3220   24.6820 C.3    82  VAL82       0.1727
     51  C         43.8370    0.0860   26.1070 C.2    82  VAL82       0.2616
     52  O         43.6170    1.2340   26.4860 O.2    82  VAL82      -0.2715
     53  CB        44.2780    0.6080   23.7370 C.3    82  VAL82       0.0290
     54  CG1       45.7800    0.5020   23.9890 C.3    82  VAL82       0.0023
     55  CG2       43.9350    0.2860   22.2930 C.3    82  VAL82       0.0023
     56  N         44.3830   -0.8400   26.8910 N.am   83  PHE83      -0.1974
     57  CA        44.5990   -0.5810   28.3100 C.3    83  PHE83       0.1639
     58  C         45.6900    0.4550   28.5410 C.2    83  PHE83       0.2290
     59  O         46.7170    0.4440   27.8600 O.2    83  PHE83      -0.2864
     60  CB        44.9380   -1.8650   29.0690 C.3    83  PHE83       0.0560
     61  CG        45.0890   -1.6560   30.5500 C.ar   83  PHE83      -0.0200
     62  CD1       44.0360   -1.1430   31.2970 C.ar   83  PHE83      -0.0042
     63  CD2       46.2820   -1.9470   31.1960 C.ar   83  PHE83      -0.0042
     64  CE1       44.1650   -0.9310   32.6580 C.ar   83  PHE83      -0.0003
     65  CE2       46.4170   -1.7400   32.5600 C.ar   83  PHE83      -0.0003
     66  CZ        45.3570   -1.2270   33.2910 C.ar   83  PHE83      -0.0000
     67  N         40.8710   -8.7190   34.4340 N.3   138  ASP138     -0.1239
     68  CA        40.9400   -9.0050   33.0120 C.3   138  ASP138      0.1674
     69  C         40.0230  -10.1690   32.6570 C.2   138  ASP138      0.2266
     70  O         39.3280  -10.1250   31.6380 O.2   138  ASP138     -0.2867
     71  CB        42.3720   -9.3200   32.5980 C.3   138  ASP138      0.1410
     72  CG        42.4600   -9.8540   31.1940 C.2   138  ASP138      0.3668
     73  OD1       42.3110   -9.0600   30.2470 O.co2 138  ASP138     -0.2456
     74  OD2       42.6750  -11.0760   31.0410 O.co2 138  ASP138     -0.2456
     75  N         37.0400   -9.4360   29.8800 N.3   142  TRP142     -0.1241
     76  CA        37.2160   -9.9430   28.5240 C.3   142  TRP142      0.1605
     77  C         37.0320  -11.4600   28.4210 C.2   142  TRP142      0.2264
     78  O         36.9650  -12.0090   27.3170 O.2   142  TRP142     -0.2867
     79  CB        38.5680   -9.4820   27.9920 C.3   142  TRP142      0.0550
     80  CG        38.7730   -8.0520   28.3200 C.ar  142  TRP142      0.0003
     81  CD1       39.6280   -7.5380   29.2460 C.ar  142  TRP142      0.0946
     82  CD2       38.0470   -6.9410   27.7830 C.ar  142  TRP142      0.0152
     83  NE1       39.5060   -6.1670   29.2970 N.ar  142  TRP142     -0.2442
     84  CE2       38.5390   -5.7780   28.4100 C.ar  142  TRP142      0.0810
     85  CE3       37.0400   -6.8160   26.8220 C.ar  142  TRP142      0.0012
     86  CZ2       38.0580   -4.5100   28.1060 C.ar  142  TRP142      0.0191
     87  CZ3       36.5630   -5.5500   26.5220 C.ar  142  TRP142      0.0001
     88  CH2       37.0710   -4.4170   27.1640 C.ar  142  TRP142      0.0015
     89  N         35.6920   -6.7370   22.0500 N.3   170  ASN170     -0.1225
     90  CA        36.8430   -6.0050   21.5650 C.3   170  ASN170      0.1785
     91  C         36.9860   -6.1480   20.0570 C.2   170  ASN170      0.2597
     92  O         37.0690   -7.2590   19.5370 O.2   170  ASN170     -0.2718
     93  CB        38.1290   -6.4610   22.2500 C.3   170  ASN170      0.1169
     94  CG        39.2610   -5.4730   22.0500 C.2   170  ASN170      0.2627
     95  OD1       39.0290   -4.2670   22.0030 O.2   170  ASN170     -0.2716
     96  ND2       40.4850   -5.9680   21.9280 N.am  170  ASN170     -0.0877
     97  N         36.9980   -5.0110   19.3680 N.am  171  GLY171     -0.1957
     98  CA        37.1890   -4.9730   17.9250 C.3   171  GLY171      0.1869
     99  C         35.9720   -5.4090   17.1290 C.2   171  GLY171      0.2309
    100  O         36.1160   -5.8430   15.9830 O.2   171  GLY171     -0.2863
@<TRIPOS>BOND
     1   100    99    2
     2    99    98    1
     3    98    97    1
     4    26    27    2
     5    26    25    1
     6    28    25    1
     7    28    29    1
     8    30    29    1
     9    25    24    1
    10    29    31    1
    11    97    91   am
    12    92    91    2
    13    36    33    1
    14    32    33    1
    15    91    90    1
    16    33    34    1
    17    22    21    1
    18    90    89    1
    19    90    93    1
    20    34    35    2
    21    34    37   am
    22    96    94   am
    23    95    94    2
    24    94    93    1
    25    55    53    1
    26    21    23    1
    27    21    20    2
    28    37    38    1
    29    20    19    1
    30    53    54    1
    31    53    50    1
    32    19    18    1
    33    38    39    1
    34    38    41    1
    35    18    17    1
    36    16    15    2
    37    45    43   ar
    38    45    47   ar
    39    43    42   ar
    40    40    39    2
    41    39    49   am
    42    15    14    1
    43    49    50    1
    44    50    51    1
    45    48    47    1
    46    47    46   ar
    47    17    14    1
    48    42    41    1
    49    42    44   ar
    50    14    13    1
    51    46    44   ar
    52    51    52    2
    53    51    56   am
    54    87    85   ar
    55    87    88   ar
    56    13     3   am
    57    85    82   ar
    58    56    57    1
    59    88    86   ar
    60    78    77    2
    61     3     4    2
    62     3     2    1
    63    82    80   ar
    64    82    84   ar
    65    59    58    2
    66    79    80    1
    67    79    76    1
    68    86    84   ar
    69     5     2    1
    70     5     6    1
    71    57    58    1
    72    57    60    1
    73    80    81   ar
    74    84    83   ar
    75    77    76    1
    76     8     6   ar
    77     8    10   ar
    78     2     1    1
    79    76    75    1
    80     6     7   ar
    81    60    61    1
    82    10    11   ar
    83    81    83   ar
    84    73    72   ar
    85     7     9   ar
    86    11     9   ar
    87    11    12    1
    88    61    63   ar
    89    61    62   ar
    90    74    72   ar
    91    72    71    1
    92    63    65   ar
    93    62    64   ar
    94    70    69    2
    95    65    66   ar
    96    71    68    1
    97    69    68    1
    98    64    66   ar
    99    68    67    1
