@<TRIPOS>MOLECULE
tmp/4q4iA00.pdb
 196 186 0 0 0
SMALL
GASTEIGER

@<TRIPOS>ATOM
      1  N         48.4500  -28.2970   38.9590 N.3   115  GLN115     -0.1245
      2  CA        49.1370  -26.9880   39.1790 C.3   115  GLN115      0.1566
      3  C         49.5120  -26.8770   40.6470 C.2   115  GLN115      0.2260
      4  O         48.6120  -26.8610   41.5310 O.2   115  GLN115     -0.2867
      5  CB        48.2750  -25.7850   38.7280 C.3   115  GLN115      0.0367
      6  CG        48.9440  -24.4490   39.0000 C.3   115  GLN115      0.0905
      7  CD        50.3180  -24.3380   38.2990 C.2   115  GLN115      0.2608
      8  OE1       50.5170  -24.8650   37.2110 O.2   115  GLN115     -0.2717
      9  NE2       51.2330  -23.6030   38.9020 N.am  115  GLN115     -0.0878
     10  N         52.3720  -24.6250   41.8790 N.3   117  GLU117     -0.1245
     11  CA        52.9020  -23.3300   42.3390 C.3   117  GLU117      0.1567
     12  C         51.7160  -22.4030   42.6380 C.2   117  GLU117      0.2260
     13  O         50.8010  -22.3090   41.8300 O.2   117  GLU117     -0.2867
     14  CB        53.8170  -22.6570   41.2950 C.3   117  GLU117      0.0388
     15  CG        54.5740  -21.4510   41.8920 C.3   117  GLU117      0.1160
     16  CD        55.5670  -20.7810   40.9550 C.2   117  GLU117      0.3649
     17  OE1       55.6410  -21.1790   39.7730 O.co2 117  GLU117     -0.2457
     18  OE2       56.2760  -19.8490   41.4110 O.co2 117  GLU117     -0.2457
     19  N         44.4590  -21.7950   35.1710 N.3   255  ASN255     -0.1225
     20  CA        44.4050  -20.4690   35.7420 C.3   255  ASN255      0.1785
     21  C         45.5720  -19.6020   35.2670 C.2   255  ASN255      0.2597
     22  O         45.5240  -18.3860   35.3080 O.2   255  ASN255     -0.2718
     23  CB        44.4510  -20.5860   37.2590 C.3   255  ASN255      0.1169
     24  CG        43.1240  -20.9790   37.8500 C.2   255  ASN255      0.2627
     25  OD1       42.1130  -20.9580   37.1600 O.2   255  ASN255     -0.2716
     26  ND2       43.1140  -21.3020   39.1460 N.am  255  ASN255     -0.0877
     27  N         46.6210  -20.2490   34.8040 N.am  256  MET256     -0.1965
     28  CA        47.8560  -19.5440   34.5070 C.3   256  MET256      0.1736
     29  C         48.0920  -19.4640   33.0230 C.2   256  MET256      0.2617
     30  O         47.3810  -20.1080   32.2430 O.2   256  MET256     -0.2715
     31  CB        49.0290  -20.3180   35.1500 C.3   256  MET256      0.0427
     32  CG        48.7600  -20.6670   36.6210 C.3   256  MET256      0.0599
     33  SD        48.5450  -19.1390   37.5690 S.3   256  MET256     -0.1393
     34  CE        48.2390  -20.1060   39.0750 C.3   256  MET256      0.0692
     35  N         49.1380  -18.7280   32.6470 N.am  257  GLY257     -0.1940
     36  CA        49.6590  -18.8140   31.3140 C.3   257  GLY257      0.2014
     37  C         50.5100  -20.0420   31.0090 C.2   257  GLY257      0.2639
     38  O         50.3170  -20.6700   29.9840 O.2   257  GLY257     -0.2714
     39  N         51.4600  -20.3720   31.8820 N.am  258  ALA258     -0.1963
     40  CA        52.3600  -21.5210   31.6790 C.3   258  ALA258      0.1728
     41  C         53.1650  -21.6960   32.9670 C.2   258  ALA258      0.2616
     42  O         53.2200  -20.7890   33.7670 O.2   258  ALA258     -0.2715
     43  CB        53.3360  -21.2720   30.5410 C.3   258  ALA258      0.0334
     44  N         53.7560  -22.8810   33.1400 N.am  259  MET259     -0.1963
     45  CA        54.4070  -23.3030   34.3480 C.3   259  MET259      0.1736
     46  C         55.5940  -24.2310   34.0360 C.2   259  MET259      0.2616
     47  O         55.4670  -25.1950   33.2520 O.2   259  MET259     -0.2715
     48  CB        53.3760  -24.0570   35.2030 C.3   259  MET259      0.0427
     49  CG        53.9620  -24.6580   36.4910 C.3   259  MET259      0.0599
     50  SD        54.5040  -23.2910   37.5460 S.3   259  MET259     -0.1393
     51  CE        55.8900  -24.1960   38.3150 C.3   259  MET259      0.0692
     52  N         56.7110  -23.9540   34.7060 N.am  260  GLU260     -0.1977
     53  CA        57.9960  -24.5270   34.3930 C.3   260  GLU260      0.1602
     54  C         58.2820  -25.8600   35.0720 C.2   260  GLU260      0.2287
     55  O         59.4400  -26.1380   35.3610 O.2   260  GLU260     -0.2864
     56  CB        59.1060  -23.5330   34.7680 C.3   260  GLU260      0.0415
     57  CG        59.3190  -23.2480   36.2560 C.3   260  GLU260      0.1163
     58  CD        58.4540  -22.1130   36.8610 C.2   260  GLU260      0.3649
     59  OE1       57.3330  -21.7650   36.3500 O.co2 260  GLU260     -0.2457
     60  OE2       58.8870  -21.5920   37.9300 O.co2 260  GLU260     -0.2457
     61  N         49.1720  -23.1240   29.1240 N.3   268  ASN268     -0.1240
     62  CA        47.8590  -22.7320   28.6420 C.3   268  ASN268      0.1653
     63  C         47.9000  -22.8620   27.1600 C.2   268  ASN268      0.2266
     64  O         48.8950  -22.4730   26.4930 O.2   268  ASN268     -0.2867
     65  CB        47.5840  -21.2600   28.9810 C.3   268  ASN268      0.1155
     66  CG        46.1130  -20.8580   28.7360 C.2   268  ASN268      0.2627
     67  OD1       45.5650  -20.9730   27.6460 O.2   268  ASN268     -0.2716
     68  ND2       45.4950  -20.3930   29.7820 N.am  268  ASN268     -0.0877
     69  N         46.6730  -21.1260   24.9460 N.3   270  LYS270     -0.1231
     70  CA        46.9310  -19.8770   24.2430 C.3   270  LYS270      0.1693
     71  C         48.4050  -19.6290   24.0430 C.2   270  LYS270      0.2592
     72  O         48.7990  -18.9470   23.1090 O.2   270  LYS270     -0.2718
     73  CB        46.2880  -18.6500   24.9500 C.3   270  LYS270      0.0285
     74  CG        46.9820  -18.2590   26.1830 C.3   270  LYS270      0.0035
     75  CD        46.2670  -17.1800   26.9690 C.3   270  LYS270      0.0206
     76  CE        46.4570  -15.8560   26.3020 C.3   270  LYS270      0.1093
     77  NZ        46.3810  -14.8000   27.3390 N.3   270  LYS270     -0.1314
     78  N         49.2680  -20.1780   24.8800 N.am  271  TYR271     -0.1976
     79  CA        50.6610  -19.9730   24.5870 C.3   271  TYR271      0.1639
     80  C         51.3060  -21.1490   23.8780 C.2   271  TYR271      0.2290
     81  O         52.4910  -21.3030   23.9430 O.2   271  TYR271     -0.2864
     82  CB        51.3930  -19.5780   25.8360 C.3   271  TYR271      0.0560
     83  CG        50.9230  -18.2200   26.3360 C.ar  271  TYR271     -0.0198
     84  CD1       51.0280  -17.0880   25.5460 C.ar  271  TYR271     -0.0009
     85  CD2       50.3300  -18.0890   27.5540 C.ar  271  TYR271     -0.0009
     86  CE1       50.5940  -15.8590   25.9810 C.ar  271  TYR271      0.0417
     87  CE2       49.8960  -16.8520   28.0350 C.ar  271  TYR271      0.0417
     88  CZ        50.0420  -15.7520   27.2300 C.ar  271  TYR271      0.1957
     89  OH        49.6110  -14.5910   27.6820 O.3   271  TYR271     -0.2866
     90  N         56.8400  -16.8780   25.8510 N.3   290  VAL290     -0.1245
     91  CA        56.4040  -17.6910   26.9610 C.3   290  VAL290      0.1561
     92  C         57.1000  -19.0770   26.9680 C.2   290  VAL290      0.2260
     93  O         57.5510  -19.5540   28.0340 O.2   290  VAL290     -0.2867
     94  CB        54.8890  -17.7850   26.9910 C.3   290  VAL290      0.0252
     95  CG1       54.4440  -18.7400   28.0690 C.3   290  VAL290      0.0019
     96  CG2       54.3140  -16.3750   27.2780 C.3   290  VAL290      0.0019
     97  N         60.4470  -18.2680   28.1940 N.3   293  HIS293     -0.1226
     98  CA        60.3830  -17.9540   29.6040 C.3   293  HIS293      0.1752
     99  C         60.4000  -19.2220   30.4510 C.2   293  HIS293      0.2595
    100  O         61.1830  -19.3110   31.3700 O.2   293  HIS293     -0.2718
    101  CB        59.1070  -17.1640   29.9160 C.3   293  HIS293      0.0759
    102  CG        58.9440  -16.7790   31.3510 C.ar  293  HIS293      0.0818
    103  ND1       59.2050  -15.5130   31.8050 N.ar  293  HIS293     -0.2268
    104  CD2       58.4610  -17.4640   32.4230 C.ar  293  HIS293      0.1154
    105  CE1       58.9690  -15.4490   33.1130 C.ar  293  HIS293      0.1986
    106  NE2       58.5150  -16.6220   33.5150 N.ar  293  HIS293     -0.2212
    107  N         59.4700  -20.1290   30.2320 N.am  294  GLU294     -0.1979
    108  CA        59.4540  -21.3160   31.0590 C.3   294  GLU294      0.1602
    109  C         60.7440  -22.1330   30.8740 C.2   294  GLU294      0.2287
    110  O         61.2590  -22.6940   31.8370 O.2   294  GLU294     -0.2864
    111  CB        58.2290  -22.1840   30.8270 C.3   294  GLU294      0.0415
    112  CG        56.8740  -21.5070   31.1240 C.3   294  GLU294      0.1163
    113  CD        56.7760  -20.5380   32.3350 C.2   294  GLU294      0.3649
    114  OE1       57.5260  -20.7000   33.3380 O.co2 294  GLU294     -0.2457
    115  OE2       55.8910  -19.6160   32.2890 O.co2 294  GLU294     -0.2457
    116  N         63.5830  -20.6890   33.0070 N.3   297  HIS297     -0.1241
    117  CA        63.4760  -21.0960   34.4260 C.3   297  HIS297      0.1621
    118  C         64.1960  -22.4050   34.7740 C.2   297  HIS297      0.2264
    119  O         64.3900  -22.7150   35.9590 O.2   297  HIS297     -0.2867
    120  CB        62.0000  -21.3580   34.8150 C.3   297  HIS297      0.0745
    121  CG        61.2540  -20.1530   35.2920 C.ar  297  HIS297      0.0817
    122  ND1       61.7440  -19.3060   36.2710 N.ar  297  HIS297     -0.2268
    123  CD2       60.0430  -19.6560   34.9350 C.ar  297  HIS297      0.1154
    124  CE1       60.8710  -18.3400   36.4900 C.ar  297  HIS297      0.1986
    125  NE2       59.8300  -18.5430   35.7120 N.ar  297  HIS297     -0.2212
    126  N         61.4060  -14.9280   38.9670 N.3   316  GLU316     -0.1245
    127  CA        60.5000  -14.3350   37.9920 C.3   316  GLU316      0.1567
    128  C         61.0990  -13.0800   37.3860 C.2   316  GLU316      0.2260
    129  O         61.0640  -12.9210   36.2010 O.2   316  GLU316     -0.2867
    130  CB        59.0970  -14.0810   38.5550 C.3   316  GLU316      0.0388
    131  CG        58.3850  -15.3200   38.9970 C.3   316  GLU316      0.1160
    132  CD        58.1990  -16.3490   37.8880 C.2   316  GLU316      0.3649
    133  OE1       58.2160  -15.9800   36.6850 O.co2 316  GLU316     -0.2457
    134  OE2       57.9760  -17.5340   38.2430 O.co2 316  GLU316     -0.2457
    135  N         63.6900  -13.5520   29.2230 N.3   323  ASP323     -0.1239
    136  CA        62.7990  -13.7190   28.0610 C.3   323  ASP323      0.1674
    137  C         62.7620  -12.4290   27.2430 C.2   323  ASP323      0.2266
    138  O         62.5470  -12.4440   26.0730 O.2   323  ASP323     -0.2867
    139  CB        61.4100  -14.2160   28.4990 C.3   323  ASP323      0.1410
    140  CG        60.4120  -13.0900   28.9360 C.2   323  ASP323      0.3668
    141  OD1       60.1680  -12.1140   28.1690 O.co2 323  ASP323     -0.2456
    142  OD2       59.7240  -13.2930   29.9620 O.co2 323  ASP323     -0.2456
    143  N         49.5860  -16.4940   46.0890 N.3   369  ASN369     -0.1240
    144  CA        49.2120  -16.3700   44.6750 C.3   369  ASN369      0.1653
    145  C         48.7870  -14.9800   44.2520 C.2   369  ASN369      0.2266
    146  O         48.7290  -14.7260   43.0750 O.2   369  ASN369     -0.2867
    147  CB        48.1620  -17.4060   44.2450 C.3   369  ASN369      0.1155
    148  CG        48.6880  -18.8630   44.3590 C.2   369  ASN369      0.2627
    149  OD1       49.6610  -19.2610   43.7170 O.2   369  ASN369     -0.2716
    150  ND2       48.0210  -19.6530   45.2130 N.am  369  ASN369     -0.0877
    151  N         52.1510  -12.7680   42.2830 N.3   372  TYR372     -0.1241
    152  CA        52.6470  -12.9610   40.9550 C.3   372  TYR372      0.1605
    153  C         52.2420  -11.7360   40.1330 C.2   372  TYR372      0.2264
    154  O         51.3870  -11.7750   39.2490 O.2   372  TYR372     -0.2867
    155  CB        52.0980  -14.2810   40.4000 C.3   372  TYR372      0.0534
    156  CG        52.7580  -15.4580   41.0870 C.ar  372  TYR372     -0.0201
    157  CD1       52.3370  -15.8700   42.3210 C.ar  372  TYR372     -0.0009
    158  CD2       53.8210  -16.1250   40.5000 C.ar  372  TYR372     -0.0009
    159  CE1       52.9900  -16.9010   43.0060 C.ar  372  TYR372      0.0417
    160  CE2       54.4700  -17.1820   41.1630 C.ar  372  TYR372      0.0417
    161  CZ        54.0280  -17.5620   42.4100 C.ar  372  TYR372      0.1957
    162  OH        54.6540  -18.5540   43.0810 O.3   372  TYR372     -0.2866
    163  N         57.4380   -9.2860   38.6300 N.3   377  TYR377     -0.1241
    164  CA        57.8650   -9.6590   37.2790 C.3   377  TYR377      0.1605
    165  C         58.5800   -8.5120   36.5400 C.2   377  TYR377      0.2264
    166  O         59.7530   -8.5860   36.2290 O.2   377  TYR377     -0.2867
    167  CB        56.6230  -10.1420   36.4510 C.3   377  TYR377      0.0534
    168  CG        56.2250  -11.5540   36.6760 C.ar  377  TYR377     -0.0201
    169  CD1       55.7960  -11.9840   37.8840 C.ar  377  TYR377     -0.0009
    170  CD2       56.3330  -12.5080   35.6610 C.ar  377  TYR377     -0.0009
    171  CE1       55.3990  -13.3250   38.0980 C.ar  377  TYR377      0.0417
    172  CE2       55.9960  -13.8640   35.8650 C.ar  377  TYR377      0.0417
    173  CZ        55.5140  -14.2710   37.0930 C.ar  377  TYR377      0.1957
    174  OH        55.1550  -15.6170   37.3140 O.3   377  TYR377     -0.2866
    175  N         38.5220  -14.4440   31.4830 N.3   779  ARG779     -0.1245
    176  CA        39.4740  -13.2920   31.3310 C.3   779  ARG779      0.1563
    177  C         39.1130  -12.4730   30.0840 C.2   779  ARG779      0.2260
    178  O         39.2190  -11.2750   30.0720 O.2   779  ARG779     -0.2867
    179  CB        40.9730  -13.7160   31.2630 C.3   779  ARG779      0.0307
    180  CG        41.5810  -14.1680   32.6150 C.3   779  ARG779      0.0489
    181  CD        43.0880  -14.5060   32.4630 C.3   779  ARG779      0.2205
    182  NE        43.3990  -15.8540   31.8980 N.pl3 779  ARG779     -0.0865
    183  CZ        43.5410  -16.9770   32.6360 C.cat 779  ARG779      0.5346
    184  NH1       43.3910  -16.9430   33.9630 N.pl3 779  ARG779      0.1354
    185  NH2       43.8540  -18.1470   32.0750 N.pl3 779  ARG779      0.1354
    186  N         42.3850  -11.9160   40.2600 N.3   821  ARG821     -0.1245
    187  CA        42.9460  -11.1580   39.1490 C.3   821  ARG821      0.1563
    188  C         41.8790  -10.1420   38.7020 C.2   821  ARG821      0.2260
    189  O         42.1810   -8.9880   38.3890 O.2   821  ARG821     -0.2867
    190  CB        43.3950  -12.0590   37.9650 C.3   821  ARG821      0.0307
    191  CG        44.7640  -12.7840   38.1150 C.3   821  ARG821      0.0489
    192  CD        46.0190  -11.8640   37.9440 C.3   821  ARG821      0.2205
    193  NE        47.2700  -12.2040   38.7190 N.pl3 821  ARG821     -0.0865
    194  CZ        47.4750  -12.1000   40.0690 C.cat 821  ARG821      0.5346
    195  NH1       46.5180  -11.6920   40.9580 N.pl3 821  ARG821      0.1354
    196  NH2       48.6810  -12.4230   40.5700 N.pl3 821  ARG821      0.1354
@<TRIPOS>BOND
     1    72    71    2
     2    80    81    2
     3    80    79    1
     4    71    70    1
     5    71    78   am
     6    70    69    1
     7    70    73    1
     8    79    78    1
     9    79    82    1
    10    73    74    1
    11    84    86   ar
    12    84    83   ar
    13    82    83    1
    14    90    91    1
    15    86    88   ar
    16   138   137    2
    17    74    75    1
    18    76    75    1
    19    76    77    1
    20    83    85   ar
    21    64    63    2
    22    91    92    1
    23    91    94    1
    24    92    93    2
    25    94    96    1
    26    94    95    1
    27    63    62    1
    28    88    89    1
    29    88    87   ar
    30   137   136    1
    31    85    87   ar
    32    67    66    2
    33   136   139    1
    34   136   135    1
    35   141   140   ar
    36    97    98    1
    37   139   140    1
    38    62    65    1
    39    62    61    1
    40    66    65    1
    41    66    68   am
    42   140   142   ar
    43    98   101    1
    44    98    99    1
    45   101   102    1
    46    38    37    2
    47   178   177    2
    48   177   176    1
    49   107    99   am
    50   107   108    1
    51    99   100    2
    52    43    40    1
    53   111   108    1
    54   111   112    1
    55   109   108    1
    56   109   110    2
    57    37    36    1
    58    37    39   am
    59   112   113    1
    60   179   176    1
    61   179   180    1
    62    36    35    1
    63   176   175    1
    64   102   103   ar
    65   102   104   ar
    66    40    39    1
    67    40    41    1
    68   103   105   ar
    69   182   181    1
    70   182   183    2
    71   185   183    1
    72    30    29    2
    73   115   113   ar
    74   113   114   ar
    75   104   106   ar
    76   181   180    1
    77   183   184    1
    78    35    29   am
    79    41    44   am
    80    41    42    2
    81   116   117    1
    82    29    28    1
    83   105   106   ar
    84    44    45    1
    85    47    46    2
    86    46    45    1
    87    46    52   am
    88    45    48    1
    89    53    52    1
    90    53    56    1
    91    53    54    1
    92   117   118    1
    93   117   120    1
    94    28    27    1
    95    28    31    1
    96    56    57    1
    97   118   119    2
    98    27    21   am
    99   120   121    1
   100   123   121   ar
   101   123   125   ar
   102    54    55    2
   103    31    32    1
   104    19    20    1
   105    48    49    1
   106    21    22    2
   107    21    20    1
   108   121   122   ar
   109   170   172   ar
   110   170   168   ar
   111   125   124   ar
   112    20    23    1
   113   172   173   ar
   114   129   128    2
   115   166   165    2
   116    57    58    1
   117   122   124   ar
   118    59    58   ar
   119   167   168    1
   120   167   164    1
   121    49    50    1
   122   165   164    1
   123    32    33    1
   124   168   169   ar
   125   133   132   ar
   126    58    60   ar
   127   173   174    1
   128   173   171   ar
   129    25    24    2
   130     8     7    2
   131    23    24    1
   132   164   163    1
   133   128   127    1
   134    50    51    1
   135    33    34    1
   136    24    26   am
   137   169   171   ar
   138   132   134   ar
   139   132   131    1
   140   192   191    1
   141   192   193    1
   142   190   191    1
   143   190   187    1
   144   127   130    1
   145   127   126    1
   146     7     9   am
   147     7     6    1
   148   189   188    2
   149   130   131    1
   150   188   187    1
   151   193   194    2
   152     5     6    1
   153     5     2    1
   154     1     2    1
   155   187   186    1
   156     2     3    1
   157   154   153    2
   158    17    16   ar
   159   194   196    1
   160   194   195    1
   161   153   152    1
   162   155   152    1
   163   155   156    1
   164   158   156   ar
   165   158   160   ar
   166     3     4    2
   167   152   151    1
   168    16    18   ar
   169    16    15    1
   170   156   157   ar
   171   160   161   ar
   172    14    15    1
   173    14    11    1
   174    13    12    2
   175    10    11    1
   176   157   159   ar
   177    11    12    1
   178   161   159   ar
   179   161   162    1
   180   146   145    2
   181   149   148    2
   182   147   148    1
   183   147   144    1
   184   145   144    1
   185   148   150   am
   186   144   143    1
