@<TRIPOS>MOLECULE
tmp/4q4mA00.pdb
 115 108 0 0 0
SMALL
GASTEIGER

@<TRIPOS>ATOM
      1  N         97.6540   12.5390   22.3010 N.3    92  ASP92      -0.1225
      2  CA        98.5330   13.5610   22.8610 C.3    92  ASP92       0.1805
      3  C         97.7970   14.2560   24.0030 C.2    92  ASP92       0.2598
      4  O         96.5930   14.0940   24.1840 O.2    92  ASP92      -0.2718
      5  CB        99.0150   14.5620   21.8010 C.3    92  ASP92       0.1424
      6  CG        97.8850   15.2820   21.0940 C.2    92  ASP92       0.3668
      7  OD1       96.7840   15.4260   21.6560 O.co2  92  ASP92      -0.2456
      8  OD2       98.1130   15.7370   19.9550 O.co2  92  ASP92      -0.2456
      9  N         98.5350   14.9810   24.8250 N.am   93  SER93      -0.1938
     10  CA        97.9520   15.4900   26.0630 C.3    93  SER93       0.2055
     11  C         97.1880   16.7950   25.8840 C.2    93  SER93       0.2644
     12  O         96.3860   17.1760   26.7340 O.2    93  SER93      -0.2714
     13  CB        99.0500   15.6810   27.1040 C.3    93  SER93       0.2130
     14  OG        99.8590   16.7920   26.7600 O.3    93  SER93      -0.2179
     15  N         97.4450   17.4710   24.7710 N.am   94  GLY94      -0.1939
     16  CA        96.8720   18.7790   24.5180 C.3    94  GLY94       0.2014
     17  C         97.8230   19.8870   24.9340 C.2    94  GLY94       0.2639
     18  O         97.5910   21.0530   24.6150 O.2    94  GLY94      -0.2714
     19  N         98.9010   19.5170   25.6250 N.am   95  GLY95      -0.1939
     20  CA        99.8400   20.4780   26.1850 C.3    95  GLY95       0.2014
     21  C        100.5190   21.3770   25.1670 C.2    95  GLY95       0.2639
     22  O        100.7920   22.5510   25.4400 O.2    95  GLY95      -0.2714
     23  N        100.7960   20.8240   23.9900 N.am   96  TYR96      -0.1959
     24  CA       101.4280   21.5820   22.9140 C.3    96  TYR96       0.1771
     25  C        100.4120   22.4090   22.1340 C.2    96  TYR96       0.2619
     26  O        100.6050   23.6050   21.9150 O.2    96  TYR96      -0.2715
     27  CB       102.1720   20.6360   21.9690 C.3    96  TYR96       0.0574
     28  CG       102.7880   21.3030   20.7590 C.ar   96  TYR96      -0.0198
     29  CD1      104.0710   21.8280   20.8110 C.ar   96  TYR96      -0.0009
     30  CD2      102.0930   21.3910   19.5580 C.ar   96  TYR96      -0.0009
     31  CE1      104.6410   22.4330   19.7060 C.ar   96  TYR96       0.0417
     32  CE2      102.6520   21.9970   18.4510 C.ar   96  TYR96       0.0417
     33  CZ       103.9250   22.5150   18.5310 C.ar   96  TYR96       0.1957
     34  OH       104.4880   23.1160   17.4310 O.3    96  TYR96      -0.2866
     35  N         99.3280   21.7670   21.7130 N.am   97  GLN97      -0.1977
     36  CA        98.3400   22.4250   20.8710 C.3    97  GLN97       0.1601
     37  C         97.6080   23.5290   21.6210 C.2    97  GLN97       0.2287
     38  O         97.1580   24.4970   21.0120 O.2    97  GLN97      -0.2864
     39  CB        97.3340   21.4090   20.3230 C.3    97  GLN97       0.0394
     40  CG        98.0380   20.3170   19.5000 C.3    97  GLN97       0.0908
     41  CD        97.1000   19.3000   18.9180 C.2    97  GLN97       0.2608
     42  OE1       96.0540   18.9740   19.4740 O.2    97  GLN97      -0.2717
     43  NE2       97.4660   18.7360   17.7430 N.am   97  GLN97      -0.0878
     44  N        102.0150   18.1470   29.4810 N.3   138  ASP138     -0.1239
     45  CA       103.3090   18.7950   29.5860 C.3   138  ASP138      0.1674
     46  C        103.2890   20.1990   29.0320 C.2   138  ASP138      0.2266
     47  O        102.2540   20.7170   28.6130 O.2   138  ASP138     -0.2867
     48  CB       104.3730   17.9900   28.8400 C.3   138  ASP138      0.1410
     49  CG       104.1920   18.0500   27.3320 C.2   138  ASP138      0.3668
     50  OD1      103.0340   18.1100   26.8730 O.co2 138  ASP138     -0.2456
     51  OD2      105.2070   18.0300   26.6020 O.co2 138  ASP138     -0.2456
     52  N        105.5270   22.2990   26.1700 N.3   140  CYS140     -0.1235
     53  CA       106.5670   22.3180   25.1520 C.3   140  CYS140      0.1677
     54  C        107.2640   23.6700   25.1840 C.2   140  CYS140      0.2270
     55  O        106.7510   24.6640   24.6710 O.2   140  CYS140     -0.2867
     56  CB       105.9920   22.0300   23.7620 C.3   140  CYS140      0.0956
     57  SG       107.2660   21.8660   22.4780 S.3   140  CYS140     -0.0801
     58  N        106.8650   12.6760   29.3810 N.3   183  ILE183     -0.1245
     59  CA       107.5380   13.4430   28.3320 C.3   183  ILE183      0.1561
     60  C        108.7480   14.1720   28.8950 C.2   183  ILE183      0.2260
     61  O        108.6260   15.0040   29.7980 O.2   183  ILE183     -0.2867
     62  CB       106.5870   14.4590   27.6760 C.3   183  ILE183      0.0252
     63  CG1      105.3880   13.7300   27.0690 C.3   183  ILE183      0.0019
     64  CG2      107.3010   15.2230   26.5770 C.3   183  ILE183      0.0019
     65  CD1      104.2660   14.6650   26.6210 C.3   183  ILE183      0.0001
     66  N        111.5640   16.9180   28.8950 N.3   185  GLN185     -0.1245
     67  CA       111.7720   18.2590   28.3660 C.3   185  GLN185      0.1566
     68  C        113.1880   18.6940   28.7380 C.2   185  GLN185      0.2260
     69  O        114.0280   17.8540   29.0670 O.2   185  GLN185     -0.2867
     70  CB       110.7010   19.2270   28.8950 C.3   185  GLN185      0.0367
     71  CG       109.2760   18.8970   28.4000 C.3   185  GLN185      0.0905
     72  CD       109.0790   19.1700   26.9100 C.2   185  GLN185      0.2608
     73  OE1      109.9180   19.7940   26.2720 O.2   185  GLN185     -0.2717
     74  NE2      107.9670   18.6950   26.3550 N.am  185  GLN185     -0.0878
     75  N        110.2850   15.1690   24.2960 N.3   211  GLY211     -0.1210
     76  CA       109.4890   16.3030   23.8900 C.3   211  GLY211      0.1956
     77  C        110.3840   17.4690   23.5730 C.2   211  GLY211      0.2612
     78  O        111.5910   17.4290   23.8110 O.2   211  GLY211     -0.2717
     79  N        109.7820   18.5100   23.0210 N.am  212  GLY212     -0.1942
     80  CA       110.4680   19.7700   22.8420 C.3   212  GLY212      0.2014
     81  C        111.4260   19.8160   21.6730 C.2   212  GLY212      0.2639
     82  O        112.1830   20.7690   21.5640 O.2   212  GLY212     -0.2714
     83  N        111.3910   18.8200   20.7880 N.am  213  LEU213     -0.1963
     84  CA       112.3380   18.8130   19.6710 C.3   213  LEU213      0.1728
     85  C        111.6650   18.8910   18.3020 C.2   213  LEU213      0.2616
     86  O        112.3260   18.7640   17.2810 O.2   213  LEU213     -0.2715
     87  CB       113.2350   17.5700   19.7290 C.3   213  LEU213      0.0311
     88  CG       114.2270   17.5060   20.8970 C.3   213  LEU213      0.0022
     89  CD1      115.1050   16.2780   20.7670 C.3   213  LEU213      0.0001
     90  CD2      115.0770   18.7640   20.9870 C.3   213  LEU213      0.0001
     91  N        110.3560   19.1010   18.2680 N.am  214  ALA214     -0.1977
     92  CA       109.7100   19.3760   16.9880 C.3   214  ALA214      0.1597
     93  C        109.4380   20.8740   16.8900 C.2   214  ALA214      0.2287
     94  O        108.3010   21.2990   16.6940 O.2   214  ALA214     -0.2864
     95  CB       108.4320   18.5730   16.8390 C.3   214  ALA214      0.0319
     96  N        108.1730   12.8200   19.5800 N.3   242  MET242     -0.1230
     97  CA       106.9260   13.4350   19.1530 C.3   242  MET242      0.1702
     98  C        107.1470   14.3970   17.9960 C.2   242  MET242      0.2592
     99  O        108.0860   15.1930   18.0180 O.2   242  MET242     -0.2718
    100  CB       106.2820   14.1740   20.3310 C.3   242  MET242      0.0401
    101  CG       106.2210   13.3290   21.5980 C.3   242  MET242      0.0596
    102  SD       105.5850   14.2510   23.0180 S.3   242  MET242     -0.1393
    103  CE       103.8830   14.4420   22.5460 C.3   242  MET242      0.0692
    104  N        106.2730   14.3190   16.9990 N.am  243  GLY243     -0.1957
    105  CA       106.2260   15.2930   15.9210 C.3   243  GLY243      0.1869
    106  C        107.3280   15.2000   14.8800 C.2   243  GLY243      0.2309
    107  O        107.6140   16.1760   14.1950 O.2   243  GLY243     -0.2863
    108  N        105.4560   10.1220   15.3670 N.3   262  ASP262     -0.1239
    109  CA       104.2330   10.6070   14.7260 C.3   262  ASP262      0.1674
    110  C        104.5770   11.8710   13.9630 C.2   262  ASP262      0.2266
    111  O        105.4170   12.6540   14.4040 O.2   262  ASP262     -0.2867
    112  CB       103.1400   10.9120   15.7490 C.3   262  ASP262      0.1410
    113  CG       103.3760   12.2270   16.4670 C.2   262  ASP262      0.3668
    114  OD1      104.1110   12.2360   17.4780 O.co2 262  ASP262     -0.2456
    115  OD2      102.8420   13.2570   16.0060 O.co2 262  ASP262     -0.2456
@<TRIPOS>BOND
     1   110   111    2
     2   110   109    1
     3   107   106    2
     4   109   108    1
     5   109   112    1
     6   106   105    1
     7   112   113    1
     8   105   104    1
     9   115   113   ar
    10   113   114   ar
    11    94    93    2
    12    95    92    1
    13    93    92    1
    14    92    91    1
    15   104    98   am
    16    86    85    2
    17    34    33    1
    18    43    41   am
    19    98    99    2
    20    98    97    1
    21    91    85   am
    22    85    84    1
    23    32    33   ar
    24    32    30   ar
    25    33    31   ar
    26    41    42    2
    27    41    40    1
    28    97    96    1
    29    97   100    1
    30    40    39    1
    31    30    28   ar
    32    84    87    1
    33    84    83    1
    34    31    29   ar
    35    87    88    1
    36     8     6   ar
    37    39    36    1
    38   100   101    1
    39    28    29   ar
    40    28    27    1
    41    89    88    1
    42    83    81   am
    43    36    37    1
    44    36    35    1
    45    88    90    1
    46    38    37    2
    47     6     7   ar
    48     6     5    1
    49    82    81    2
    50   101   102    1
    51    81    80    1
    52    35    25   am
    53     5     2    1
    54    26    25    2
    55    27    24    1
    56    25    24    1
    57     1     2    1
    58    57    56    1
    59   103   102    1
    60    80    79    1
    61     2     3    1
    62    24    23    1
    63    79    77   am
    64    77    78    2
    65    77    76    1
    66    56    53    1
    67    76    75    1
    68    23    21   am
    69     3     4    2
    70     3     9   am
    71    16    15    1
    72    16    17    1
    73    18    17    2
    74    55    54    2
    75    15    11   am
    76     9    10    1
    77    17    19   am
    78    53    54    1
    79    53    52    1
    80    21    22    2
    81    21    20    1
    82    19    20    1
    83    11    10    1
    84    11    12    2
    85    10    13    1
    86    73    72    2
    87    74    72   am
    88    64    62    1
    89    51    49   ar
    90    65    63    1
    91    14    13    1
    92    50    49   ar
    93    72    71    1
    94    63    62    1
    95    49    48    1
    96    62    59    1
    97    59    60    1
    98    59    58    1
    99    67    68    1
   100    67    66    1
   101    67    70    1
   102    71    70    1
   103    47    46    2
   104    68    69    2
   105    48    45    1
   106    60    61    2
   107    46    45    1
   108    44    45    1
