@<TRIPOS>MOLECULE
tmp/4q4pA00.pdb
 140 130 0 0 0
SMALL
GASTEIGER

@<TRIPOS>ATOM
      1  N         98.9100   12.4660   22.5790 N.3    92  ASP92      -0.1225
      2  CA        99.7510   13.4880   23.1750 C.3    92  ASP92       0.1805
      3  C         98.9760   14.1910   24.2970 C.2    92  ASP92       0.2598
      4  O         97.7860   13.9170   24.5160 O.2    92  ASP92      -0.2718
      5  CB       100.2720   14.4770   22.1120 C.3    92  ASP92       0.1424
      6  CG        99.1610   15.1870   21.3450 C.2    92  ASP92       0.3668
      7  OD1       98.0370   15.3130   21.8610 O.co2  92  ASP92      -0.2456
      8  OD2       99.4320   15.6510   20.2100 O.co2  92  ASP92      -0.2456
      9  N         99.6420   15.0740   25.0290 N.am   93  SER93      -0.1952
     10  CA        99.0660   15.6280   26.2470 C.3    93  SER93       0.1924
     11  C         98.1080   16.7920   25.9930 C.2    93  SER93       0.2314
     12  O         97.3320   17.1810   26.8660 O.2    93  SER93      -0.2863
     13  CB       100.1830   16.0900   27.1780 C.3    93  SER93       0.2116
     14  OG       100.7150   17.3290   26.7090 O.3    93  SER93      -0.2180
     15  N        101.4270   20.8290   23.9660 N.3    96  TYR96      -0.1241
     16  CA       102.3470   21.3250   22.9430 C.3    96  TYR96       0.1605
     17  C        101.6150   22.2280   21.9710 C.2    96  TYR96       0.2264
     18  O        102.0910   23.3130   21.6500 O.2    96  TYR96      -0.2867
     19  CB       103.0010   20.1680   22.1810 C.3    96  TYR96       0.0534
     20  CG       104.0310   20.6010   21.1510 C.ar   96  TYR96      -0.0201
     21  CD1      105.3080   20.9790   21.5350 C.ar   96  TYR96      -0.0009
     22  CD2      103.7260   20.6070   19.7930 C.ar   96  TYR96      -0.0009
     23  CE1      106.2520   21.3740   20.6000 C.ar   96  TYR96       0.0417
     24  CE2      104.6600   20.9940   18.8500 C.ar   96  TYR96       0.0417
     25  CZ       105.9220   21.3750   19.2570 C.ar   96  TYR96       0.1957
     26  OH       106.8620   21.7670   18.3240 O.3    96  TYR96      -0.2866
     27  N        103.7670   18.0550   29.8180 N.3   137  ASP137     -0.1239
     28  CA       105.0730   18.6860   29.9880 C.3   137  ASP137      0.1674
     29  C        105.0880   20.1010   29.4190 C.2   137  ASP137      0.2266
     30  O        104.0560   20.6410   29.0190 O.2   137  ASP137     -0.2867
     31  CB       106.1660   17.8450   29.3220 C.3   137  ASP137      0.1410
     32  CG       106.1380   17.9340   27.8010 C.2   137  ASP137      0.3668
     33  OD1      105.0670   18.2250   27.2360 O.co2 137  ASP137     -0.2456
     34  OD2      107.2060   17.7340   27.1810 O.co2 137  ASP137     -0.2456
     35  N        107.4450   22.0880   26.5100 N.3   139  CYS139     -0.1235
     36  CA       108.5180   22.0580   25.5300 C.3   139  CYS139      0.1677
     37  C        109.2660   23.3850   25.5720 C.2   139  CYS139      0.2270
     38  O        108.7490   24.4090   25.1480 O.2   139  CYS139     -0.2867
     39  CB       107.9700   21.7880   24.1250 C.3   139  CYS139      0.0956
     40  SG       109.2580   21.7120   22.8470 S.3   139  CYS139     -0.0801
     41  N        108.5620   12.4810   29.6450 N.3   182  ILE182     -0.1245
     42  CA       109.2540   13.2450   28.6080 C.3   182  ILE182      0.1561
     43  C        110.4430   14.0050   29.1840 C.2   182  ILE182      0.2260
     44  O        110.2870   14.8620   30.0590 O.2   182  ILE182     -0.2867
     45  CB       108.3210   14.2540   27.9190 C.3   182  ILE182      0.0252
     46  CG1      107.0610   13.5670   27.3930 C.3   182  ILE182      0.0019
     47  CG2      109.0550   14.9530   26.7940 C.3   182  ILE182      0.0019
     48  CD1      105.9840   14.5420   26.9010 C.3   182  ILE182      0.0001
     49  N        113.3690   16.7050   29.3250 N.3   184  GLN184     -0.1245
     50  CA       113.6480   18.0570   28.8330 C.3   184  GLN184      0.1566
     51  C        115.0780   18.4400   29.2010 C.2   184  GLN184      0.2260
     52  O        115.8800   17.5690   29.5120 O.2   184  GLN184     -0.2867
     53  CB       112.6230   19.0540   29.3850 C.3   184  GLN184      0.0367
     54  CG       111.1920   18.7270   28.9380 C.3   184  GLN184      0.0905
     55  CD       110.9480   19.0500   27.4740 C.2   184  GLN184      0.2608
     56  OE1      111.6880   19.8240   26.8660 O.2   184  GLN184     -0.2717
     57  NE2      109.9060   18.4520   26.8990 N.am  184  GLN184     -0.0878
     58  N        112.2070   11.7250   24.3420 N.3   209  VAL209     -0.1231
     59  CA       113.1250   12.8430   24.3020 C.3   209  VAL209      0.1692
     60  C        112.3590   14.0480   23.7790 C.2   209  VAL209      0.2593
     61  O        112.0050   14.1170   22.5910 O.2   209  VAL209     -0.2718
     62  CB       114.3390   12.5480   23.4070 C.3   209  VAL209      0.0266
     63  CG1      115.2450   13.7610   23.3430 C.3   209  VAL209      0.0020
     64  CG2      115.0890   11.3130   23.9080 C.3   209  VAL209      0.0020
     65  N        112.0580   14.9780   24.6790 N.am  210  GLY210     -0.1942
     66  CA       111.3310   16.1740   24.3080 C.3   210  GLY210      0.2014
     67  C        112.2770   17.3140   24.0090 C.2   210  GLY210      0.2639
     68  O        113.4920   17.1720   24.1340 O.2   210  GLY210     -0.2714
     69  N        111.7150   18.4440   23.6080 N.am  211  GLY211     -0.1939
     70  CA       112.4850   19.6680   23.4430 C.3   211  GLY211      0.2014
     71  C        113.3770   19.7440   22.2160 C.2   211  GLY211      0.2639
     72  O        114.2180   20.6480   22.1100 O.2   211  GLY211     -0.2714
     73  N        113.1880   18.8130   21.2860 N.am  212  LEU212     -0.1963
     74  CA       113.9740   18.7820   20.0530 C.3   212  LEU212      0.1728
     75  C        113.0540   18.9130   18.8330 C.2   212  LEU212      0.2616
     76  O        111.8290   18.9350   18.9730 O.2   212  LEU212     -0.2715
     77  CB       114.8080   17.4920   19.9980 C.3   212  LEU212      0.0311
     78  CG       115.9180   17.3810   21.0610 C.3   212  LEU212      0.0022
     79  CD1      116.6680   16.0590   20.9110 C.3   212  LEU212      0.0001
     80  CD2      116.8910   18.5630   20.9900 C.3   212  LEU212      0.0001
     81  N        113.6490   19.0120   17.6450 N.am  213  ALA213     -0.1963
     82  CA       112.9020   19.3350   16.4310 C.3   213  ALA213      0.1728
     83  C        112.0720   20.6050   16.6380 C.2   213  ALA213      0.2616
     84  O        110.8850   20.6620   16.3000 O.2   213  ALA213     -0.2715
     85  CB       112.0120   18.1580   16.0010 C.3   213  ALA213      0.0334
     86  N        112.7140   21.6270   17.2030 N.am  214  VAL214     -0.1977
     87  CA       112.0600   22.9090   17.4430 C.3   214  VAL214      0.1596
     88  C        112.9050   24.0560   16.9030 C.2   214  VAL214      0.2287
     89  O        112.8410   25.1860   17.3990 O.2   214  VAL214     -0.2864
     90  CB       111.7730   23.1300   18.9420 C.3   214  VAL214      0.0276
     91  CG1      110.6450   22.2070   19.4080 C.3   214  VAL214      0.0022
     92  CG2      113.0350   22.9100   19.7690 C.3   214  VAL214      0.0022
     93  N        109.9010   12.8070   19.8240 N.3   241  MET241     -0.1230
     94  CA       108.6590   13.4660   19.4430 C.3   241  MET241      0.1702
     95  C        108.8260   14.4340   18.2640 C.2   241  MET241      0.2592
     96  O        109.7130   15.2840   18.2710 O.2   241  MET241     -0.2718
     97  CB       108.0910   14.1940   20.6680 C.3   241  MET241      0.0401
     98  CG       108.0090   13.3000   21.9170 C.3   241  MET241      0.0596
     99  SD       107.0750   14.0780   23.2640 S.3   241  MET241     -0.1393
    100  CE       105.4210   13.9350   22.5960 C.3   241  MET241      0.0692
    101  N        107.9740   14.2820   17.2510 N.am  242  GLY242     -0.1957
    102  CA       107.9240   15.2120   16.1290 C.3   242  GLY242      0.1869
    103  C        108.9940   15.0560   15.0580 C.2   242  GLY242      0.2309
    104  O        109.2450   15.9810   14.2970 O.2   242  GLY242     -0.2863
    105  N        110.4490   12.4770   11.8560 N.3   244  GLY244     -0.1225
    106  CA       110.9830   13.6170   11.1260 C.3   244  GLY244      0.1811
    107  C        111.1580   13.2170    9.6700 C.2   244  GLY244      0.2280
    108  O        110.4480   12.3360    9.1820 O.2   244  GLY244     -0.2866
    109  N        105.3780   12.0400   13.0620 N.3   262  CYS262     -0.1221
    110  CA       105.6110   13.2600   12.3040 C.3   262  CYS262      0.1808
    111  C        104.4760   13.4960   11.3280 C.2   262  CYS262      0.2601
    112  O        103.9770   12.5390   10.7260 O.2   262  CYS262     -0.2717
    113  CB       106.9440   13.1640   11.5590 C.3   262  CYS262      0.0970
    114  SG       107.5560   14.7350   10.9560 S.3   262  CYS262     -0.0800
    115  N        104.0740   14.7550   11.1630 N.am  263  VAL263     -0.1965
    116  CA       103.0630   15.0970   10.1660 C.3   263  VAL263      0.1727
    117  C        103.6220   15.1460    8.7410 C.2   263  VAL263      0.2616
    118  O        102.8540   15.2570    7.8050 O.2   263  VAL263     -0.2715
    119  CB       102.3840   16.4720   10.4460 C.3   263  VAL263      0.0290
    120  CG1      101.6740   16.4870   11.7990 C.3   263  VAL263      0.0023
    121  CG2      103.3880   17.6220   10.3570 C.3   263  VAL263      0.0023
    122  N        104.9350   15.0500    8.5620 N.am  264  LEU264     -0.1977
    123  CA       105.5080   15.2460    7.2250 C.3   264  LEU264      0.1596
    124  C        104.9260   14.3420    6.1310 C.2   264  LEU264      0.2287
    125  O        104.5440   14.8420    5.0780 O.2   264  LEU264     -0.2864
    126  CB       107.0270   15.0810    7.2600 C.3   264  LEU264      0.0297
    127  CG       107.8120   16.3100    7.7060 C.3   264  LEU264      0.0022
    128  CD1      109.2970   16.0300    7.5540 C.3   264  LEU264      0.0001
    129  CD2      107.4050   17.5580    6.9280 C.3   264  LEU264      0.0001
    130  N        101.2050   15.6760    5.5820 N.3   267  ARG267     -0.1245
    131  CA       101.1820   17.0740    5.1610 C.3   267  ARG267      0.1563
    132  C        101.8690   17.2600    3.8110 C.2   267  ARG267      0.2260
    133  O        101.3370   17.9390    2.9270 O.2   267  ARG267     -0.2867
    134  CB       101.8460   17.9580    6.2180 C.3   267  ARG267      0.0307
    135  CG       101.6160   19.4480    6.0070 C.3   267  ARG267      0.0489
    136  CD       102.4580   20.2790    6.9650 C.3   267  ARG267      0.2205
    137  NE       103.8840   20.1100    6.7060 N.pl3 267  ARG267     -0.0865
    138  CZ       104.8400   20.8160    7.2980 C.cat 267  ARG267      0.5346
    139  NH1      104.5240   21.7440    8.1890 N.pl3 267  ARG267      0.1354
    140  NH2      106.1120   20.5950    6.9960 N.pl3 267  ARG267      0.1354
@<TRIPOS>BOND
     1   133   132    2
     2   132   131    1
     3   125   124    2
     4   131   130    1
     5   131   134    1
     6   135   134    1
     7   135   136    1
     8   124   123    1
     9   137   136    1
    10   137   138    2
    11   129   127    1
    12   140   138    1
    13   123   126    1
    14   123   122    1
    15   126   127    1
    16   138   139    1
    17   128   127    1
    18   118   117    2
    19   122   117   am
    20   117   116    1
    21   108   107    2
    22   107   106    1
    23   116   119    1
    24   116   115    1
    25   121   119    1
    26   119   120    1
    27   112   111    2
    28   114   113    1
    29   106   105    1
    30   115   111   am
    31   111   110    1
    32   113   110    1
    33   110   109    1
    34   104   103    2
    35   103   102    1
    36    85    82    1
    37   102   101    1
    38    84    83    2
    39    82    83    1
    40    82    81    1
    41    83    86   am
    42    88    89    2
    43    88    87    1
    44    86    87    1
    45   101    95   am
    46    87    90    1
    47    81    75   am
    48    95    96    2
    49    95    94    1
    50    26    25    1
    51    75    76    2
    52    75    74    1
    53    24    25   ar
    54    24    22   ar
    55    90    91    1
    56    90    92    1
    57    25    23   ar
    58    94    93    1
    59    94    97    1
    60    22    20   ar
    61    77    74    1
    62    77    78    1
    63    74    73    1
    64     8     6   ar
    65    23    21   ar
    66    97    98    1
    67    79    78    1
    68    80    78    1
    69    20    21   ar
    70    20    19    1
    71    73    71   am
    72     6     7   ar
    73     6     5    1
    74    18    17    2
    75    98    99    1
    76    17    16    1
    77    72    71    2
    78     5     2    1
    79    19    16    1
    80    71    70    1
    81     1     2    1
    82    61    60    2
    83   100    99    1
    84    40    39    1
    85    16    15    1
    86     2     3    1
    87    63    62    1
    88    62    64    1
    89    62    59    1
    90    70    69    1
    91    69    67   am
    92    60    59    1
    93    60    65   am
    94    67    68    2
    95    67    66    1
    96    39    36    1
    97     3     4    2
    98     3     9   am
    99    59    58    1
   100    66    65    1
   101     9    10    1
   102    38    37    2
   103    36    37    1
   104    36    35    1
   105    11    10    1
   106    11    12    2
   107    10    13    1
   108    14    13    1
   109    47    45    1
   110    56    55    2
   111    57    55   am
   112    48    46    1
   113    34    32   ar
   114    33    32   ar
   115    46    45    1
   116    55    54    1
   117    32    31    1
   118    45    42    1
   119    42    43    1
   120    42    41    1
   121    50    51    1
   122    50    49    1
   123    50    53    1
   124    54    53    1
   125    30    29    2
   126    43    44    2
   127    51    52    2
   128    31    28    1
   129    29    28    1
   130    27    28    1
