@<TRIPOS>MOLECULE
tmp/4q50D00.pdb
 186 177 0 0 0
SMALL
GASTEIGER

@<TRIPOS>ATOM
      1  N        -33.9720  -32.6550   21.2140 N.3    29  MET29      -0.1245
      2  CA       -35.3770  -32.3750   21.4420 C.3    29  MET29       0.1570
      3  C        -35.8410  -33.4070   22.4330 C.2    29  MET29       0.2261
      4  O        -36.8930  -33.2740   23.0340 O.2    29  MET29      -0.2867
      5  CB       -36.1930  -32.4840   20.1740 C.3    29  MET29       0.0387
      6  CG       -36.6850  -31.1480   19.6440 C.3    29  MET29       0.0595
      7  SD       -37.9580  -30.3140   20.6180 S.3    29  MET29      -0.1393
      8  CE       -38.9970  -31.7120   21.0700 C.3    29  MET29       0.0692
      9  N        -35.2280  -31.9460   26.0420 N.3    32  LEU32      -0.1231
     10  CA       -36.1540  -30.8410   26.3050 C.3    32  LEU32       0.1693
     11  C        -37.5670  -31.3450   26.5380 C.2    32  LEU32       0.2592
     12  O        -38.2860  -30.7780   27.3450 O.2    32  LEU32      -0.2718
     13  CB       -36.1300  -29.7980   25.1960 C.3    32  LEU32       0.0284
     14  CG       -34.8410  -28.9880   25.0910 C.3    32  LEU32       0.0019
     15  CD1      -34.8270  -28.1820   23.8130 C.3    32  LEU32       0.0001
     16  CD2      -34.7040  -28.0460   26.2590 C.3    32  LEU32       0.0001
     17  N        -37.9560  -32.4100   25.8360 N.am   33  THR33      -0.1953
     18  CA       -39.2300  -33.1110   26.0830 C.3    33  THR33       0.1897
     19  C        -39.2400  -33.5780   27.5210 C.2    33  THR33       0.2313
     20  O        -40.2360  -33.4570   28.2390 O.2    33  THR33      -0.2863
     21  CB       -39.3900  -34.3790   25.1900 C.3    33  THR33       0.1794
     22  OG1      -39.7370  -33.9950   23.8530 O.3    33  THR33      -0.2208
     23  CG2      -40.4590  -35.3400   25.7310 C.3    33  THR33       0.0378
     24  N        -37.2640  -33.0000   30.2100 N.3    35  LEU35      -0.1231
     25  CA       -37.1980  -32.0270   31.2700 C.3    35  LEU35       0.1693
     26  C        -38.6090  -31.5110   31.4000 C.2    35  LEU35       0.2592
     27  O        -39.1860  -31.6140   32.4810 O.2    35  LEU35      -0.2718
     28  CB       -36.1820  -30.9420   30.9520 C.3    35  LEU35       0.0284
     29  CG       -35.8510  -29.9520   32.0570 C.3    35  LEU35       0.0019
     30  CD1      -35.0140  -30.5590   33.1670 C.3    35  LEU35       0.0001
     31  CD2      -35.1240  -28.7680   31.4450 C.3    35  LEU35       0.0001
     32  N        -39.2000  -31.0670   30.2870 N.am   36  ALA36      -0.1966
     33  CA       -40.5430  -30.4830   30.3350 C.3    36  ALA36       0.1728
     34  C        -41.5560  -31.4180   30.9840 C.2    36  ALA36       0.2616
     35  O        -42.2800  -31.0320   31.8920 O.2    36  ALA36      -0.2715
     36  CB       -41.0110  -30.0520   28.9590 C.3    36  ALA36       0.0334
     37  N        -41.5670  -32.6620   30.5410 N.am   37  ASP37      -0.1971
     38  CA       -42.4500  -33.6520   31.1350 C.3    37  ASP37       0.1709
     39  C        -42.2870  -33.7740   32.6430 C.2    37  ASP37       0.2293
     40  O        -43.2710  -33.9290   33.3470 O.2    37  ASP37      -0.2864
     41  CB       -42.2550  -35.0160   30.4730 C.3    37  ASP37       0.1436
     42  CG       -42.8590  -35.0730   29.0750 C.2    37  ASP37       0.3671
     43  OD1      -43.6170  -34.1300   28.7520 O.co2  37  ASP37      -0.2456
     44  OD2      -42.5800  -36.0440   28.3140 O.co2  37  ASP37      -0.2456
     45  N        -41.0250  -31.4330   34.6930 N.3    39  GLU39      -0.1231
     46  CA       -41.4140  -30.1310   35.2370 C.3    39  GLU39       0.1699
     47  C        -42.9140  -30.0470   35.3790 C.2    39  GLU39       0.2592
     48  O        -43.4280  -29.5980   36.4110 O.2    39  GLU39      -0.2718
     49  CB       -40.9070  -28.9980   34.3490 C.3    39  GLU39       0.0402
     50  CG       -39.4590  -28.6540   34.6250 C.3    39  GLU39       0.1161
     51  CD       -38.9360  -27.6090   33.6720 C.2    39  GLU39       0.3649
     52  OE1      -38.4870  -28.0060   32.5560 O.co2  39  GLU39      -0.2457
     53  OE2      -38.9760  -26.3960   34.0480 O.co2  39  GLU39      -0.2457
     54  N        -43.5920  -30.5170   34.3360 N.am   40  LEU40      -0.1980
     55  CA       -45.0220  -30.4500   34.2130 C.3    40  LEU40       0.1596
     56  C        -45.6800  -31.0850   35.4170 C.2    40  LEU40       0.2287
     57  O        -46.5850  -30.5230   36.0130 O.2    40  LEU40      -0.2864
     58  CB       -45.4310  -31.1910   32.9620 C.3    40  LEU40       0.0297
     59  CG       -46.6740  -30.6110   32.3180 C.3    40  LEU40       0.0022
     60  CD1      -46.2460  -29.5630   31.2890 C.3    40  LEU40       0.0001
     61  CD2      -47.5240  -31.7450   31.7320 C.3    40  LEU40       0.0001
     62  N        -50.0080  -24.2800   30.3860 N.3    69  TRP69      -0.1227
     63  CA       -48.7920  -24.9970   30.8140 C.3    69  TRP69       0.1737
     64  C        -47.5060  -24.6090   30.1280 C.2    69  TRP69       0.2595
     65  O        -46.4540  -24.5360   30.7710 O.2    69  TRP69      -0.2718
     66  CB       -48.9990  -26.5110   30.7780 C.3    69  TRP69       0.0564
     67  CG       -49.0620  -27.0520   29.3810 C.ar   69  TRP69       0.0003
     68  CD1      -50.1980  -27.3270   28.6220 C.ar   69  TRP69       0.0946
     69  CD2      -47.9240  -27.3890   28.5080 C.ar   69  TRP69       0.0152
     70  NE1      -49.8540  -27.7910   27.3790 N.ar   69  TRP69      -0.2442
     71  CE2      -48.5100  -27.8490   27.2370 C.ar   69  TRP69       0.0810
     72  CE3      -46.5220  -27.3170   28.6330 C.ar   69  TRP69       0.0012
     73  CZ2      -47.7210  -28.2190   26.1580 C.ar   69  TRP69       0.0191
     74  CZ3      -45.7400  -27.6920   27.5360 C.ar   69  TRP69       0.0001
     75  CH2      -46.3270  -28.1310   26.3310 C.ar   69  TRP69       0.0015
     76  N        -47.5730  -24.3260   28.8260 N.am   70  LEU70      -0.1980
     77  CA       -46.3650  -24.0100   28.0630 C.3    70  LEU70       0.1596
     78  C        -45.9040  -22.6100   28.3620 C.2    70  LEU70       0.2287
     79  O        -44.7150  -22.3640   28.5500 O.2    70  LEU70      -0.2864
     80  CB       -46.5670  -24.1970   26.5620 C.3    70  LEU70       0.0297
     81  CG       -45.2950  -23.9140   25.7620 C.3    70  LEU70       0.0022
     82  CD1      -44.0920  -24.6540   26.3190 C.3    70  LEU70       0.0001
     83  CD2      -45.4860  -24.2880   24.3120 C.3    70  LEU70       0.0001
     84  N        -43.9410  -22.8680   31.6230 N.3    73  LEU73      -0.1231
     85  CA       -42.5740  -23.3770   31.6350 C.3    73  LEU73       0.1693
     86  C        -41.6850  -22.3150   31.0540 C.2    73  LEU73       0.2591
     87  O        -40.6010  -22.0490   31.5990 O.2    73  LEU73      -0.2718
     88  CB       -42.4170  -24.6130   30.7920 C.3    73  LEU73       0.0284
     89  CG       -43.1710  -25.8720   31.1240 C.3    73  LEU73       0.0019
     90  CD1      -43.0460  -26.7040   29.8660 C.3    73  LEU73       0.0001
     91  CD2      -42.6160  -26.6190   32.3340 C.3    73  LEU73       0.0001
     92  N        -42.1460  -21.7110   29.9520 N.am   74  MET74      -0.1979
     93  CA       -41.3750  -20.6810   29.3090 C.3    74  MET74       0.1605
     94  C        -41.1170  -19.5600   30.2700 C.2    74  MET74       0.2287
     95  O        -39.9540  -19.2640   30.5210 O.2    74  MET74      -0.2864
     96  CB       -41.9870  -20.1860   28.0310 C.3    74  MET74       0.0413
     97  CG       -41.6820  -21.1050   26.8810 C.3    74  MET74       0.0598
     98  SD       -42.6360  -20.6200   25.4270 S.3    74  MET74      -0.1393
     99  CE       -42.1310  -21.8950   24.2690 C.3    74  MET74       0.0692
    100  N        -38.4020  -20.6470   32.5950 N.3    77  LEU77      -0.1245
    101  CA       -37.0810  -20.6990   31.9850 C.3    77  LEU77       0.1561
    102  C        -36.4850  -19.3190   31.9180 C.2    77  LEU77       0.2260
    103  O        -35.3720  -19.0950   32.3940 O.2    77  LEU77      -0.2867
    104  CB       -37.2410  -21.2200   30.5710 C.3    77  LEU77       0.0270
    105  CG       -36.1340  -21.3320   29.5650 C.3    77  LEU77       0.0019
    106  CD1      -35.2820  -22.4980   29.9970 C.3    77  LEU77       0.0001
    107  CD2      -36.8140  -21.6810   28.2720 C.3    77  LEU77       0.0001
    108  N        -35.1540  -18.1450   35.2640 N.3    80  ARG80      -0.1245
    109  CA       -33.8650  -18.6780   35.7640 C.3    80  ARG80       0.1563
    110  C        -32.6810  -18.3530   34.8400 C.2    80  ARG80       0.2260
    111  O        -31.5160  -18.2470   35.2970 O.2    80  ARG80      -0.2867
    112  CB       -33.9070  -20.1520   36.1910 C.3    80  ARG80       0.0307
    113  CG       -34.3330  -21.1350   35.1380 C.3    80  ARG80       0.0489
    114  CD       -34.4110  -22.5710   35.6860 C.3    80  ARG80       0.2205
    115  NE       -35.0220  -23.4590   34.6880 N.pl3  80  ARG80      -0.0865
    116  CZ       -36.3300  -23.4780   34.4260 C.cat  80  ARG80       0.5346
    117  NH1      -37.1430  -22.6830   35.1350 N.pl3  80  ARG80       0.1354
    118  NH2      -36.8270  -24.2860   33.4850 N.pl3  80  ARG80       0.1354
    119  N        -31.9930  -24.0240   30.9270 N.3    90  PHE90      -0.1241
    120  CA       -32.9750  -25.0670   31.1370 C.3    90  PHE90       0.1605
    121  C        -32.8940  -25.8490   32.4560 C.2    90  PHE90       0.2264
    122  O        -33.8880  -26.4040   32.8990 O.2    90  PHE90      -0.2867
    123  CB       -32.9560  -26.0180   29.9810 C.3    90  PHE90       0.0534
    124  CG       -33.5660  -25.4480   28.7630 C.ar   90  PHE90      -0.0203
    125  CD1      -34.9360  -25.4310   28.6230 C.ar   90  PHE90      -0.0042
    126  CD2      -32.7700  -24.9220   27.7630 C.ar   90  PHE90      -0.0042
    127  CE1      -35.5130  -24.9230   27.4980 C.ar   90  PHE90      -0.0003
    128  CE2      -33.3330  -24.4140   26.6220 C.ar   90  PHE90      -0.0003
    129  CZ       -34.7140  -24.4240   26.4890 C.ar   90  PHE90      -0.0000
    130  N        -36.4940  -23.7590   15.8440 N.3   107  MET107     -0.1245
    131  CA       -36.3840  -23.5230   17.2750 C.3   107  MET107      0.1570
    132  C        -35.5110  -22.3220   17.6250 C.2   107  MET107      0.2261
    133  O        -35.5980  -21.8180   18.7280 O.2   107  MET107     -0.2867
    134  CB       -35.8440  -24.7690   17.9520 C.3   107  MET107      0.0387
    135  CG       -36.3980  -24.9540   19.3360 C.3   107  MET107      0.0595
    136  SD       -35.2450  -25.8670   20.3650 S.3   107  MET107     -0.1393
    137  CE       -35.9770  -27.5020   20.3960 C.3   107  MET107      0.0692
    138  N        -37.6750  -19.1760   18.6290 N.3   110  ILE110     -0.1231
    139  CA       -38.1530  -19.1280   19.9910 C.3   110  ILE110      0.1692
    140  C        -37.0750  -18.8220   21.0500 C.2   110  ILE110      0.2592
    141  O        -37.3310  -18.0830   22.0150 O.2   110  ILE110     -0.2718
    142  CB       -38.8040  -20.4260   20.4200 C.3   110  ILE110      0.0266
    143  CG1      -39.5090  -21.1160   19.2620 C.3   110  ILE110      0.0019
    144  CG2      -39.7230  -20.1000   21.5750 C.3   110  ILE110      0.0020
    145  CD1      -39.9740  -22.5110   19.6280 C.3   110  ILE110      0.0001
    146  N        -35.8900  -19.4180   20.8900 N.am  111  PHE111     -0.1976
    147  CA       -34.7460  -19.1390   21.7710 C.3   111  PHE111      0.1639
    148  C        -34.4860  -17.6070   21.8200 C.2   111  PHE111      0.2290
    149  O        -34.4070  -16.9920   22.8930 O.2   111  PHE111     -0.2864
    150  CB       -33.5060  -19.9140   21.2810 C.3   111  PHE111      0.0560
    151  CG       -33.3540  -21.3010   21.8730 C.ar  111  PHE111     -0.0200
    152  CD1      -34.4560  -22.1490   22.0580 C.ar  111  PHE111     -0.0042
    153  CD2      -32.0880  -21.7910   22.2100 C.ar  111  PHE111     -0.0042
    154  CE1      -34.3100  -23.4300   22.5870 C.ar  111  PHE111     -0.0003
    155  CE2      -31.9430  -23.0820   22.7410 C.ar  111  PHE111     -0.0003
    156  CZ       -33.0550  -23.8970   22.9300 C.ar  111  PHE111     -0.0000
    157  N        -37.1970  -15.9600   23.7100 N.3   114  LEU114     -0.1245
    158  CA       -36.8910  -16.3100   25.1050 C.3   114  LEU114      0.1561
    159  C        -35.6900  -15.5190   25.6850 C.2   114  LEU114      0.2260
    160  O        -35.7720  -14.9530   26.7870 O.2   114  LEU114     -0.2867
    161  CB       -36.6670  -17.8150   25.2110 C.3   114  LEU114      0.0270
    162  CG       -37.8640  -18.7040   24.8700 C.3   114  LEU114      0.0019
    163  CD1      -37.4280  -20.1210   24.5440 C.3   114  LEU114      0.0001
    164  CD2      -38.8600  -18.6820   26.0180 C.3   114  LEU114      0.0001
    165  N        -44.2930  -21.9300   20.0340 N.3   199  GLY199     -0.1225
    166  CA       -43.8800  -23.1780   20.6260 C.3   199  GLY199      0.1811
    167  C        -44.7800  -24.3650   20.3160 C.2   199  GLY199      0.2280
    168  O        -44.3020  -25.4380   19.9330 O.2   199  GLY199     -0.2866
    169  N        -44.8210  -25.6170   16.6850 N.3   202  HIS202     -0.1226
    170  CA       -43.6960  -26.4730   16.3700 C.3   202  HIS202      0.1752
    171  C        -43.8570  -27.8550   16.9360 C.2   202  HIS202      0.2595
    172  O        -43.5540  -28.8410   16.2600 O.2   202  HIS202     -0.2718
    173  CB       -42.3800  -25.8590   16.8020 C.3   202  HIS202      0.0759
    174  CG       -41.1900  -26.6570   16.3490 C.ar  202  HIS202      0.0818
    175  ND1      -40.7670  -27.7670   17.0020 N.ar  202  HIS202     -0.2268
    176  CD2      -40.3620  -26.5130   15.2360 C.ar  202  HIS202      0.1154
    177  CE1      -39.7090  -28.2920   16.3530 C.ar  202  HIS202      0.1986
    178  NE2      -39.4600  -27.5250   15.2720 N.ar  202  HIS202     -0.2212
    179  N        -44.3700  -27.9190   18.1630 N.am  203  LEU203     -0.1980
    180  CA       -44.5500  -29.1500   18.9440 C.3   203  LEU203      0.1596
    181  C        -45.5760  -30.0810   18.3260 C.2   203  LEU203      0.2287
    182  O        -45.5060  -31.2930   18.4980 O.2   203  LEU203     -0.2864
    183  CB       -45.0130  -28.7800   20.3560 C.3   203  LEU203      0.0297
    184  CG       -44.2980  -29.4100   21.5410 C.3   203  LEU203      0.0022
    185  CD1      -42.9410  -28.7760   21.7700 C.3   203  LEU203      0.0001
    186  CD2      -45.1620  -29.2330   22.7650 C.3   203  LEU203      0.0001
@<TRIPOS>BOND
     1   176   178   ar
     2   176   174   ar
     3   178   177   ar
     4   130   131    1
     5   172   171    2
     6   174   173    1
     7   174   175   ar
     8   177   175   ar
     9   170   169    1
    10   170   173    1
    11   170   171    1
    12   171   179   am
    13   131   132    1
    14   131   134    1
    15   132   133    2
    16   134   135    1
    17   179   180    1
    18   181   182    2
    19   181   180    1
    20   138   139    1
    21   180   183    1
    22   143   145    1
    23   143   142    1
    24   135   136    1
    25     6     5    1
    26     6     7    1
    27   168   167    2
    28   139   142    1
    29   139   140    1
    30   165   166    1
    31     5     2    1
    32   167   166    1
    33   183   184    1
    34   136   137    1
    35   142   144    1
    36     7     8    1
    37   146   140   am
    38   146   147    1
    39   140   141    2
    40     1     2    1
    41   150   147    1
    42   150   151    1
    43     2     3    1
    44   184   185    1
    45   184   186    1
    46   147   148    1
    47   148   149    2
    48   151   152   ar
    49   151   153   ar
    50   152   154   ar
    51   153   155   ar
    52     3     4    2
    53   154   156   ar
    54   155   156   ar
    55   157   158    1
    56    15    14    1
    57    22    21    1
    58    99    98    1
    59    83    81    1
    60   163   162    1
    61   162   161    1
    62   162   164    1
    63    14    13    1
    64    14    16    1
    65   158   161    1
    66   158   159    1
    67    21    23    1
    68    21    18    1
    69    13    10    1
    70    98    97    1
    71   159   160    2
    72    81    82    1
    73    81    80    1
    74    17    18    1
    75    17    11   am
    76     9    10    1
    77    18    19    1
    78    73    75   ar
    79    73    71   ar
    80    10    11    1
    81    75    74   ar
    82   129   128   ar
    83   129   127   ar
    84    11    12    2
    85    80    77    1
    86   128   126   ar
    87    97    96    1
    88    71    70   ar
    89    71    69   ar
    90    70    68   ar
    91   127   125   ar
    92    19    20    2
    93    74    72   ar
    94   126   124   ar
    95    96    93    1
    96    77    78    1
    97    77    76    1
    98   107   105    1
    99    44    42   ar
   100    78    79    2
   101    69    72   ar
   102    69    67   ar
   103    68    67   ar
   104   125   124   ar
   105    43    42   ar
   106   124   123    1
   107    76    64   am
   108    36    33    1
   109    42    41    1
   110    93    92    1
   111    93    94    1
   112    67    66    1
   113   105   106    1
   114   105   104    1
   115    90    89    1
   116    92    86   am
   117   123   120    1
   118    64    65    2
   119    64    63    1
   120    24    25    1
   121    94    95    2
   122    32    33    1
   123    32    26   am
   124    33    34    1
   125    62    63    1
   126    41    38    1
   127    37    34   am
   128    37    38    1
   129   104   101    1
   130    66    63    1
   131    88    89    1
   132    88    85    1
   133   119   120    1
   134    28    25    1
   135    28    29    1
   136    34    35    2
   137    86    87    2
   138    86    85    1
   139    89    91    1
   140    38    39    1
   141   120   121    1
   142    25    26    1
   143    60    59    1
   144    26    27    2
   145    31    29    1
   146    84    85    1
   147    61    59    1
   148   102   101    1
   149   102   103    2
   150   101   100    1
   151    29    30    1
   152    59    58    1
   153   121   122    2
   154    52    51   ar
   155    39    40    2
   156    58    55    1
   157   118   116    1
   158    51    53   ar
   159    51    50    1
   160    55    54    1
   161    55    56    1
   162    54    47   am
   163    49    50    1
   164    49    46    1
   165   116   115    2
   166   116   117    1
   167   115   114    1
   168    45    46    1
   169   110   111    2
   170   110   109    1
   171   113   114    1
   172   113   112    1
   173    46    47    1
   174   108   109    1
   175    47    48    2
   176    56    57    2
   177   109   112    1
