@<TRIPOS>MOLECULE
tmp/4q53A00.pdb
 88 88 0 0 0
SMALL
GASTEIGER

@<TRIPOS>ATOM
      1  N         28.6130   19.8720   25.7180 N.3    63  GLY63      -0.1210
      2  CA        29.3070   20.8280   26.5410 C.3    63  GLY63       0.1956
      3  C         28.9550   22.2280   26.1340 C.2    63  GLY63       0.2612
      4  O         28.3930   22.4560   25.0620 O.2    63  GLY63      -0.2717
      5  N         29.2790   23.1830   26.9990 N.am   64  LYS64      -0.1965
      6  CA        29.0360   24.5770   26.6860 C.3    64  LYS64       0.1728
      7  C         30.0010   25.5130   27.3730 C.2    64  LYS64       0.2616
      8  O         30.5490   25.2130   28.4450 O.2    64  LYS64      -0.2715
      9  CB        27.6060   24.9650   27.0410 C.3    64  LYS64       0.0311
     10  CG        27.2510   24.7760   28.5030 C.3    64  LYS64       0.0038
     11  CD        25.8660   25.3310   28.7800 C.3    64  LYS64       0.0206
     12  CE        25.3190   24.8440   30.1050 C.3    64  LYS64       0.1093
     13  NZ        26.1550   25.2840   31.2490 N.3    64  LYS64      -0.1314
     14  N         30.2290   26.6230   26.6950 N.am   65  ARG65      -0.1977
     15  CA        30.9950   27.7220   27.2190 C.3    65  ARG65       0.1597
     16  C         30.0130   28.8780   27.2680 C.2    65  ARG65       0.2287
     17  O         28.8260   28.7040   26.9900 O.2    65  ARG65      -0.2864
     18  CB        32.1820   28.0340   26.3160 C.3    65  ARG65       0.0334
     19  CG        33.1920   26.9110   26.2490 C.3    65  ARG65       0.0492
     20  CD        33.8300   26.5580   27.5840 C.3    65  ARG65       0.2205
     21  NE        34.5020   25.2710   27.4450 N.pl3  65  ARG65      -0.0865
     22  CZ        33.9870   24.1260   27.8850 C.cat  65  ARG65       0.5346
     23  NH1       32.8150   24.0810   28.5050 N.pl3  65  ARG65       0.1354
     24  NH2       34.6550   22.9900   27.7140 N.pl3  65  ARG65       0.1354
     25  N         28.6750   29.4980   23.4420 N.3    68  SER68      -0.1202
     26  CA        28.3750   28.4250   22.5060 C.3    68  SER68       0.2020
     27  C         28.2650   27.1100   23.2330 C.2    68  SER68       0.2619
     28  O         28.6210   27.0190   24.4030 O.2    68  SER68      -0.2717
     29  CB        29.4660   28.3230   21.4540 C.3    68  SER68       0.2103
     30  OG        30.7250   28.0860   22.0580 O.3    68  SER68      -0.2182
     31  N         27.7770   26.0880   22.5310 N.am   69  GLY69      -0.1942
     32  CA        27.6950   24.7530   23.0840 C.3    69  GLY69       0.2014
     33  C         27.4380   23.7280   22.0030 C.2    69  GLY69       0.2638
     34  O         27.2350   24.0910   20.8530 O.2    69  GLY69      -0.2714
     35  N         27.4840   22.4570   22.3630 N.am   70  PHE70      -0.1973
     36  CA        27.3190   21.3920   21.3960 C.3    70  PHE70       0.1639
     37  C         26.7100   20.1600   22.0570 C.2    70  PHE70       0.2290
     38  O         26.8970   19.9290   23.2600 O.2    70  PHE70      -0.2864
     39  CB        28.6740   21.0200   20.7510 C.3    70  PHE70       0.0560
     40  CG        29.6490   20.3920   21.7100 C.ar   70  PHE70      -0.0200
     41  CD1       30.4880   21.1770   22.4820 C.ar   70  PHE70      -0.0042
     42  CD2       29.7160   19.0160   21.8520 C.ar   70  PHE70      -0.0042
     43  CE1       31.3770   20.6010   23.3760 C.ar   70  PHE70      -0.0003
     44  CE2       30.5960   18.4460   22.7400 C.ar   70  PHE70      -0.0003
     45  CZ        31.4200   19.2340   23.5000 C.ar   70  PHE70      -0.0000
     46  N         24.9570   22.3610   17.1810 N.3    85  PHE85      -0.1227
     47  CA        25.8300   23.4140   17.6710 C.3    85  PHE85       0.1736
     48  C         24.9860   24.6180   18.0300 C.2    85  PHE85       0.2595
     49  O         24.1180   25.0280   17.2610 O.2    85  PHE85      -0.2718
     50  CB        26.9060   23.7280   16.6380 C.3    85  PHE85       0.0547
     51  CG        27.7460   22.5120   16.2720 C.ar   85  PHE85      -0.0202
     52  CD1       28.4660   21.7920   17.2090 C.ar   85  PHE85      -0.0042
     53  CD2       27.7420   22.0340   14.9940 C.ar   85  PHE85      -0.0042
     54  CE1       29.1490   20.5890   16.8410 C.ar   85  PHE85      -0.0003
     55  CE2       28.4740   20.9080   14.6510 C.ar   85  PHE85      -0.0003
     56  CZ        29.2080   20.2460   15.5870 C.ar   85  PHE85      -0.0000
     57  N         25.2380   25.1440   19.2260 N.am   86  PHE86      -0.1962
     58  CA        24.4440   26.2210   19.8010 C.3    86  PHE86       0.1771
     59  C         25.2510   27.4950   19.9170 C.2    86  PHE86       0.2619
     60  O         26.4620   27.4600   20.1570 O.2    86  PHE86      -0.2715
     61  CB        24.0120   25.8530   21.2260 C.3    86  PHE86       0.0574
     62  CG        23.1180   24.6500   21.3070 C.ar   86  PHE86      -0.0200
     63  CD1       23.6340   23.3720   21.2150 C.ar   86  PHE86      -0.0042
     64  CD2       21.7570   24.8030   21.4920 C.ar   86  PHE86      -0.0042
     65  CE1       22.8080   22.2650   21.3040 C.ar   86  PHE86      -0.0003
     66  CE2       20.9290   23.7030   21.5940 C.ar   86  PHE86      -0.0003
     67  CZ        21.4550   22.4270   21.5010 C.ar   86  PHE86      -0.0000
     68  N         24.5570   28.6180   19.7830 N.am   87  ARG87      -0.1977
     69  CA        25.1330   29.9280   20.0410 C.3    87  ARG87       0.1597
     70  C         24.2570   30.6540   21.0610 C.2    87  ARG87       0.2287
     71  O         23.0430   30.4950   21.0560 O.2    87  ARG87      -0.2864
     72  CB        25.1980   30.7400   18.7410 C.3    87  ARG87       0.0334
     73  CG        23.8360   31.0240   18.1170 C.3    87  ARG87       0.0492
     74  CD        23.9540   31.6340   16.7200 C.3    87  ARG87       0.2205
     75  NE        22.7690   32.4020   16.3340 N.pl3  87  ARG87      -0.0865
     76  CZ        21.6970   31.9120   15.7120 C.cat  87  ARG87       0.5346
     77  NH1       21.6170   30.6340   15.3820 N.pl3  87  ARG87       0.1354
     78  NH2       20.6910   32.7180   15.4150 N.pl3  87  ARG87       0.1354
     79  N         22.2370   26.7860   16.0940 N.3    96  HIS96      -0.1241
     80  CA        22.7520   27.4830   14.9290 C.3    96  HIS96       0.1621
     81  C         23.1220   26.5190   13.7860 C.2    96  HIS96       0.2264
     82  O         23.1440   26.9120   12.6200 O.2    96  HIS96      -0.2867
     83  CB        23.9790   28.2860   15.3510 C.3    96  HIS96       0.0745
     84  CG        24.7020   28.9330   14.2200 C.ar   96  HIS96       0.0817
     85  ND1       24.1140   29.8680   13.3950 N.ar   96  HIS96      -0.2268
     86  CD2       25.9700   28.7790   13.7750 C.ar   96  HIS96       0.1154
     87  CE1       24.9930   30.2630   12.4900 C.ar   96  HIS96       0.1986
     88  NE2       26.1260   29.6170   12.6990 N.ar   96  HIS96      -0.2212
@<TRIPOS>BOND
     1    87    88   ar
     2    87    85   ar
     3    82    81    2
     4    88    86   ar
     5    85    84   ar
     6    86    84   ar
     7    81    80    1
     8    84    83    1
     9    55    53   ar
    10    55    56   ar
    11    80    83    1
    12    80    79    1
    13    53    51   ar
    14    77    76    1
    15    78    76    1
    16    56    54   ar
    17    76    75    2
    18    51    50    1
    19    51    52   ar
    20    75    74    1
    21    50    47    1
    22    74    73    1
    23    54    52   ar
    24    46    47    1
    25    49    48    2
    26    47    48    1
    27    48    57   am
    28    73    72    1
    29    72    69    1
    30    57    58    1
    31    68    59   am
    32    68    69    1
    33    58    59    1
    34    58    61    1
    35    59    60    2
    36    69    70    1
    37    39    36    1
    38    39    40    1
    39    34    33    2
    40    71    70    2
    41    63    65   ar
    42    63    62   ar
    43    61    62    1
    44    65    67   ar
    45    62    64   ar
    46    36    37    1
    47    36    35    1
    48    29    30    1
    49    29    26    1
    50    64    66   ar
    51    67    66   ar
    52    40    42   ar
    53    40    41   ar
    54    42    44   ar
    55    33    35   am
    56    33    32    1
    57    37    38    2
    58    41    43   ar
    59    26    27    1
    60    26    25    1
    61    31    32    1
    62    31    27   am
    63    44    45   ar
    64    27    28    2
    65    43    45   ar
    66     4     3    2
    67     1     2    1
    68     3     2    1
    69     3     5   am
    70    19    18    1
    71    19    20    1
    72    18    15    1
    73     6     5    1
    74     6     9    1
    75     6     7    1
    76    14    15    1
    77    14     7   am
    78    17    16    2
    79     9    10    1
    80    15    16    1
    81     7     8    2
    82    21    20    1
    83    21    22    2
    84    24    22    1
    85    22    23    1
    86    10    11    1
    87    11    12    1
    88    12    13    1
