@<TRIPOS>MOLECULE
tmp/4q56A01.pdb
 80 77 0 0 0
SMALL
GASTEIGER

@<TRIPOS>ATOM
      1  N         20.1920    2.1000  107.5340 N.3    16  ALA16      -0.1231
      2  CA        21.3440    1.1930  107.3400 C.3    16  ALA16       0.1694
      3  C         20.9750   -0.1490  106.7560 C.2    16  ALA16       0.2592
      4  O         20.0280   -0.7310  107.1900 O.2    16  ALA16      -0.2718
      5  CB        22.0100    0.9580  108.6660 C.3    16  ALA16       0.0304
      6  N         21.7890   -0.6670  105.8430 N.am   17  LYS17      -0.1966
      7  CA        21.7350   -2.0670  105.4250 C.3    17  LYS17       0.1728
      8  C         22.0970   -2.9370  106.6200 C.2    17  LYS17       0.2616
      9  O         23.1090   -2.6420  107.3410 O.2    17  LYS17      -0.2715
     10  CB        22.7630   -2.3760  104.3360 C.3    17  LYS17       0.0311
     11  CG        22.9250   -1.3790  103.2060 C.3    17  LYS17       0.0038
     12  CD        21.8930   -1.5690  102.1170 C.3    17  LYS17       0.0206
     13  CE        22.5470   -1.3840  100.7540 C.3    17  LYS17       0.1093
     14  NZ        23.8520   -2.0800  100.6990 N.3    17  LYS17      -0.1314
     15  N         21.3340   -3.9960  106.8280 N.am   18  VAL18      -0.1964
     16  CA        21.6240   -4.9160  107.8540 C.3    18  VAL18       0.1712
     17  C         21.5500   -6.3290  107.3470 C.2    18  VAL18       0.2458
     18  O         20.8740   -6.6400  106.4230 O.2    18  VAL18      -0.2730
     19  CB        20.7510   -4.7290  109.0550 C.3    18  VAL18       0.0289
     20  CG1       20.9290   -3.3400  109.6090 C.3    18  VAL18       0.0023
     21  CG2       19.3000   -4.9690  108.7260 C.3    18  VAL18       0.0023
     22  N         22.3720   -7.2070  107.9180 N.am   19  PRO19      -0.2727
     23  CA        22.2560   -8.5610  107.4540 C.3    19  PRO19       0.1402
     24  C         20.8600   -9.1320  107.6910 C.2    19  PRO19       0.2269
     25  O         20.2700   -8.9080  108.7510 O.2    19  PRO19      -0.2865
     26  CB        23.3030   -9.3090  108.3030 C.3    19  PRO19       0.0296
     27  CG        24.1060   -8.2900  108.9170 C.3    19  PRO19       0.0237
     28  CD        23.2820   -7.0650  109.0640 C.3    19  PRO19       0.0939
     29  N         17.3040   -0.8620  108.0760 N.3    30  GLU30      -0.1245
     30  CA        16.6330   -0.4060  109.2480 C.3    30  GLU30       0.1567
     31  C         17.1850    0.8700  109.7950 C.2    30  GLU30       0.2260
     32  O         18.3640    1.1980  109.5320 O.2    30  GLU30      -0.2867
     33  CB        16.6150   -1.4690  110.3520 C.3    30  GLU30       0.0388
     34  CG        17.9080   -1.5520  111.1090 C.3    30  GLU30       0.1160
     35  CD        17.8990   -2.6080  112.1750 C.2    30  GLU30       0.3649
     36  OE1       16.9010   -3.2750  112.4270 O.co2  30  GLU30      -0.2457
     37  OE2       18.9670   -2.7900  112.7660 O.co2  30  GLU30      -0.2457
     38  N         17.6610    1.9020  113.3800 N.3    32  ALA32      -0.1231
     39  CA        17.6540    1.4560  114.7580 C.3    32  ALA32       0.1694
     40  C         18.0270    2.6170  115.7140 C.2    32  ALA32       0.2592
     41  O         18.8750    3.4400  115.3770 O.2    32  ALA32      -0.2718
     42  CB        18.6330    0.3460  114.9340 C.3    32  ALA32       0.0304
     43  N         17.3900    2.6610  116.8950 N.am   33  LYS33      -0.1966
     44  CA        17.7250    3.6170  117.9030 C.3    33  LYS33       0.1728
     45  C         17.8060    2.9480  119.2720 C.2    33  LYS33       0.2616
     46  O         17.0080    2.0990  119.6060 O.2    33  LYS33      -0.2715
     47  CB        16.6900    4.7180  117.9490 C.3    33  LYS33       0.0311
     48  CG        16.7650    5.6490  116.7500 C.3    33  LYS33       0.0038
     49  CD        16.0860    6.9670  116.9820 C.3    33  LYS33       0.0206
     50  CE        16.5510    7.9690  115.9330 C.3    33  LYS33       0.1093
     51  NZ        15.5940    9.1020  115.7570 N.3    33  LYS33      -0.1314
     52  N         18.8260    3.3510  120.0270 N.am   34  ASN34      -0.1972
     53  CA        18.8990    3.0370  121.4380 C.3    34  ASN34       0.1688
     54  C         18.2030    4.1850  122.2090 C.2    34  ASN34       0.2292
     55  O         18.6530    5.3190  122.1850 O.2    34  ASN34      -0.2864
     56  CB        20.3710    2.8920  121.8280 C.3    34  ASN34       0.1181
     57  CG        21.0310    1.5800  121.3260 C.2    34  ASN34       0.2629
     58  OD1       20.4120    0.5180  121.3120 O.2    34  ASN34      -0.2716
     59  ND2       22.3020    1.6670  120.9180 N.am   34  ASN34      -0.0877
     60  N         14.3190   -4.9700  119.8250 N.3    69  TYR69      -0.1241
     61  CA        15.5000   -5.8430  119.9180 C.3    69  TYR69       0.1605
     62  C         15.8080   -6.2720  121.3580 C.2    69  TYR69       0.2264
     63  O         16.0880   -7.4460  121.5920 O.2    69  TYR69      -0.2867
     64  CB        16.7340   -5.1400  119.3360 C.3    69  TYR69       0.0534
     65  CG        16.8500   -5.2100  117.8030 C.ar   69  TYR69      -0.0201
     66  CD1       16.4430   -4.1780  117.0070 C.ar   69  TYR69      -0.0009
     67  CD2       17.3120   -6.3450  117.1820 C.ar   69  TYR69      -0.0009
     68  CE1       16.5570   -4.2510  115.6070 C.ar   69  TYR69       0.0417
     69  CE2       17.4410   -6.4250  115.7990 C.ar   69  TYR69       0.0417
     70  CZ        17.0350   -5.3750  115.0120 C.ar   69  TYR69       0.1957
     71  OH        17.1650   -5.4070  113.6310 O.3    69  TYR69      -0.2866
     72  N         16.2540   -0.9560  122.6640 N.3    77  LYS77      -0.1245
     73  CA        16.7010   -0.8210  121.2760 C.3    77  LYS77       0.1561
     74  C         15.5080   -1.2580  120.4040 C.2    77  LYS77       0.2260
     75  O         14.9860   -2.3770  120.5650 O.2    77  LYS77      -0.2867
     76  CB        17.9060   -1.7130  120.9390 C.3    77  LYS77       0.0271
     77  CG        18.3480   -1.5980  119.4700 C.3    77  LYS77       0.0035
     78  CD        19.6560   -2.3300  119.1090 C.3    77  LYS77       0.0206
     79  CE        19.8560   -2.3650  117.6010 C.3    77  LYS77       0.1093
     80  NZ        21.2140   -2.8660  117.2360 N.3    77  LYS77      -0.1314
@<TRIPOS>BOND
     1    14    13    1
     2    13    12    1
     3    12    11    1
     4    11    10    1
     5    10     7    1
     6     7     6    1
     7     7     8    1
     8     6     3   am
     9    18    17    2
    10     8    15   am
    11     8     9    2
    12     3     4    2
    13     3     2    1
    14    15    16    1
    15     2     1    1
    16     2     5    1
    17    17    16    1
    18    17    22   am
    19    23    24    1
    20    23    22    1
    21    23    26    1
    22    24    25    2
    23    16    19    1
    24    22    28    1
    25    29    30    1
    26    26    27    1
    27    21    19    1
    28    27    28    1
    29    19    20    1
    30    30    31    1
    31    30    33    1
    32    32    31    2
    33    33    34    1
    34    34    35    1
    35    35    36   ar
    36    35    37   ar
    37    38    39    1
    38    71    70    1
    39    39    42    1
    40    39    40    1
    41    70    68   ar
    42    70    69   ar
    43    41    40    2
    44    68    66   ar
    45    40    43   am
    46    51    50    1
    47    69    67   ar
    48    50    49    1
    49    48    49    1
    50    48    47    1
    51    43    44    1
    52    66    65   ar
    53    67    65   ar
    54    80    79    1
    55    79    78    1
    56    65    64    1
    57    44    47    1
    58    44    45    1
    59    78    77    1
    60    45    46    2
    61    45    52   am
    62    64    61    1
    63    77    76    1
    64    60    61    1
    65    61    62    1
    66    52    53    1
    67    74    75    2
    68    74    73    1
    69    59    57   am
    70    76    73    1
    71    73    72    1
    72    58    57    2
    73    57    56    1
    74    62    63    2
    75    53    56    1
    76    53    54    1
    77    55    54    2
