@<TRIPOS>MOLECULE
tmp/4q5fA00.pdb
 119 116 0 0 0
SMALL
GASTEIGER

@<TRIPOS>ATOM
      1  N         18.4750    3.5060  -19.7390 N.3     7  TYR7       -0.1227
      2  CA        19.3980    2.8950  -20.6870 C.3     7  TYR7        0.1736
      3  C         20.1020    4.0200  -21.4460 C.2     7  TYR7        0.2595
      4  O         19.8540    5.1940  -21.1770 O.2     7  TYR7       -0.2718
      5  CB        18.6460    1.9590  -21.6420 C.3     7  TYR7        0.0548
      6  CG        19.5440    1.0860  -22.4930 C.ar    7  TYR7       -0.0200
      7  CD1       20.3650    0.1250  -21.9150 C.ar    7  TYR7       -0.0009
      8  CD2       19.5750    1.2280  -23.8740 C.ar    7  TYR7       -0.0009
      9  CE1       21.1910   -0.6700  -22.6890 C.ar    7  TYR7        0.0417
     10  CE2       20.3970    0.4360  -24.6570 C.ar    7  TYR7        0.0417
     11  CZ        21.2020   -0.5100  -24.0590 C.ar    7  TYR7        0.1957
     12  OH        22.0210   -1.2990  -24.8350 O.3     7  TYR7       -0.2866
     13  N         20.9870    3.6730  -22.3740 N.am    8  PHE8       -0.1976
     14  CA        21.6940    4.6740  -23.1660 C.3     8  PHE8        0.1639
     15  C         20.8490    5.1450  -24.3510 C.2     8  PHE8        0.2290
     16  O         19.7350    4.6640  -24.5590 O.2     8  PHE8       -0.2864
     17  CB        23.0340    4.1140  -23.6420 C.3     8  PHE8        0.0560
     18  CG        23.9300    3.6640  -22.5210 C.ar    8  PHE8       -0.0200
     19  CD1       24.4850    4.5860  -21.6500 C.ar    8  PHE8       -0.0042
     20  CD2       24.2140    2.3210  -22.3360 C.ar    8  PHE8       -0.0042
     21  CE1       25.3070    4.1800  -20.6160 C.ar    8  PHE8       -0.0003
     22  CE2       25.0370    1.9080  -21.3030 C.ar    8  PHE8       -0.0003
     23  CZ        25.5840    2.8390  -20.4420 C.ar    8  PHE8       -0.0000
     24  N         21.1110    4.7030  -27.4880 N.3    10  ILE10      -0.1245
     25  CA        20.9300    3.7240  -28.5570 C.3    10  ILE10       0.1561
     26  C         19.8320    2.7120  -28.2410 C.2    10  ILE10       0.2260
     27  O         19.3380    2.6430  -27.1150 O.2    10  ILE10      -0.2867
     28  CB        22.2490    2.9800  -28.8540 C.3    10  ILE10       0.0252
     29  CG1       22.7720    2.2630  -27.6030 C.3    10  ILE10       0.0019
     30  CG2       23.2920    3.9550  -29.3800 C.3    10  ILE10       0.0019
     31  CD1       22.3890    0.8030  -27.5200 C.3    10  ILE10       0.0001
     32  N         19.8980   -3.1560  -25.9760 N.3    13  LEU13      -0.1245
     33  CA        19.1120   -4.0390  -25.1230 C.3    13  LEU13       0.1561
     34  C         17.8760   -3.3430  -24.5640 C.2    13  LEU13       0.2260
     35  O         16.9090   -3.9990  -24.1790 O.2    13  LEU13      -0.2867
     36  CB        19.9710   -4.5540  -23.9660 C.3    13  LEU13       0.0270
     37  CG        21.1230   -5.4900  -24.3330 C.3    13  LEU13       0.0019
     38  CD1       21.9170   -5.8580  -23.0870 C.3    13  LEU13       0.0001
     39  CD2       20.6140   -6.7440  -25.0290 C.3    13  LEU13       0.0001
     40  N         27.2200    8.1850  -16.6350 N.3    38  TRP38      -0.1241
     41  CA        27.3690    6.7530  -16.3830 C.3    38  TRP38       0.1605
     42  C         28.3160    6.4170  -15.2230 C.2    38  TRP38       0.2264
     43  O         28.0330    5.5040  -14.4480 O.2    38  TRP38      -0.2867
     44  CB        27.7950    6.0100  -17.6540 C.3    38  TRP38       0.0550
     45  CG        27.9180    4.5210  -17.4640 C.ar   38  TRP38       0.0003
     46  CD1       28.9490    3.7230  -17.8710 C.ar   38  TRP38       0.0946
     47  CD2       26.9790    3.6560  -16.8090 C.ar   38  TRP38       0.0152
     48  NE1       28.7080    2.4190  -17.5140 N.ar   38  TRP38      -0.2442
     49  CE2       27.5060    2.3510  -16.8610 C.ar   38  TRP38       0.0810
     50  CE3       25.7440    3.8610  -16.1850 C.ar   38  TRP38       0.0012
     51  CZ2       26.8420    1.2540  -16.3140 C.ar   38  TRP38       0.0191
     52  CZ3       25.0870    2.7740  -15.6410 C.ar   38  TRP38       0.0001
     53  CH2       25.6370    1.4860  -15.7080 C.ar   38  TRP38       0.0015
     54  N         26.7970    3.9620  -12.3220 N.3    42  LYS42      -0.1245
     55  CA        27.2550    2.5730  -12.4040 C.3    42  LYS42       0.1561
     56  C         27.3890    1.8530  -11.0570 C.2    42  LYS42       0.2260
     57  O         26.8760    0.7450  -10.8990 O.2    42  LYS42      -0.2867
     58  CB        28.5860    2.5050  -13.1600 C.3    42  LYS42       0.0271
     59  CG        29.1100    1.0960  -13.3960 C.3    42  LYS42       0.0035
     60  CD        30.3980    1.1280  -14.2050 C.3    42  LYS42       0.0206
     61  CE        31.0870   -0.2260  -14.2390 C.3    42  LYS42       0.1093
     62  NZ        30.4890   -1.1490  -15.2410 N.3    42  LYS42      -0.1314
     63  N         26.0840   -3.1630  -12.1570 N.3    48  GLY48      -0.1210
     64  CA        27.0030   -2.2510  -12.8130 C.3    48  GLY48       0.1956
     65  C         26.7020   -2.0370  -14.2860 C.2    48  GLY48       0.2612
     66  O         27.5770   -1.6070  -15.0390 O.2    48  GLY48      -0.2717
     67  N         25.4720   -2.3380  -14.6950 N.am   49  GLN49      -0.1965
     68  CA        25.0930   -2.2550  -16.1030 C.3    49  GLN49       0.1733
     69  C         23.6520   -1.7890  -16.3200 C.2    49  GLN49       0.2616
     70  O         22.8230   -1.8440  -15.4150 O.2    49  GLN49      -0.2715
     71  CB        25.2950   -3.6080  -16.7950 C.3    49  GLN49       0.0408
     72  CG        26.7440   -4.0570  -16.9060 C.3    49  GLN49       0.0908
     73  CD        26.9210   -5.2470  -17.8270 C.2    49  GLN49       0.2608
     74  OE1       26.2770   -6.2820  -17.6570 O.2    49  GLN49      -0.2717
     75  NE2       27.7970   -5.1000  -18.8140 N.am   49  GLN49      -0.0878
     76  N         23.3760   -1.3310  -17.5360 N.am   50  LEU50      -0.1964
     77  CA        22.0300   -0.9850  -17.9740 C.3    50  LEU50       0.1713
     78  C         21.5880   -2.0580  -18.9710 C.2    50  LEU50       0.2458
     79  O         22.4310   -2.7550  -19.5370 O.2    50  LEU50      -0.2730
     80  CB        22.0400    0.4060  -18.6150 C.3    50  LEU50       0.0310
     81  CG        22.5560    1.5300  -17.7090 C.3    50  LEU50       0.0022
     82  CD1       22.5680    2.8570  -18.4490 C.3    50  LEU50       0.0001
     83  CD2       21.7270    1.6430  -16.4350 C.3    50  LEU50       0.0001
     84  N         20.2720   -2.1950  -19.2030 N.am   51  PRO51      -0.2727
     85  CA        19.1850   -1.3370  -18.7290 C.3    51  PRO51       0.1402
     86  C         18.7200   -1.6340  -17.3130 C.2    51  PRO51       0.2269
     87  O         19.0150   -2.6910  -16.7540 O.2    51  PRO51      -0.2865
     88  CB        18.0560   -1.6560  -19.7040 C.3    51  PRO51       0.0296
     89  CG        18.2650   -3.0880  -20.0290 C.3    51  PRO51       0.0237
     90  CD        19.7570   -3.3250  -19.9970 C.3    51  PRO51       0.0939
     91  N         18.7660   -6.5030  -15.6460 N.3    62  GLN62      -0.1231
     92  CA        18.7920   -7.5850  -16.6400 C.3    62  GLN62       0.1698
     93  C         17.6450   -7.4980  -17.6450 C.2    62  GLN62       0.2593
     94  O         16.4790   -7.6880  -17.3000 O.2    62  GLN62      -0.2718
     95  CB        18.8380   -8.9650  -15.9710 C.3    62  GLN62       0.0381
     96  CG        20.1400   -9.2430  -15.2380 C.3    62  GLN62       0.0905
     97  CD        21.2890   -9.5360  -16.1820 C.2    62  GLN62       0.2608
     98  OE1       21.0970   -9.6730  -17.3900 O.2    62  GLN62      -0.2717
     99  NE2       22.4950   -9.6360  -15.6330 N.am   62  GLN62      -0.0878
    100  N         18.0090   -7.2190  -18.8940 N.am   63  SER63      -0.1938
    101  CA        17.0530   -6.9730  -19.9760 C.3    63  SER63       0.2055
    102  C         15.9680   -8.0430  -20.1150 C.2    63  SER63       0.2642
    103  O         14.7840   -7.7210  -20.1950 O.2    63  SER63      -0.2714
    104  CB        17.7980   -6.8320  -21.3070 C.3    63  SER63       0.2130
    105  OG        18.5500   -7.9970  -21.6000 O.3    63  SER63      -0.2179
    106  N         16.3690   -9.3090  -20.1580 N.am   64  ALA64      -0.1977
    107  CA        15.4140  -10.3930  -20.3640 C.3    64  ALA64       0.1597
    108  C         14.4090  -10.4730  -19.2160 C.2    64  ALA64       0.2287
    109  O         13.2280  -10.7350  -19.4350 O.2    64  ALA64      -0.2864
    110  CB        16.1380  -11.7210  -20.5320 C.3    64  ALA64       0.0319
    111  N         18.7550  -15.7660  -27.9430 N.3    95  LYS95      -0.1245
    112  CA        19.9040  -15.2120  -27.2300 C.3    95  LYS95       0.1561
    113  C         21.1760  -15.9940  -27.5450 C.2    95  LYS95       0.2260
    114  O         22.2620  -15.4180  -27.6120 O.2    95  LYS95      -0.2867
    115  CB        19.6530  -15.1770  -25.7180 C.3    95  LYS95       0.0271
    116  CG        18.8940  -13.9370  -25.2500 C.3    95  LYS95       0.0035
    117  CD        18.8370  -13.8200  -23.7260 C.3    95  LYS95       0.0206
    118  CE        20.0830  -13.1550  -23.1530 C.3    95  LYS95       0.1093
    119  NZ        19.8100  -12.5110  -21.8340 N.3    95  LYS95      -0.1314
@<TRIPOS>BOND
     1    30    28    1
     2    28    25    1
     3    28    29    1
     4    25    26    1
     5    25    24    1
     6    26    27    2
     7   111   112    1
     8   114   113    2
     9    29    31    1
    10   113   112    1
    11   112   115    1
    12    32    33    1
    13   115   116    1
    14   116   117    1
    15    33    34    1
    16    33    36    1
    17    39    37    1
    18    12    11    1
    19    10    11   ar
    20    10     8   ar
    21    34    35    2
    22    16    15    2
    23    15    14    1
    24    37    36    1
    25    37    38    1
    26    11     9   ar
    27     8     6   ar
    28   117   118    1
    29    17    14    1
    30    17    18    1
    31    14    13    1
    32   118   119    1
    33     9     7   ar
    34    18    20   ar
    35    18    19   ar
    36     6     7   ar
    37     6     5    1
    38    13     3   am
    39    20    22   ar
    40    19    21   ar
    41     5     2    1
    42   105   104    1
    43     3     4    2
    44     3     2    1
    45   104   101    1
    46    22    23   ar
    47     2     1    1
    48    21    23   ar
    49   110   107    1
    50   107   106    1
    51   107   108    1
    52   103   102    2
    53   106   102   am
    54   102   101    1
    55    89    90    1
    56    89    88    1
    57    90    84    1
    58   101   100    1
    59    88    85    1
    60    79    78    2
    61   109   108    2
    62    84    78   am
    63    84    85    1
    64    78    77    1
    65   100    93   am
    66    75    73   am
    67    85    86    1
    68    80    77    1
    69    80    81    1
    70    82    81    1
    71    77    76    1
    72    46    48   ar
    73    46    45   ar
    74    73    74    2
    75    73    72    1
    76    81    83    1
    77    44    45    1
    78    44    41    1
    79    93    94    2
    80    93    92    1
    81    76    69   am
    82    48    49   ar
    83    45    47   ar
    84    98    97    2
    85    86    87    2
    86    72    71    1
    87    49    47   ar
    88    49    51   ar
    89    47    50   ar
    90    71    68    1
    91    92    95    1
    92    92    91    1
    93    40    41    1
    94    41    42    1
    95    69    68    1
    96    69    70    2
    97    51    53   ar
    98    50    52   ar
    99    97    99   am
   100    97    96    1
   101    68    67    1
   102    95    96    1
   103    53    52   ar
   104    62    61    1
   105    42    43    2
   106    66    65    2
   107    67    65   am
   108    65    64    1
   109    61    60    1
   110    60    59    1
   111    59    58    1
   112    58    55    1
   113    64    63    1
   114    55    54    1
   115    55    56    1
   116    56    57    2
