@<TRIPOS>MOLECULE
tmp/4q5kA00.pdb
 196 192 0 0 0
SMALL
GASTEIGER

@<TRIPOS>ATOM
      1  N        -19.7320    5.2810  -25.0710 N.3    15  TYR15      -0.1241
      2  CA       -19.7510    4.2170  -24.0850 C.3    15  TYR15       0.1605
      3  C        -18.5820    3.2700  -24.3490 C.2    15  TYR15       0.2264
      4  O        -18.4470    2.7640  -25.4570 O.2    15  TYR15      -0.2867
      5  CB       -21.0670    3.4280  -24.1800 C.3    15  TYR15       0.0534
      6  CG       -21.2090    2.3910  -23.0820 C.ar   15  TYR15      -0.0201
      7  CD1      -20.5110    1.1930  -23.1500 C.ar   15  TYR15      -0.0009
      8  CD2      -22.0100    2.6150  -21.9700 C.ar   15  TYR15      -0.0009
      9  CE1      -20.6060    0.2390  -22.1580 C.ar   15  TYR15       0.0417
     10  CE2      -22.1140    1.6590  -20.9630 C.ar   15  TYR15       0.0417
     11  CZ       -21.3980    0.4750  -21.0710 C.ar   15  TYR15       0.1957
     12  OH       -21.4580   -0.4930  -20.0980 O.3    15  TYR15      -0.2866
     13  N        -15.0190   -1.0640  -19.0510 N.3    18  HIS18      -0.1226
     14  CA       -13.7420   -1.4110  -18.4220 C.3    18  HIS18       0.1752
     15  C        -12.7090   -0.2830  -18.4700 C.2    18  HIS18       0.2597
     16  O        -11.5060   -0.5460  -18.3630 O.2    18  HIS18      -0.2718
     17  CB       -13.1760   -2.7090  -19.0150 C.3    18  HIS18       0.0759
     18  CG       -14.1420   -3.8340  -18.9840 C.ar   18  HIS18       0.0818
     19  ND1      -14.7990   -4.2160  -17.8370 N.ar   18  HIS18      -0.2268
     20  CD2      -14.5560   -4.6810  -19.9580 C.ar   18  HIS18       0.1154
     21  CE1      -15.5840   -5.2470  -18.1060 C.ar   18  HIS18       0.1986
     22  NE2      -15.4670   -5.5360  -19.3880 N.ar   18  HIS18      -0.2212
     23  N        -13.1570    0.9740  -18.5210 N.am   19  THR19      -0.1939
     24  CA       -12.1970    2.0880  -18.6140 C.3    19  THR19       0.2028
     25  C        -11.3000    2.2760  -17.3770 C.2    19  THR19       0.2642
     26  O        -10.2720    2.9590  -17.4600 O.2    19  THR19      -0.2714
     27  CB       -12.8730    3.4490  -18.9190 C.3    19  THR19       0.1808
     28  OG1      -13.8420    3.7260  -17.8950 O.3    19  THR19      -0.2208
     29  CG2      -13.5090    3.4490  -20.3210 C.3    19  THR19       0.0379
     30  N        -11.6870    1.6870  -16.2400 N.am   20  LEU20      -0.1963
     31  CA       -10.9000    1.7920  -15.0110 C.3    20  LEU20       0.1728
     32  C         -9.9380    0.6320  -14.8100 C.2    20  LEU20       0.2616
     33  O         -9.2120    0.6190  -13.8120 O.2    20  LEU20      -0.2715
     34  CB       -11.8230    1.9040  -13.8150 C.3    20  LEU20       0.0311
     35  CG       -12.9090    2.9800  -13.8910 C.3    20  LEU20       0.0022
     36  CD1      -13.5930    3.1230  -12.5660 C.3    20  LEU20       0.0001
     37  CD2      -12.3480    4.3100  -14.3330 C.3    20  LEU20       0.0001
     38  N         -9.8820   -0.3090  -15.7530 N.am   21  GLU21      -0.1977
     39  CA        -9.2170   -1.5870  -15.4950 C.3    21  GLU21       0.1602
     40  C         -7.8410   -1.7670  -16.1140 C.2    21  GLU21       0.2287
     41  O         -7.4730   -2.8970  -16.4770 O.2    21  GLU21      -0.2864
     42  CB       -10.0960   -2.7480  -15.9540 C.3    21  GLU21       0.0415
     43  CG       -11.5540   -2.6570  -15.5740 C.3    21  GLU21       0.1163
     44  CD       -11.8520   -2.3920  -14.1030 C.2    21  GLU21       0.3649
     45  OE1      -10.9480   -2.4570  -13.2520 O.co2  21  GLU21      -0.2457
     46  OE2      -13.0270   -2.0870  -13.7870 O.co2  21  GLU21      -0.2457
     47  N        -18.8210    4.5470  -18.7970 N.3    36  ASP36      -0.1225
     48  CA       -19.9270    3.6210  -18.6220 C.3    36  ASP36       0.1805
     49  C        -20.9490    4.2390  -17.6870 C.2    36  ASP36       0.2598
     50  O        -20.8040    5.3950  -17.2790 O.2    36  ASP36      -0.2718
     51  CB       -19.4470    2.2150  -18.2110 C.3    36  ASP36       0.1424
     52  CG       -18.8090    2.1620  -16.8470 C.2    36  ASP36       0.3668
     53  OD1      -19.2500    2.9030  -15.9420 O.co2  36  ASP36      -0.2456
     54  OD2      -17.8820    1.3390  -16.6870 O.co2  36  ASP36      -0.2456
     55  N        -22.0070    3.5130  -17.3380 N.am   37  CYS37      -0.1956
     56  CA       -23.0990    4.1680  -16.6120 C.3    37  CYS37       0.1843
     57  C        -22.6490    4.6810  -15.2460 C.2    37  CYS37       0.2626
     58  O        -23.1520    5.7020  -14.7730 O.2    37  CYS37      -0.2714
     59  CB       -24.3120    3.2460  -16.4460 C.3    37  CYS37       0.0997
     60  SG       -24.0140    1.8090  -15.4450 S.3    37  CYS37      -0.0797
     61  N        -21.7020    3.9730  -14.6280 N.am   38  THR38      -0.1936
     62  CA       -21.2070    4.3400  -13.3220 C.3    38  THR38       0.2028
     63  C        -20.1690    5.4490  -13.3950 C.2    38  THR38       0.2642
     64  O        -20.2570    6.4270  -12.6630 O.2    38  THR38      -0.2714
     65  CB       -20.6750    3.1080  -12.5670 C.3    38  THR38       0.1808
     66  OG1      -21.7450    2.1570  -12.4350 O.3    38  THR38      -0.2208
     67  CG2      -20.1160    3.4640  -11.2230 C.3    38  THR38       0.0379
     68  N        -19.1950    5.3320  -14.2830 N.am   39  THR39      -0.1950
     69  CA       -18.1970    6.3750  -14.3340 C.3    39  THR39       0.1897
     70  C        -18.8060    7.7100  -14.7700 C.2    39  THR39       0.2313
     71  O        -18.4110    8.7610  -14.2760 O.2    39  THR39      -0.2863
     72  CB       -16.9500    6.0220  -15.1930 C.3    39  THR39       0.1794
     73  OG1      -17.2860    6.0010  -16.5830 O.3    39  THR39      -0.2208
     74  CG2      -16.3220    4.6970  -14.7780 C.3    39  THR39       0.0378
     75  N        -20.1810    9.2360  -11.6440 N.3    42  GLU42      -0.1245
     76  CA       -19.0610    9.6770  -10.8010 C.3    42  GLU42       0.1567
     77  C        -18.4430   10.9860  -11.2970 C.2    42  GLU42       0.2260
     78  O        -18.1960   11.8990  -10.4950 O.2    42  GLU42      -0.2867
     79  CB       -17.9880    8.6010  -10.7030 C.3    42  GLU42       0.0388
     80  CG       -18.4520    7.3660   -9.9700 C.3    42  GLU42       0.1160
     81  CD       -17.3440    6.3830   -9.6960 C.2    42  GLU42       0.3649
     82  OE1      -16.4970    6.1750  -10.5960 O.co2  42  GLU42      -0.2457
     83  OE2      -17.3460    5.8390   -8.5760 O.co2  42  GLU42      -0.2457
     84  N         -7.2900   -2.8500   -5.6910 N.3    80  TYR80      -0.1241
     85  CA        -8.5300   -2.9880   -6.4370 C.3    80  TYR80       0.1605
     86  C         -9.7690   -2.9900   -5.5410 C.2    80  TYR80       0.2264
     87  O        -10.7920   -2.4090   -5.9020 O.2    80  TYR80      -0.2867
     88  CB        -8.4700   -4.2800   -7.2280 C.3    80  TYR80       0.0534
     89  CG        -9.7010   -4.6180   -8.0160 C.ar   80  TYR80      -0.0201
     90  CD1      -10.0460   -3.8810   -9.1480 C.ar   80  TYR80      -0.0009
     91  CD2      -10.4960   -5.6970   -7.6670 C.ar   80  TYR80      -0.0009
     92  CE1      -11.1550   -4.2090   -9.9150 C.ar   80  TYR80       0.0417
     93  CE2      -11.6210   -6.0030   -8.3960 C.ar   80  TYR80       0.0417
     94  CZ       -11.9570   -5.2780   -9.5130 C.ar   80  TYR80       0.1957
     95  OH       -13.0650   -5.6400  -10.2240 O.3    80  TYR80      -0.2866
     96  N        -11.8580    0.1900   -4.3210 N.3    83  ARG83      -0.1245
     97  CA       -12.8400    0.8460   -5.1900 C.3    83  ARG83       0.1563
     98  C        -14.2350    0.3770   -4.7700 C.2    83  ARG83       0.2260
     99  O        -14.4180   -0.8020   -4.4460 O.2    83  ARG83      -0.2867
    100  CB       -12.5880    0.4880   -6.6770 C.3    83  ARG83       0.0307
    101  CG       -13.1170    1.5030   -7.6520 C.3    83  ARG83       0.0489
    102  CD       -13.2190    0.9960   -9.0330 C.3    83  ARG83       0.2205
    103  NE       -11.9380    0.5340   -9.5490 N.pl3  83  ARG83      -0.0865
    104  CZ       -11.8120   -0.2590  -10.6170 C.cat  83  ARG83       0.5346
    105  NH1      -12.8830   -0.6700  -11.2960 N.pl3  83  ARG83       0.1354
    106  NH2      -10.6150   -0.6740  -11.0150 N.pl3  83  ARG83       0.1354
    107  N        -17.0150   -0.9690   -5.7230 N.3    85  HIS85      -0.1226
    108  CA       -17.5710   -1.7260   -6.8380 C.3    85  HIS85       0.1752
    109  C        -19.0680   -1.9080   -6.7880 C.2    85  HIS85       0.2596
    110  O        -19.7430   -1.8450   -7.8100 O.2    85  HIS85      -0.2718
    111  CB       -16.9000   -3.1070   -6.9090 C.3    85  HIS85       0.0759
    112  CG       -15.4370   -3.0390   -7.1620 C.ar   85  HIS85       0.0818
    113  ND1      -14.9260   -2.5950   -8.3600 N.ar   85  HIS85      -0.2268
    114  CD2      -14.3770   -3.3340   -6.3800 C.ar   85  HIS85       0.1154
    115  CE1      -13.6120   -2.6090   -8.2980 C.ar   85  HIS85       0.1986
    116  NE2      -13.2530   -3.0670   -7.1150 N.ar   85  HIS85      -0.2212
    117  N        -19.5850   -2.2150   -5.6030 N.am   86  TYR86      -0.1962
    118  CA       -21.0250   -2.4250   -5.4490 C.3    86  TYR86       0.1771
    119  C        -21.7160   -1.1060   -5.1350 C.2    86  TYR86       0.2619
    120  O        -21.3070   -0.3630   -4.2580 O.2    86  TYR86      -0.2715
    121  CB       -21.2940   -3.4180   -4.3570 C.3    86  TYR86       0.0574
    122  CG       -20.9300   -4.8260   -4.7240 C.ar   86  TYR86      -0.0198
    123  CD1      -21.6640   -5.5290   -5.6760 C.ar   86  TYR86      -0.0009
    124  CD2      -19.8670   -5.4740   -4.0970 C.ar   86  TYR86      -0.0009
    125  CE1      -21.3650   -6.8420   -5.9920 C.ar   86  TYR86       0.0417
    126  CE2      -19.5700   -6.7940   -4.4260 C.ar   86  TYR86       0.0417
    127  CZ       -20.3050   -7.4810   -5.3560 C.ar   86  TYR86       0.1957
    128  OH       -20.0800   -8.8150   -5.6650 O.3    86  TYR86      -0.2866
    129  N        -22.8090   -0.8210   -5.8360 N.am   87  ILE87      -0.1977
    130  CA       -23.4830    0.4720   -5.6820 C.3    87  ILE87       0.1596
    131  C        -24.0660    0.6290   -4.2750 C.2    87  ILE87       0.2287
    132  O        -24.0320    1.7290   -3.7420 O.2    87  ILE87      -0.2864
    133  CB       -24.5020    0.7020   -6.8090 C.3    87  ILE87       0.0276
    134  CG1      -23.7700    0.7080   -8.1600 C.3    87  ILE87       0.0022
    135  CG2      -25.2490    1.9610   -6.6060 C.3    87  ILE87       0.0022
    136  CD1      -22.5400    1.6040   -8.2850 C.3    87  ILE87       0.0001
    137  N        -22.0750  -11.3650   -6.4340 N.3   117  TYR117     -0.1241
    138  CA       -21.8480  -11.5510   -7.8700 C.3   117  TYR117      0.1605
    139  C        -20.3800  -11.6310   -8.2450 C.2   117  TYR117      0.2264
    140  O        -19.9910  -12.5150   -9.0070 O.2   117  TYR117     -0.2867
    141  CB       -22.5230  -10.4110   -8.6620 C.3   117  TYR117      0.0534
    142  CG       -22.5390  -10.5930  -10.1600 C.ar  117  TYR117     -0.0201
    143  CD1      -23.5510  -11.2910  -10.7910 C.ar  117  TYR117     -0.0009
    144  CD2      -21.5160  -10.0770  -10.9410 C.ar  117  TYR117     -0.0009
    145  CE1      -23.5410  -11.4630  -12.1690 C.ar  117  TYR117      0.0417
    146  CE2      -21.5110  -10.2400  -12.3120 C.ar  117  TYR117      0.0417
    147  CZ       -22.5290  -10.9200  -12.9190 C.ar  117  TYR117      0.1957
    148  OH       -22.5280  -11.0700  -14.2780 O.3   117  TYR117     -0.2866
    149  N        -13.8780  -10.2150  -14.1300 N.3   124  TYR124     -0.1241
    150  CA       -13.1490   -9.0770  -13.6010 C.3   124  TYR124      0.1605
    151  C        -11.6540   -9.3660  -13.6620 C.2   124  TYR124      0.2264
    152  O        -11.1700  -10.3060  -13.0220 O.2   124  TYR124     -0.2867
    153  CB       -13.5820   -8.7980  -12.1460 C.3   124  TYR124      0.0534
    154  CG       -15.0580   -8.4810  -12.0240 C.ar  124  TYR124     -0.0201
    155  CD1      -15.5050   -7.1850  -12.1310 C.ar  124  TYR124     -0.0009
    156  CD2      -15.9990   -9.4910  -11.8190 C.ar  124  TYR124     -0.0009
    157  CE1      -16.8400   -6.8880  -12.0440 C.ar  124  TYR124      0.0417
    158  CE2      -17.3420   -9.2080  -11.7610 C.ar  124  TYR124      0.0417
    159  CZ       -17.7590   -7.8870  -11.8510 C.ar  124  TYR124      0.1957
    160  OH       -19.1110   -7.6240  -11.7610 O.3   124  TYR124     -0.2866
    161  N        -26.6110   -9.6440   -7.0690 N.3   179  LEU179     -0.1245
    162  CA       -26.3410   -8.2810   -7.5020 C.3   179  LEU179      0.1561
    163  C        -27.4560   -7.3540   -7.0600 C.2   179  LEU179      0.2260
    164  O        -28.6490   -7.7000   -7.1650 O.2   179  LEU179     -0.2867
    165  CB       -26.1780   -8.2280   -9.0190 C.3   179  LEU179      0.0270
    166  CG       -25.7640   -6.8950   -9.6350 C.3   179  LEU179      0.0019
    167  CD1      -24.3780   -6.4870   -9.1650 C.3   179  LEU179      0.0001
    168  CD2      -25.8040   -6.9940  -11.1650 C.3   179  LEU179      0.0001
    169  N        -27.6230   -3.7270   -7.9210 N.3   181  VAL181     -0.1231
    170  CA       -27.9040   -2.6800   -8.8890 C.3   181  VAL181      0.1692
    171  C        -27.3020   -3.0920  -10.2120 C.2   181  VAL181      0.2592
    172  O        -26.1900   -3.6410  -10.2090 O.2   181  VAL181     -0.2718
    173  CB       -27.3330   -1.3150   -8.4050 C.3   181  VAL181      0.0266
    174  CG1      -27.2690   -0.2670   -9.5070 C.3   181  VAL181      0.0020
    175  CG2      -28.1170   -0.8120   -7.2390 C.3   181  VAL181      0.0020
    176  N        -28.0050   -2.8370  -11.3210 N.am  182  ALA182     -0.1966
    177  CA       -27.5700   -3.1980  -12.6670 C.3   182  ALA182      0.1728
    178  C        -27.2480   -2.0410  -13.6000 C.2   182  ALA182      0.2616
    179  O        -26.5980   -2.2500  -14.6180 O.2   182  ALA182     -0.2715
    180  CB       -28.6450   -4.0480  -13.3210 C.3   182  ALA182      0.0334
    181  N        -27.6980   -0.8310  -13.2720 N.am  183  HIS183     -0.1973
    182  CA       -27.5710    0.2910  -14.1750 C.3   183  HIS183      0.1656
    183  C        -27.8230    1.5590  -13.3620 C.2   183  HIS183      0.2291
    184  O        -28.4480    1.5170  -12.3170 O.2   183  HIS183     -0.2864
    185  CB       -28.5720    0.1430  -15.3350 C.3   183  HIS183      0.0771
    186  CG       -28.3810    1.1400  -16.4400 C.ar  183  HIS183      0.0820
    187  ND1      -27.1350    1.5400  -16.8650 N.ar  183  HIS183     -0.2267
    188  CD2      -29.2690    1.8320  -17.1880 C.ar  183  HIS183      0.1154
    189  CE1      -27.2640    2.4130  -17.8460 C.ar  183  HIS183      0.1986
    190  NE2      -28.5480    2.6040  -18.0590 N.ar  183  HIS183     -0.2212
    191  N        -25.0830    1.1990  -23.1640 N.3   200  SER200     -0.1217
    192  CA       -24.2610    0.2120  -23.8280 C.3   200  SER200      0.1889
    193  C        -24.8690   -0.1590  -25.1830 C.2   200  SER200      0.2288
    194  O        -24.1450   -0.4810  -26.1220 O.2   200  SER200     -0.2866
    195  CB       -24.0840   -1.0300  -22.9540 C.3   200  SER200      0.2089
    196  OG       -25.3150   -1.6920  -22.7470 O.3   200  SER200     -0.2183
@<TRIPOS>BOND
     1   194   193    2
     2     4     3    2
     3   193   192    1
     4     1     2    1
     5     3     2    1
     6     5     2    1
     7     5     6    1
     8   192   191    1
     9   192   195    1
    10     7     6   ar
    11     7     9   ar
    12     6     8   ar
    13   195   196    1
    14     9    11   ar
    15     8    10   ar
    16    11    10   ar
    17    11    12    1
    18    29    27    1
    19    20    22   ar
    20    20    18   ar
    21    22    21   ar
    22    13    14    1
    23    17    18    1
    24    17    14    1
    25    18    19   ar
    26    27    24    1
    27    27    28    1
    28    47    48    1
    29    48    51    1
    30    48    49    1
    31    24    23    1
    32    24    25    1
    33    23    15   am
    34    15    14    1
    35    15    16    2
    36    51    52    1
    37    21    19   ar
    38   190   189   ar
    39   190   188   ar
    40   189   187   ar
    41    49    55   am
    42    49    50    2
    43    26    25    2
    44    25    30   am
    45    55    56    1
    46   188   186   ar
    47   187   186   ar
    48    52    54   ar
    49    52    53   ar
    50    56    59    1
    51    56    57    1
    52    73    72    1
    53    41    40    2
    54    59    60    1
    55   186   185    1
    56    30    31    1
    57    40    39    1
    58    42    43    1
    59    42    39    1
    60    38    39    1
    61    38    32   am
    62    43    44    1
    63   185   182    1
    64    57    58    2
    65    57    61   am
    66    72    74    1
    67    72    69    1
    68    31    32    1
    69    31    34    1
    70    32    33    2
    71    70    69    1
    72    70    71    2
    73    61    62    1
    74   179   178    2
    75    69    68    1
    76    37    35    1
    77    68    63   am
    78   148   147    1
    79   182   183    1
    80   182   181    1
    81   149   150    1
    82    44    46   ar
    83    44    45   ar
    84    35    34    1
    85    35    36    1
    86   151   150    1
    87   151   152    2
    88   150   153    1
    89   178   181   am
    90   178   177    1
    91    63    62    1
    92    63    64    2
    93   183   184    2
    94    62    65    1
    95   180   177    1
    96   147   146   ar
    97   147   145   ar
    98   177   176    1
    99    65    66    1
   100    65    67    1
   101   146   144   ar
   102   145   143   ar
   103   153   154    1
   104   155   157   ar
   105   155   154   ar
   106   157   159   ar
   107   154   156   ar
   108   159   158   ar
   109   159   160    1
   110   156   158   ar
   111    75    76    1
   112   176   171   am
   113    77    76    1
   114    77    78    2
   115   105   104    1
   116   168   166    1
   117   106   104    1
   118   144   142   ar
   119    76    79    1
   120   143   142   ar
   121    79    80    1
   122   104   103    2
   123    82    81   ar
   124    95    94    1
   125   171   172    2
   126   171   170    1
   127   142   141    1
   128    80    81    1
   129    92    94   ar
   130    92    90   ar
   131    81    83   ar
   132   166   167    1
   133   166   165    1
   134   103   102    1
   135    94    93   ar
   136   174   173    1
   137    90    89   ar
   138   102   101    1
   139   165   162    1
   140   140   139    2
   141   170   173    1
   142   170   169    1
   143   141   138    1
   144   173   175    1
   145    93    91   ar
   146   113   115   ar
   147   113   112   ar
   148   115   116   ar
   149   136   134    1
   150   139   138    1
   151   134   133    1
   152    89    91   ar
   153    89    88    1
   154   138   137    1
   155   110   109    2
   156   101   100    1
   157   162   161    1
   158   162   163    1
   159    88    85    1
   160   164   163    2
   161   112   111    1
   162   112   114   ar
   163   116   114   ar
   164   111   108    1
   165   108   109    1
   166   108   107    1
   167   133   135    1
   168   133   130    1
   169   109   117   am
   170   100    97    1
   171    85    84    1
   172    85    86    1
   173   125   123   ar
   174   125   127   ar
   175    87    86    2
   176   129   130    1
   177   129   119   am
   178   130   131    1
   179   123   122   ar
   180   128   127    1
   181   117   118    1
   182   118   119    1
   183   118   121    1
   184   127   126   ar
   185    97    98    1
   186    97    96    1
   187   119   120    2
   188    98    99    2
   189   122   121    1
   190   122   124   ar
   191   126   124   ar
   192   131   132    2
