@<TRIPOS>MOLECULE
tmp/4q5oB00.pdb
 104 98 0 0 0
SMALL
GASTEIGER

@<TRIPOS>ATOM
      1  N          4.8440   10.2600  -25.0190 N.3   128  ARG128     -0.1245
      2  CA         4.0810   11.1970  -24.1840 C.3   128  ARG128      0.1563
      3  C          3.2250   10.4940  -23.1310 C.2   128  ARG128      0.2260
      4  O          2.7580    9.3730  -23.3350 O.2   128  ARG128     -0.2867
      5  CB         3.1920   12.1350  -25.0180 C.3   128  ARG128      0.0307
      6  CG         2.9940   11.7500  -26.4760 C.3   128  ARG128      0.0489
      7  CD         1.5540   11.9240  -26.9270 C.3   128  ARG128      0.2205
      8  NE         0.9900   13.2050  -26.5100 N.pl3 128  ARG128     -0.0865
      9  CZ         0.7540   14.2240  -27.3330 C.cat 128  ARG128      0.5346
     10  NH1        1.0420   14.1060  -28.6250 N.pl3 128  ARG128      0.1354
     11  NH2        0.2240   15.3540  -26.8650 N.pl3 128  ARG128      0.1354
     12  N         -0.0910   11.2260  -21.7490 N.3   130  ASN130     -0.1240
     13  CA        -1.3050   12.0160  -21.8340 C.3   130  ASN130      0.1653
     14  C         -2.1820   11.7910  -20.5980 C.2   130  ASN130      0.2266
     15  O         -3.1760   11.0590  -20.6550 O.2   130  ASN130     -0.2867
     16  CB        -2.0840   11.6980  -23.1260 C.3   130  ASN130      0.1155
     17  CG        -1.5430   12.4430  -24.3490 C.2   130  ASN130      0.2627
     18  OD1       -0.7730   13.3910  -24.2220 O.2   130  ASN130     -0.2716
     19  ND2       -1.9640   12.0180  -25.5410 N.am  130  ASN130     -0.0877
     20  N         -9.2880   15.7110  -27.4290 N.3   140  PHE140     -0.1241
     21  CA        -8.3740   15.7940  -28.5640 C.3   140  PHE140      0.1605
     22  C         -9.1640   15.5750  -29.8370 C.2   140  PHE140      0.2264
     23  O         -9.3880   14.4260  -30.2050 O.2   140  PHE140     -0.2867
     24  CB        -7.3140   14.6810  -28.5240 C.3   140  PHE140      0.0534
     25  CG        -6.3660   14.7750  -27.3740 C.ar  140  PHE140     -0.0203
     26  CD1       -5.1180   15.3370  -27.5430 C.ar  140  PHE140     -0.0042
     27  CD2       -6.7170   14.2900  -26.1210 C.ar  140  PHE140     -0.0042
     28  CE1       -4.2280   15.4230  -26.4830 C.ar  140  PHE140     -0.0003
     29  CE2       -5.8290   14.3780  -25.0540 C.ar  140  PHE140     -0.0003
     30  CZ        -4.5830   14.9460  -25.2400 C.ar  140  PHE140     -0.0000
     31  N         -7.7230   13.6670  -35.6890 N.3   143  HIS143     -0.1241
     32  CA        -6.5360   13.9360  -36.4810 C.3   143  HIS143      0.1621
     33  C         -5.8890   12.6230  -36.8590 C.2   143  HIS143      0.2264
     34  O         -6.0210   11.6200  -36.1560 O.2   143  HIS143     -0.2867
     35  CB        -5.5380   14.7710  -35.6840 C.3   143  HIS143      0.0745
     36  CG        -5.0060   14.0720  -34.4720 C.ar  143  HIS143      0.0817
     37  ND1       -5.7050   13.9920  -33.2830 N.ar  143  HIS143     -0.2268
     38  CD2       -3.8410   13.4140  -34.2670 C.ar  143  HIS143      0.1154
     39  CE1       -4.9920   13.3110  -32.4010 C.ar  143  HIS143      0.1986
     40  NE2       -3.8540   12.9490  -32.9730 N.ar  143  HIS143     -0.2212
     41  N         -2.3710   11.2600  -36.8590 N.3   145  ASP145     -0.1239
     42  CA        -1.0100   11.5480  -36.3870 C.3   145  ASP145      0.1674
     43  C         -0.0080   11.7400  -37.5450 C.2   145  ASP145      0.2266
     44  O          0.6870   12.7660  -37.6090 O.2   145  ASP145     -0.2867
     45  CB        -0.5370   10.5200  -35.3300 C.3   145  ASP145      0.1410
     46  CG        -1.3210   10.6380  -33.9990 C.2   145  ASP145      0.3668
     47  OD1       -2.3300   11.4350  -33.9320 O.co2 145  ASP145     -0.2456
     48  OD2       -0.9400    9.9450  -33.0110 O.co2 145  ASP145     -0.2456
     49  N          1.6330    3.8650  -33.1710 N.3   162  SER162     -0.1217
     50  CA         1.5490    4.2900  -31.7930 C.3   162  SER162      0.1889
     51  C          1.1280    3.1200  -30.9170 C.2   162  SER162      0.2288
     52  O          0.3660    2.2490  -31.3350 O.2   162  SER162     -0.2866
     53  CB         0.5430    5.4240  -31.6430 C.3   162  SER162      0.2089
     54  OG         1.0770    6.6240  -32.1590 O.3   162  SER162     -0.2183
     55  N         -9.7140    7.0520  -25.8340 N.3   177  LEU177     -0.1245
     56  CA        -9.4140    7.1300  -27.2560 C.3   177  LEU177      0.1561
     57  C        -10.5370    6.5410  -28.1600 C.2   177  LEU177      0.2260
     58  O        -10.9040    5.3650  -28.0340 O.2   177  LEU177     -0.2867
     59  CB        -8.1230    6.3820  -27.5270 C.3   177  LEU177      0.0270
     60  CG        -7.5500    6.6300  -28.9160 C.3   177  LEU177      0.0019
     61  CD1       -7.1310    8.0930  -29.0210 C.3   177  LEU177      0.0001
     62  CD2       -6.3800    5.6700  -29.2370 C.3   177  LEU177      0.0001
     63  N         -8.2350    9.3790  -35.3390 N.3   226  HIS226     -0.1226
     64  CA        -8.6270    9.1730  -33.9420 C.3   226  HIS226      0.1752
     65  C         -8.7120   10.4810  -33.2040 C.2   226  HIS226      0.2597
     66  O         -8.2170   11.4980  -33.6750 O.2   226  HIS226     -0.2718
     67  CB        -7.6330    8.2930  -33.2070 C.3   226  HIS226      0.0759
     68  CG        -6.2510    8.8570  -33.1900 C.ar  226  HIS226      0.0818
     69  ND1       -5.4530    8.8760  -34.3090 N.ar  226  HIS226     -0.2268
     70  CD2       -5.5290    9.4450  -32.2050 C.ar  226  HIS226      0.1154
     71  CE1       -4.2940    9.4320  -34.0120 C.ar  226  HIS226      0.1986
     72  NE2       -4.3140    9.7890  -32.7420 N.ar  226  HIS226     -0.2212
     73  N         -9.3340   10.4270  -32.0280 N.am  227  GLY227     -0.1942
     74  CA        -9.5190   11.5730  -31.1570 C.3   227  GLY227      0.2014
     75  C        -10.1030   11.1200  -29.8290 C.2   227  GLY227      0.2639
     76  O        -10.2300    9.9060  -29.5970 O.2   227  GLY227     -0.2714
     77  N        -10.4500   12.0680  -28.9540 N.am  228  SER228     -0.1949
     78  CA       -11.1590   11.7380  -27.7140 C.3   228  SER228      0.1924
     79  C        -11.9960   12.9260  -27.2090 C.2   228  SER228      0.2314
     80  O        -11.6720   14.0680  -27.5110 O.2   228  SER228     -0.2863
     81  CB       -10.1790   11.2650  -26.6380 C.3   228  SER228      0.2116
     82  OG        -9.3510   12.3350  -26.2070 O.3   228  SER228     -0.2180
     83  N         -7.5700    9.9020  -16.5940 N.3   237  ARG237     -0.1245
     84  CA        -7.2470    8.8550  -17.5580 C.3   237  ARG237      0.1563
     85  C         -5.7990    8.9580  -18.0550 C.2   237  ARG237      0.2260
     86  O         -5.5510    9.4910  -19.1310 O.2   237  ARG237     -0.2867
     87  CB        -8.2270    8.9330  -18.7370 C.3   237  ARG237      0.0307
     88  CG        -8.0440    7.8760  -19.8230 C.3   237  ARG237      0.0489
     89  CD        -8.8760    8.2560  -21.0340 C.3   237  ARG237      0.2205
     90  NE        -8.1390    8.4860  -22.2920 N.pl3 237  ARG237     -0.0865
     91  CZ        -7.1920    9.4030  -22.4850 C.cat 237  ARG237      0.5346
     92  NH1       -6.7940   10.1830  -21.4980 N.pl3 237  ARG237      0.1354
     93  NH2       -6.6250    9.5200  -23.6710 N.pl3 237  ARG237      0.1354
     94  N          2.0220    7.1390  -24.2690 N.3   241  PHE241     -0.1241
     95  CA         2.0720    6.9170  -25.7310 C.3   241  PHE241      0.1605
     96  C          3.4890    6.7170  -26.2520 C.2   241  PHE241      0.2264
     97  O          4.3810    7.5150  -25.9660 O.2   241  PHE241     -0.2867
     98  CB         1.4320    8.0670  -26.5160 C.3   241  PHE241      0.0534
     99  CG        -0.0640    7.9940  -26.5970 C.ar  241  PHE241     -0.0203
    100  CD1       -0.8540    8.2680  -25.4800 C.ar  241  PHE241     -0.0042
    101  CD2       -0.6910    7.6750  -27.7920 C.ar  241  PHE241     -0.0042
    102  CE1       -2.2490    8.2130  -25.5600 C.ar  241  PHE241     -0.0003
    103  CE2       -2.0840    7.6200  -27.8730 C.ar  241  PHE241     -0.0003
    104  CZ        -2.8570    7.8900  -26.7580 C.ar  241  PHE241     -0.0000
@<TRIPOS>BOND
     1    44    43    2
     2    43    42    1
     3    41    42    1
     4    33    32    1
     5    33    34    2
     6    32    31    1
     7    32    35    1
     8    42    45    1
     9    35    36    1
    10    63    64    1
    11    45    46    1
    12    36    38   ar
    13    36    37   ar
    14    69    71   ar
    15    69    68   ar
    16    38    40   ar
    17    71    72   ar
    18    46    47   ar
    19    46    48   ar
    20    64    67    1
    21    64    65    1
    22    66    65    2
    23    37    39   ar
    24    67    68    1
    25    65    73   am
    26    68    70   ar
    27    49    50    1
    28    40    39   ar
    29    72    70   ar
    30    54    53    1
    31    73    74    1
    32    50    53    1
    33    50    51    1
    34    52    51    2
    35    74    75    1
    36    23    22    2
    37    22    21    1
    38    75    76    2
    39    75    77   am
    40    62    60    1
    41    61    60    1
    42    77    78    1
    43    60    59    1
    44    10     9    1
    45    21    24    1
    46    21    20    1
    47    24    25    1
    48    57    58    2
    49    57    56    1
    50   103   101   ar
    51   103   104   ar
    52   101    99   ar
    53    78    79    1
    54    78    81    1
    55    26    25   ar
    56    26    28   ar
    57    59    56    1
    58    80    79    2
    59    25    27   ar
    60     9    11    1
    61     9     8    2
    62    56    55    1
    63     7     8    1
    64     7     6    1
    65   104   102   ar
    66    81    82    1
    67    99    98    1
    68    99   100   ar
    69    98    95    1
    70    28    30   ar
    71     6     5    1
    72    96    97    2
    73    96    95    1
    74    27    29   ar
    75    95    94    1
    76   102   100   ar
    77    19    17   am
    78    30    29   ar
    79     1     2    1
    80     5     2    1
    81    17    18    2
    82    17    16    1
    83     2     3    1
    84    93    91    1
    85     4     3    2
    86    16    13    1
    87    91    90    2
    88    91    92    1
    89    90    89    1
    90    13    12    1
    91    13    14    1
    92    89    88    1
    93    15    14    2
    94    88    87    1
    95    86    85    2
    96    87    84    1
    97    85    84    1
    98    84    83    1
