@<TRIPOS>MOLECULE
tmp/4q5rF00.pdb
 94 92 0 0 0
SMALL
GASTEIGER

@<TRIPOS>ATOM
      1  N         62.1960   75.0240   57.4430 N.3     5  TYR5       -0.1241
      2  CA        61.9900   73.5860   57.5860 C.3     5  TYR5        0.1605
      3  C         60.7590   73.1330   56.8060 C.2     5  TYR5        0.2264
      4  O         59.9700   73.9530   56.3370 O.2     5  TYR5       -0.2867
      5  CB        61.8480   73.1860   59.0570 C.3     5  TYR5        0.0534
      6  CG        61.7130   71.6920   59.2550 C.ar    5  TYR5       -0.0201
      7  CD1       62.7200   70.8250   58.8480 C.ar    5  TYR5       -0.0009
      8  CD2       60.5800   71.1470   59.8470 C.ar    5  TYR5       -0.0009
      9  CE1       62.6030   69.4590   59.0240 C.ar    5  TYR5        0.0417
     10  CE2       60.4560   69.7810   60.0280 C.ar    5  TYR5        0.0417
     11  CZ        61.4700   68.9430   59.6140 C.ar    5  TYR5        0.1957
     12  OH        61.3500   67.5840   59.7920 O.3     5  TYR5       -0.2866
     13  N         61.0110   68.2120   62.6950 N.3     6  LEU6       -0.1245
     14  CA        62.2320   68.6450   63.3640 C.3     6  LEU6        0.1561
     15  C         62.2840   70.1620   63.5280 C.2     6  LEU6        0.2260
     16  O         63.2740   70.7030   64.0200 O.2     6  LEU6       -0.2867
     17  CB        63.4650   68.1680   62.5920 C.3     6  LEU6        0.0270
     18  CG        63.8360   66.6870   62.7010 C.3     6  LEU6        0.0019
     19  CD1       65.0960   66.4130   61.8930 C.3     6  LEU6        0.0001
     20  CD2       64.0320   66.2630   64.1500 C.3     6  LEU6        0.0001
     21  N         63.7790   73.0360   46.9540 N.3    26  TRP26      -0.1241
     22  CA        64.6960   72.4530   47.9290 C.3    26  TRP26       0.1605
     23  C         66.1200   72.3410   47.3770 C.2    26  TRP26       0.2264
     24  O         67.0770   72.7100   48.0590 O.2    26  TRP26      -0.2867
     25  CB        64.1950   71.0800   48.3850 C.3    26  TRP26       0.0550
     26  CG        64.8670   70.5330   49.5910 C.ar   26  TRP26       0.0003
     27  CD1       65.7550   71.1660   50.4400 C.ar   26  TRP26       0.0946
     28  CD2       64.6900   69.1890   50.1240 C.ar   26  TRP26       0.0152
     29  NE1       66.0740   70.2950   51.4940 N.ar   26  TRP26      -0.2442
     30  CE2       65.4830   69.1000   51.2930 C.ar   26  TRP26       0.0810
     31  CE3       63.8900   68.1130   49.7230 C.ar   26  TRP26       0.0012
     32  CZ2       65.4970   67.9290   52.0800 C.ar   26  TRP26       0.0191
     33  CZ3       63.9060   66.9740   50.5000 C.ar   26  TRP26       0.0001
     34  CH2       64.6590   66.8770   51.6660 C.ar   26  TRP26       0.0015
     35  N         74.2430   71.5830   53.8570 N.3    36  GLY36      -0.1210
     36  CA        73.2500   71.0540   52.9390 C.3    36  GLY36       0.1956
     37  C         72.0310   70.4650   53.6190 C.2    36  GLY36       0.2612
     38  O         71.3100   69.6630   53.0230 O.2    36  GLY36      -0.2717
     39  N         71.7970   70.8640   54.8650 N.am   37  LYS37      -0.1965
     40  CA        70.6910   70.3250   55.6460 C.3    37  LYS37       0.1728
     41  C         69.9560   71.4120   56.4220 C.2    37  LYS37       0.2617
     42  O         70.5570   72.3920   56.8630 O.2    37  LYS37      -0.2715
     43  CB        71.2040   69.2600   56.6170 C.3    37  LYS37       0.0311
     44  CG        72.1380   69.8000   57.6570 C.3    37  LYS37       0.0038
     45  CD        72.3460   68.7810   58.7340 C.3    37  LYS37       0.0206
     46  CE        73.0420   67.5690   58.1790 C.3    37  LYS37       0.1093
     47  NZ        72.9660   66.4520   59.1750 N.3    37  LYS37      -0.1314
     48  N         68.6480   71.2230   56.5660 N.am   38  THR38      -0.1937
     49  CA        67.8200   72.0540   57.4270 C.3    38  THR38       0.2013
     50  C         67.4900   71.2090   58.6510 C.2    38  THR38       0.2484
     51  O         67.6980   69.9940   58.6290 O.2    38  THR38      -0.2729
     52  CB        66.5220   72.4770   56.7100 C.3    38  THR38       0.1807
     53  OG1       65.6590   71.3430   56.5540 O.3    38  THR38      -0.2208
     54  CG2       66.8360   73.0690   55.3460 C.3    38  THR38       0.0379
     55  N         66.9730   71.8290   59.7230 N.am   39  PRO39      -0.2726
     56  CA        66.6300   73.2440   59.9220 C.3    39  PRO39       0.1402
     57  C         67.8260   74.1900   60.0010 C.2    39  PRO39       0.2269
     58  O         68.8900   73.8130   60.4960 O.2    39  PRO39      -0.2865
     59  CB        65.8870   73.2370   61.2630 C.3    39  PRO39       0.0296
     60  CG        66.3560   72.0090   61.9560 C.3    39  PRO39       0.0237
     61  CD        66.5860   71.0060   60.8810 C.3    39  PRO39       0.0939
     62  N         71.7450   72.4800   62.8940 N.3    50  GLN50      -0.1231
     63  CA        71.6310   71.4000   63.8810 C.3    50  GLN50       0.1698
     64  C         70.5350   71.6850   64.9080 C.2    50  GLN50       0.2593
     65  O         70.6870   72.5350   65.7810 O.2    50  GLN50      -0.2718
     66  CB        72.9700   71.1100   64.5690 C.3    50  GLN50       0.0381
     67  CG        74.0310   70.5410   63.6420 C.3    50  GLN50       0.0905
     68  CD        73.6550   69.1790   63.0890 C.2    50  GLN50       0.2608
     69  OE1       72.7290   68.5350   63.5750 O.2    50  GLN50      -0.2717
     70  NE2       74.3740   68.7350   62.0650 N.am   50  GLN50      -0.0878
     71  N         69.4360   70.9430   64.7900 N.am   51  SER51      -0.1938
     72  CA        68.2280   71.1940   65.5700 C.3    51  SER51       0.2055
     73  C         68.4540   71.1230   67.0830 C.2    51  SER51       0.2642
     74  O         67.9010   71.9270   67.8330 O.2    51  SER51      -0.2714
     75  CB        67.1320   70.2030   65.1680 C.3    51  SER51       0.2130
     76  OG        67.3670   68.9240   65.7290 O.3    51  SER51      -0.2179
     77  N         69.2580   70.1640   67.5340 N.am   52  VAL52      -0.1977
     78  CA        69.5180   70.0080   68.9660 C.3    52  VAL52       0.1596
     79  C         70.4190   71.1300   69.4780 C.2    52  VAL52       0.2287
     80  O         70.1970   71.6630   70.5650 O.2    52  VAL52      -0.2864
     81  CB        70.1450   68.6260   69.2890 C.3    52  VAL52       0.0276
     82  CG1       70.6720   68.5760   70.7260 C.3    52  VAL52       0.0022
     83  CG2       69.1260   67.5210   69.0600 C.3    52  VAL52       0.0022
     84  N         64.4140   57.8390   68.8020 N.3    86  ARG86      -0.1245
     85  CA        63.8780   58.2320   67.5050 C.3    86  ARG86       0.1563
     86  C         64.4660   57.3480   66.4160 C.2    86  ARG86       0.2260
     87  O         63.7550   56.8940   65.5210 O.2    86  ARG86      -0.2867
     88  CB        64.1930   59.6980   67.1970 C.3    86  ARG86       0.0307
     89  CG        64.1660   60.0220   65.7020 C.3    86  ARG86       0.0489
     90  CD        63.8910   61.4940   65.4310 C.3    86  ARG86       0.2205
     91  NE        65.0430   62.3490   65.7180 N.pl3  86  ARG86      -0.0865
     92  CZ        65.9270   62.7570   64.8100 C.cat  86  ARG86       0.5346
     93  NH1       65.8130   62.3920   63.5370 N.pl3  86  ARG86       0.1354
     94  NH2       66.9340   63.5380   65.1770 N.pl3  86  ARG86       0.1354
@<TRIPOS>BOND
     1    21    22    1
     2    23    22    1
     3    23    24    2
     4    22    25    1
     5    25    26    1
     6    26    28   ar
     7    26    27   ar
     8    31    28   ar
     9    31    33   ar
    10    28    30   ar
    11    27    29   ar
    12    33    34   ar
    13    30    29   ar
    14    30    32   ar
    15    34    32   ar
    16    36    37    1
    17    36    35    1
    18    38    37    2
    19    37    39   am
    20    39    40    1
    21    54    52    1
    22    40    41    1
    23    40    43    1
    24     4     3    2
    25    41    48   am
    26    41    42    2
    27    53    52    1
    28    48    49    1
    29    43    44    1
    30    52    49    1
    31     3     2    1
    32    49    50    1
    33     1     2    1
    34     2     5    1
    35    44    45    1
    36    46    45    1
    37    46    47    1
    38    51    50    2
    39    50    55   am
    40     7     9   ar
    41     7     6   ar
    42     9    11   ar
    43     5     6    1
    44     6     8   ar
    45    11    12    1
    46    11    10   ar
    47    55    56    1
    48    55    61    1
    49     8    10   ar
    50    56    57    1
    51    56    59    1
    52    57    58    2
    53    61    60    1
    54    59    60    1
    55    19    18    1
    56    70    68   am
    57    17    18    1
    58    17    14    1
    59    13    14    1
    60    18    20    1
    61    62    63    1
    62    68    69    2
    63    68    67    1
    64    14    15    1
    65    15    16    2
    66    93    92    1
    67    67    66    1
    68    63    66    1
    69    63    64    1
    70    71    64   am
    71    71    72    1
    72    92    94    1
    73    92    91    2
    74    64    65    2
    75    75    72    1
    76    75    76    1
    77    90    89    1
    78    90    91    1
    79    87    86    2
    80    72    73    1
    81    89    88    1
    82    86    85    1
    83    73    77   am
    84    73    74    2
    85    88    85    1
    86    85    84    1
    87    77    78    1
    88    78    81    1
    89    78    79    1
    90    83    81    1
    91    81    82    1
    92    79    80    2
