@<TRIPOS>MOLECULE
tmp/4q5tA00.pdb
 142 138 0 0 0
SMALL
GASTEIGER

@<TRIPOS>ATOM
      1  N         10.5970   30.0510   37.4400 N.3    44  TYR44      -0.1241
      2  CA        11.8480   30.0740   36.6590 C.3    44  TYR44       0.1605
      3  C         12.1800   28.7780   35.8840 C.2    44  TYR44       0.2264
      4  O         13.0840   28.7630   35.0270 O.2    44  TYR44      -0.2867
      5  CB        13.0400   30.3610   37.5500 C.3    44  TYR44       0.0534
      6  CG        13.1910   31.7840   38.0570 C.ar   44  TYR44      -0.0201
      7  CD1       12.5730   32.8620   37.4290 C.ar   44  TYR44      -0.0009
      8  CD2       13.9800   32.0410   39.1710 C.ar   44  TYR44      -0.0009
      9  CE1       12.7480   34.2010   37.9260 C.ar   44  TYR44       0.0417
     10  CE2       14.1530   33.3340   39.6670 C.ar   44  TYR44       0.0417
     11  CZ        13.5300   34.4030   39.0510 C.ar   44  TYR44       0.1957
     12  OH        13.7520   35.6720   39.5710 O.3    44  TYR44      -0.2866
     13  N         14.3960   36.6780   30.9070 N.3    61  PHE61      -0.1227
     14  CA        14.0180   36.4210   32.3000 C.3    61  PHE61       0.1736
     15  C         15.1560   36.0000   33.2170 C.2    61  PHE61       0.2595
     16  O         14.9980   36.0410   34.4440 O.2    61  PHE61      -0.2718
     17  CB        12.9320   35.3460   32.3800 C.3    61  PHE61       0.0547
     18  CG        13.4760   33.9440   32.4390 C.ar   61  PHE61      -0.0202
     19  CD1       13.9130   33.3070   31.2700 C.ar   61  PHE61      -0.0042
     20  CD2       13.5450   33.2590   33.6420 C.ar   61  PHE61      -0.0042
     21  CE1       14.4190   32.0130   31.3170 C.ar   61  PHE61      -0.0003
     22  CE2       14.0440   31.9480   33.7080 C.ar   61  PHE61      -0.0003
     23  CZ        14.4710   31.3190   32.5570 C.ar   61  PHE61      -0.0000
     24  N         16.3140   35.6890   32.6540 N.am   62  GLN62      -0.1965
     25  CA        17.3360   35.0060   33.4300 C.3    62  GLN62       0.1733
     26  C         18.6700   35.6670   33.2490 C.2    62  GLN62       0.2616
     27  O         18.8510   36.4440   32.2870 O.2    62  GLN62      -0.2715
     28  CB        17.4400   33.5370   32.9680 C.3    62  GLN62       0.0408
     29  CG        18.2410   33.3410   31.6720 C.3    62  GLN62       0.0908
     30  CD        17.9660   31.9690   31.0270 C.2    62  GLN62       0.2608
     31  OE1       18.2320   30.9220   31.6190 O.2    62  GLN62      -0.2717
     32  NE2       17.4160   31.9890   29.8180 N.am   62  GLN62      -0.0878
     33  N         19.5910   35.3410   34.1730 N.am   63  HIS63      -0.1973
     34  CA        21.0010   35.7240   34.0410 C.3    63  HIS63       0.1656
     35  C         21.8560   34.5850   33.4730 C.2    63  HIS63       0.2291
     36  O         21.4120   33.4350   33.3880 O.2    63  HIS63      -0.2864
     37  CB        21.5990   36.3050   35.3460 C.3    63  HIS63       0.0771
     38  CG        21.3780   35.4680   36.5620 C.ar   63  HIS63       0.0820
     39  ND1       21.8660   34.1800   36.6810 N.ar   63  HIS63      -0.2267
     40  CD2       20.7600   35.7440   37.7350 C.ar   63  HIS63       0.1154
     41  CE1       21.5250   33.6890   37.8610 C.ar   63  HIS63       0.1986
     42  NE2       20.8450   34.6180   38.5190 N.ar   63  HIS63      -0.2212
     43  N         22.1420   31.2840   35.4950 N.3    66  PHE66      -0.1241
     44  CA        20.9630   30.4640   35.4600 C.3    66  PHE66       0.1605
     45  C         20.9620   29.7160   34.1330 C.2    66  PHE66       0.2264
     46  O         20.7440   28.4850   34.1190 O.2    66  PHE66      -0.2867
     47  CB        19.6870   31.2880   35.6520 C.3    66  PHE66       0.0534
     48  CG        18.4430   30.4450   35.7860 C.ar   66  PHE66      -0.0203
     49  CD1       17.7680   29.9980   34.6640 C.ar   66  PHE66      -0.0042
     50  CD2       17.9780   30.0730   37.0360 C.ar   66  PHE66      -0.0042
     51  CE1       16.6160   29.2100   34.7810 C.ar   66  PHE66      -0.0003
     52  CE2       16.8410   29.3040   37.1720 C.ar   66  PHE66      -0.0003
     53  CZ        16.1660   28.8470   36.0310 C.ar   66  PHE66      -0.0000
     54  N         19.7450   43.8970   31.5630 N.3    85  TYR85      -0.1241
     55  CA        20.0040   44.6770   32.7680 C.3    85  TYR85       0.1605
     56  C         20.5390   43.7480   33.8540 C.2    85  TYR85       0.2264
     57  O         20.4340   42.5090   33.7650 O.2    85  TYR85      -0.2867
     58  CB        18.7070   45.3530   33.2240 C.3    85  TYR85       0.0534
     59  CG        17.5400   44.3790   33.3440 C.ar   85  TYR85      -0.0201
     60  CD1       16.7290   44.1100   32.2550 C.ar   85  TYR85      -0.0009
     61  CD2       17.2500   43.7500   34.5450 C.ar   85  TYR85      -0.0009
     62  CE1       15.6750   43.2340   32.3500 C.ar   85  TYR85       0.0417
     63  CE2       16.2050   42.8550   34.6440 C.ar   85  TYR85       0.0417
     64  CZ        15.4230   42.5920   33.5400 C.ar   85  TYR85       0.1957
     65  OH        14.3670   41.7200   33.6060 O.3    85  TYR85      -0.2866
     66  N         20.1140   43.1390   38.0940 N.3    87  SER87      -0.1217
     67  CA        19.0570   43.3340   39.0830 C.3    87  SER87       0.1889
     68  C         19.4940   42.8970   40.4840 C.2    87  SER87       0.2288
     69  O         19.1180   41.8110   40.9450 O.2    87  SER87      -0.2866
     70  CB        17.7660   42.6240   38.6490 C.3    87  SER87       0.2089
     71  OG        16.6630   42.9960   39.4490 O.3    87  SER87      -0.2183
     72  N         20.1210   41.8810   44.0770 N.3    89  ILE89      -0.1245
     73  CA        19.1270   41.2110   44.8680 C.3    89  ILE89       0.1561
     74  C         19.2510   41.6780   46.3300 C.2    89  ILE89       0.2260
     75  O         20.3010   42.1900   46.7420 O.2    89  ILE89      -0.2867
     76  CB        19.3270   39.6710   44.7240 C.3    89  ILE89       0.0252
     77  CG1       18.0870   38.9020   45.1500 C.3    89  ILE89       0.0019
     78  CG2       20.5450   39.2100   45.5020 C.3    89  ILE89       0.0019
     79  CD1       18.1350   37.4220   44.6730 C.3    89  ILE89       0.0001
     80  N         20.8270   30.8070   41.9720 N.3   122  ASN122     -0.1240
     81  CA        20.2740   31.8050   42.8960 C.3   122  ASN122      0.1653
     82  C         20.4230   31.3680   44.3470 C.2   122  ASN122      0.2266
     83  O         20.4950   32.2090   45.2210 O.2   122  ASN122     -0.2867
     84  CB        18.8150   32.1530   42.5620 C.3   122  ASN122      0.1155
     85  CG        18.6960   32.8850   41.2200 C.2   122  ASN122      0.2627
     86  OD1       19.1160   34.0260   41.1000 O.2   122  ASN122     -0.2716
     87  ND2       18.1400   32.2160   40.2150 N.am  122  ASN122     -0.0877
     88  N         23.8740   32.4770   44.9560 N.3   125  ARG125     -0.1245
     89  CA        23.8580   33.9390   45.0310 C.3   125  ARG125      0.1563
     90  C         23.4410   34.4300   46.4260 C.2   125  ARG125      0.2260
     91  O         24.0510   35.3570   46.9920 O.2   125  ARG125     -0.2867
     92  CB        22.8990   34.4840   43.9660 C.3   125  ARG125      0.0307
     93  CG        22.8890   35.9480   43.8410 C.3   125  ARG125      0.0489
     94  CD        21.9160   36.3080   42.7320 C.3   125  ARG125      0.2205
     95  NE        21.9800   37.7030   42.3700 N.pl3 125  ARG125     -0.0865
     96  CZ        21.1900   38.2520   41.4540 C.cat 125  ARG125      0.5346
     97  NH1       20.2700   37.5090   40.8450 N.pl3 125  ARG125      0.1354
     98  NH2       21.2840   39.5410   41.1880 N.pl3 125  ARG125      0.1354
     99  N         14.5010   37.4600   44.6230 N.3   181  ASN181     -0.1225
    100  CA        14.7280   38.0550   43.3150 C.3   181  ASN181      0.1785
    101  C         13.7170   39.1540   43.0760 C.2   181  ASN181      0.2597
    102  O         12.5490   39.0010   43.4070 O.2   181  ASN181     -0.2718
    103  CB        14.5960   37.0220   42.2000 C.3   181  ASN181      0.1169
    104  CG        15.5920   35.8700   42.3200 C.2   181  ASN181      0.2627
    105  OD1       15.3380   34.9010   43.0420 O.2   181  ASN181     -0.2716
    106  ND2       16.7330   35.9760   41.6340 N.am  181  ASN181     -0.0877
    107  N         14.1500   40.2520   42.4690 N.am  182  ASN182     -0.1960
    108  CA        13.2510   41.3800   42.2240 C.3   182  ASN182      0.1819
    109  C         12.0500   41.0660   41.3460 C.2   182  ASN182      0.2622
    110  O         10.9750   41.6640   41.5130 O.2   182  ASN182     -0.2715
    111  CB        14.0380   42.5700   41.6520 C.3   182  ASN182      0.1195
    112  CG        15.0190   43.1340   42.6620 C.2   182  ASN182      0.2630
    113  OD1       14.6620   43.3370   43.8270 O.2   182  ASN182     -0.2716
    114  ND2       16.2580   43.3680   42.2410 N.am  182  ASN182     -0.0877
    115  N         12.2050   40.1140   40.4220 N.am  183  SER183     -0.1950
    116  CA        11.0920   39.7250   39.5850 C.3   183  SER183      0.1924
    117  C          9.8980   39.2590   40.4220 C.2   183  SER183      0.2314
    118  O          8.7300   39.3940   40.0070 O.2   183  SER183     -0.2863
    119  CB        11.5410   38.6280   38.5780 C.3   183  SER183      0.2116
    120  OG        11.8880   37.3990   39.2160 O.3   183  SER183     -0.2180
    121  N         25.4730   37.7600   36.9450 N.3   208  TRP208     -0.1241
    122  CA        24.0860   38.0760   37.2880 C.3   208  TRP208      0.1605
    123  C         23.4380   39.0220   36.2680 C.2   208  TRP208      0.2264
    124  O         22.2860   39.4350   36.4530 O.2   208  TRP208     -0.2867
    125  CB        23.9630   38.7070   38.6940 C.3   208  TRP208      0.0550
    126  CG        24.7830   38.0140   39.7380 C.ar  208  TRP208      0.0003
    127  CD1       25.7340   38.5770   40.5460 C.ar  208  TRP208      0.0946
    128  CD2       24.7280   36.6300   40.0870 C.ar  208  TRP208      0.0152
    129  NE1       26.2770   37.6230   41.3790 N.ar  208  TRP208     -0.2442
    130  CE2       25.6770   36.4170   41.1180 C.ar  208  TRP208      0.0810
    131  CE3       23.9820   35.5420   39.6260 C.ar  208  TRP208      0.0012
    132  CZ2       25.8950   35.1590   41.6900 C.ar  208  TRP208      0.0191
    133  CZ3       24.1970   34.2900   40.2020 C.ar  208  TRP208      0.0001
    134  CH2       25.1430   34.1110   41.2210 C.ar  208  TRP208      0.0015
    135  N         21.2830   39.9320   33.2960 N.3   210  ASN210     -0.1240
    136  CA        20.2230   39.2480   32.6110 C.3   210  ASN210      0.1653
    137  C         20.4320   39.3170   31.0910 C.2   210  ASN210      0.2266
    138  O         21.1390   40.1980   30.5670 O.2   210  ASN210     -0.2867
    139  CB        18.8630   39.8010   32.9750 C.3   210  ASN210      0.1155
    140  CG        18.4270   39.4000   34.3750 C.2   210  ASN210      0.2627
    141  OD1       19.2080   39.4430   35.3130 O.2   210  ASN210     -0.2716
    142  ND2       17.1760   39.0640   34.5160 N.am  210  ASN210     -0.0877
@<TRIPOS>BOND
     1    32    30   am
     2   138   137    2
     3    13    14    1
     4    30    31    2
     5    30    29    1
     6   137   136    1
     7    19    21   ar
     8    19    18   ar
     9    21    23   ar
    10    54    55    1
    11    29    28    1
    12    60    62   ar
    13    60    59   ar
    14    27    26    2
    15    14    17    1
    16    14    15    1
    17    62    64   ar
    18    17    18    1
    19    18    20   ar
    20    23    22   ar
    21   136   139    1
    22   136   135    1
    23    24    15   am
    24    24    25    1
    25    55    58    1
    26    55    56    1
    27    28    25    1
    28   139   140    1
    29    15    16    2
    30    58    59    1
    31    26    25    1
    32    26    33   am
    33    59    61   ar
    34    36    35    2
    35    35    34    1
    36    64    65    1
    37    64    63   ar
    38    20    22   ar
    39    57    56    2
    40    34    33    1
    41    34    37    1
    42    46    45    2
    43    45    44    1
    44   140   142   am
    45   140   141    2
    46    61    63   ar
    47    49    51   ar
    48    49    48   ar
    49    51    53   ar
    50     4     3    2
    51    37    38    1
    52    44    43    1
    53    44    47    1
    54    47    48    1
    55    48    50   ar
    56     3     2    1
    57    53    52   ar
    58   123   124    2
    59   123   122    1
    60    38    39   ar
    61    38    40   ar
    62     2     1    1
    63     2     5    1
    64    39    41   ar
    65   121   122    1
    66    50    52   ar
    67   122   125    1
    68     7     9   ar
    69     7     6   ar
    70     5     6    1
    71    40    42   ar
    72    41    42   ar
    73     9    11   ar
    74     6     8   ar
    75    66    67    1
    76   119   120    1
    77   119   116    1
    78    70    67    1
    79    70    71    1
    80   125   126    1
    81    11    12    1
    82    11    10   ar
    83    67    68    1
    84     8    10   ar
    85   116   115    1
    86   116   117    1
    87   131   128   ar
    88   131   133   ar
    89   126   128   ar
    90   126   127   ar
    91   118   117    2
    92   128   130   ar
    93   133   134   ar
    94    87    85   am
    95   115   109   am
    96    68    69    2
    97   127   129   ar
    98    97    96    1
    99    86    85    2
   100   130   129   ar
   101   130   132   ar
   102    98    96    1
   103    85    84    1
   104   134   132   ar
   105   109   110    2
   106   109   108    1
   107    96    95    2
   108   106   104   am
   109   111   108    1
   110   111   112    1
   111    80    81    1
   112   103   104    1
   113   103   100    1
   114   108   107    1
   115   114   112   am
   116   104   105    2
   117    95    94    1
   118   107   101   am
   119    84    81    1
   120   112   113    2
   121    94    93    1
   122    81    82    1
   123   101   100    1
   124   101   102    2
   125   100    99    1
   126    93    92    1
   127    92    89    1
   128    72    73    1
   129    82    83    2
   130    79    77    1
   131    76    73    1
   132    76    77    1
   133    76    78    1
   134    73    74    1
   135    88    89    1
   136    89    90    1
   137    74    75    2
   138    90    91    2
