@<TRIPOS>MOLECULE
tmp/4q5vA00.pdb
 86 84 0 0 0
SMALL
GASTEIGER

@<TRIPOS>ATOM
      1  N         88.5440  105.4020  181.9230 N.3   497  SER497     -0.1202
      2  CA        88.6120  103.9540  181.7470 C.3   497  SER497      0.2020
      3  C         89.2320  103.2870  182.9730 C.2   497  SER497      0.2619
      4  O         90.3820  102.8430  182.9430 O.2   497  SER497     -0.2717
      5  CB        89.4310  103.6180  180.5030 C.3   497  SER497      0.2103
      6  OG        88.8290  104.1780  179.3430 O.3   497  SER497     -0.2182
      7  N         88.4530  103.2160  184.0510 N.am  498  LEU498     -0.1965
      8  CA        88.9250  102.6240  185.2990 C.3   498  LEU498      0.1728
      9  C         89.2440  101.1530  185.1290 C.2   498  LEU498      0.2616
     10  O         90.3740  100.7210  185.3350 O.2   498  LEU498     -0.2715
     11  CB        87.8780  102.7870  186.4120 C.3   498  LEU498      0.0311
     12  CG        88.2930  102.2840  187.8030 C.3   498  LEU498      0.0022
     13  CD1       89.5500  103.0150  188.2550 C.3   498  LEU498      0.0001
     14  CD2       87.1590  102.5010  188.7920 C.3   498  LEU498      0.0001
     15  N         88.2480  100.3850  184.7310 N.am  499  TYR499     -0.1960
     16  CA        88.4590   98.9650  184.5670 C.3   499  TYR499      0.1756
     17  C         89.6280   98.5850  183.6470 C.2   499  TYR499      0.2461
     18  O         90.4860   97.8030  184.0450 O.2   499  TYR499     -0.2730
     19  CB        87.1480   98.3290  184.1510 C.3   499  TYR499      0.0574
     20  CG        86.1300   98.2860  185.2850 C.ar  499  TYR499     -0.0198
     21  CD1       86.4010   98.8550  186.5470 C.ar  499  TYR499     -0.0009
     22  CD2       84.9150   97.6140  185.1160 C.ar  499  TYR499     -0.0009
     23  CE1       85.4820   98.7420  187.6120 C.ar  499  TYR499      0.0417
     24  CE2       84.0050   97.4940  186.1580 C.ar  499  TYR499      0.0417
     25  CZ        84.2810   98.0480  187.3940 C.ar  499  TYR499      0.1957
     26  OH        83.3370   97.8760  188.3740 O.3   499  TYR499     -0.2866
     27  N         89.6870   99.1280  182.4160 N.am  500  PRO500     -0.2727
     28  CA        90.8010   98.7880  181.5230 C.3   500  PRO500      0.1402
     29  C         92.1620   99.1540  182.1360 C.2   500  PRO500      0.2269
     30  O         93.1460   98.4350  181.9660 O.2   500  PRO500     -0.2865
     31  CB        90.5020   99.6160  180.2710 C.3   500  PRO500      0.0296
     32  CG        89.0430   99.6430  180.2220 C.3   500  PRO500      0.0237
     33  CD        88.6410   99.8600  181.6760 C.3   500  PRO500      0.0939
     34  N         85.3730  100.7720  172.7840 N.3   572  LEU572     -0.1245
     35  CA        84.3870   99.7000  172.9660 C.3   572  LEU572      0.1561
     36  C         85.0430   98.3440  173.1690 C.2   572  LEU572      0.2260
     37  O         84.5670   97.5240  173.9510 O.2   572  LEU572     -0.2867
     38  CB        83.4750   99.6090  171.7430 C.3   572  LEU572      0.0270
     39  CG        82.5840  100.8170  171.4990 C.3   572  LEU572      0.0019
     40  CD1       82.1490  100.8330  170.0430 C.3   572  LEU572      0.0001
     41  CD2       81.3790  100.7760  172.4590 C.3   572  LEU572      0.0001
     42  N         86.7900   98.1300  176.7830 N.3   575  ASN575     -0.1225
     43  CA        85.7860   97.9550  177.8280 C.3   575  ASN575      0.1785
     44  C         85.1130   96.5730  177.8210 C.2   575  ASN575      0.2597
     45  O         84.8850   95.9950  178.8670 O.2   575  ASN575     -0.2718
     46  CB        84.7310   99.0580  177.7250 C.3   575  ASN575      0.1169
     47  CG        85.2150  100.3730  178.3190 C.2   575  ASN575      0.2627
     48  OD1       84.6760  101.4450  178.0340 O.2   575  ASN575     -0.2716
     49  ND2       86.2360  100.2910  179.1630 N.am  575  ASN575     -0.0877
     50  N         84.8070   96.0360  176.6470 N.am  576  SER576     -0.1952
     51  CA        84.1550   94.7290  176.5840 C.3   576  SER576      0.1924
     52  C         85.0560   93.6340  177.0930 C.2   576  SER576      0.2314
     53  O         84.5860   92.5700  177.4540 O.2   576  SER576     -0.2863
     54  CB        83.7080   94.4050  175.1560 C.3   576  SER576      0.2116
     55  OG        82.5730   95.1840  174.8060 O.3   576  SER576     -0.2180
     56  N         86.5990   93.4410  179.8300 N.3   578  TYR578     -0.1227
     57  CA        86.2080   93.1780  181.2010 C.3   578  TYR578      0.1736
     58  C         84.9450   92.3280  181.2860 C.2   578  TYR578      0.2596
     59  O         84.9610   91.2220  181.8270 O.2   578  TYR578     -0.2718
     60  CB        85.9570   94.4860  181.9460 C.3   578  TYR578      0.0548
     61  CG        85.0930   94.2930  183.1690 C.ar  578  TYR578     -0.0200
     62  CD1       85.5910   93.6550  184.2880 C.ar  578  TYR578     -0.0009
     63  CD2       83.7440   94.6530  183.1610 C.ar  578  TYR578     -0.0009
     64  CE1       84.7790   93.3660  185.3680 C.ar  578  TYR578      0.0417
     65  CE2       82.9110   94.3620  184.2470 C.ar  578  TYR578      0.0417
     66  CZ        83.4440   93.7120  185.3430 C.ar  578  TYR578      0.1957
     67  OH        82.6490   93.3490  186.4000 O.3   578  TYR578     -0.2866
     68  N         83.8490   92.8620  180.7650 N.am  579  GLY579     -0.1957
     69  CA        82.5920   92.1420  180.8160 C.3   579  GLY579      0.1869
     70  C         82.6490   90.7110  180.3270 C.2   579  GLY579      0.2309
     71  O         81.8420   89.8850  180.7350 O.2   579  GLY579     -0.2863
     72  N         80.8300  104.0760  191.1100 N.3   624  THR624     -0.1203
     73  CA        81.8400  103.2210  190.5070 C.3   624  THR624      0.1994
     74  C         83.1800  103.8620  190.1350 C.2   624  THR624      0.2617
     75  O         84.2340  103.3420  190.4910 O.2   624  THR624     -0.2717
     76  CB        81.2710  102.5490  189.2440 C.3   624  THR624      0.1784
     77  OG1       80.0100  101.9360  189.5450 O.3   624  THR624     -0.2211
     78  CG2       82.2250  101.4880  188.7450 C.3   624  THR624      0.0376
     79  N         83.1480  104.9840  189.4220 N.am  625  ASP625     -0.1973
     80  CA        84.3820  105.6190  188.9740 C.3   625  ASP625      0.1709
     81  C         84.3520  107.1270  189.0130 C.2   625  ASP625      0.2293
     82  O         85.2380  107.7770  188.4480 O.2   625  ASP625     -0.2864
     83  CB        84.7100  105.1870  187.5410 C.3   625  ASP625      0.1436
     84  CG        83.6310  105.5980  186.5350 C.2   625  ASP625      0.3671
     85  OD1       83.8180  105.3550  185.3260 O.co2 625  ASP625     -0.2456
     86  OD2       82.5910  106.1620  186.9400 O.co2 625  ASP625     -0.2456
@<TRIPOS>BOND
     1    40    39    1
     2    39    38    1
     3    39    41    1
     4    38    35    1
     5    34    35    1
     6    35    36    1
     7    36    37    2
     8    55    54    1
     9    54    51    1
    10    51    50    1
    11    51    52    1
    12    50    44   am
    13    42    43    1
    14    52    53    2
    15    46    43    1
    16    46    47    1
    17    44    43    1
    18    44    45    2
    19    48    47    2
    20    47    49   am
    21     6     5    1
    22    56    57    1
    23    32    31    1
    24    32    33    1
    25    31    28    1
    26    70    71    2
    27    70    69    1
    28     5     2    1
    29    68    69    1
    30    68    58   am
    31    57    58    1
    32    57    60    1
    33    58    59    2
    34    28    29    1
    35    28    27    1
    36    33    27    1
    37     2     1    1
    38     2     3    1
    39    60    61    1
    40    30    29    2
    41    27    17   am
    42     4     3    2
    43     3     7   am
    44    63    61   ar
    45    63    65   ar
    46    61    62   ar
    47    17    18    2
    48    17    16    1
    49     7     8    1
    50    19    16    1
    51    19    20    1
    52    65    66   ar
    53    62    64   ar
    54    16    15    1
    55    15     9   am
    56    22    20   ar
    57    22    24   ar
    58     9     8    1
    59     9    10    2
    60    20    21   ar
    61     8    11    1
    62    85    84   ar
    63    66    64   ar
    64    66    67    1
    65    24    25   ar
    66    11    12    1
    67    84    86   ar
    68    84    83    1
    69    21    23   ar
    70    25    23   ar
    71    25    26    1
    72    83    80    1
    73    12    13    1
    74    12    14    1
    75    82    81    2
    76    78    76    1
    77    80    81    1
    78    80    79    1
    79    76    77    1
    80    76    73    1
    81    79    74   am
    82    74    75    2
    83    74    73    1
    84    73    72    1
