@<TRIPOS>MOLECULE
tmp/4q5wA00.pdb
 83 80 0 0 0
SMALL
GASTEIGER

@<TRIPOS>ATOM
      1  N          9.4270   14.8170    7.7200 N.3     1  THR1       -0.1218
      2  CA        10.0390   13.6510    7.0860 C.3     1  THR1        0.1862
      3  C          9.2470   13.1860    5.8620 C.2     1  THR1        0.2287
      4  O          8.0790   13.5280    5.7080 O.2     1  THR1       -0.2866
      5  CB        10.2240   12.4880    8.0780 C.3     1  THR1        0.1770
      6  OG1       11.2320   11.5980    7.5820 O.3     1  THR1       -0.2211
      7  CG2        8.9290   11.7150    8.2880 C.3     1  THR1        0.0375
      8  N          8.6500    4.9500    4.9060 N.3    18  PHE18      -0.1227
      9  CA         9.4420    6.1310    5.2450 C.3    18  PHE18       0.1736
     10  C         10.8050    6.0650    4.5750 C.2    18  PHE18       0.2596
     11  O         11.3530    4.9770    4.3870 O.2    18  PHE18      -0.2718
     12  CB         9.5480    6.2890    6.7560 C.3    18  PHE18       0.0547
     13  CG         8.2810    6.7920    7.3740 C.ar   18  PHE18      -0.0202
     14  CD1        7.3130    5.9110    7.8090 C.ar   18  PHE18      -0.0042
     15  CD2        8.0440    8.1540    7.4820 C.ar   18  PHE18      -0.0042
     16  CE1        6.1260    6.3720    8.3560 C.ar   18  PHE18      -0.0003
     17  CE2        6.8580    8.6250    8.0360 C.ar   18  PHE18      -0.0003
     18  CZ         5.9040    7.7310    8.4730 C.ar   18  PHE18      -0.0000
     19  N         11.3360    7.2280    4.2000 N.am   19  SER19      -0.1938
     20  CA        12.5150    7.2840    3.3240 C.3    19  SER19       0.2055
     21  C         13.7440    6.5780    3.8790 C.2    19  SER19       0.2642
     22  O         14.5800    6.1050    3.1090 O.2    19  SER19      -0.2714
     23  CB        12.8530    8.7330    2.9190 C.3    19  SER19       0.2130
     24  OG        13.3650    9.4930    4.0040 O.3    19  SER19      -0.2179
     25  N         13.8480    6.4970    5.2070 N.am   20  GLU20      -0.1976
     26  CA        14.9650    5.7970    5.8540 C.3    20  GLU20       0.1602
     27  C         15.0970    4.3530    5.3630 C.2    20  GLU20       0.2287
     28  O         16.1870    3.7800    5.4040 O.2    20  GLU20      -0.2864
     29  CB        14.8050    5.7910    7.3810 C.3    20  GLU20       0.0415
     30  CG        13.6480    4.9100    7.8490 C.3    20  GLU20       0.1163
     31  CD        13.5930    4.6780    9.3580 C.2    20  GLU20       0.3649
     32  OE1       14.4020    5.2780   10.1050 O.co2  20  GLU20      -0.2457
     33  OE2       12.7180    3.8840    9.7890 O.co2  20  GLU20      -0.2457
     34  N          4.7480    1.1680    7.2290 N.3   105  GLU105     -0.1231
     35  CA         4.1470    1.3840    8.5350 C.3   105  GLU105      0.1699
     36  C          2.7560    1.9540    8.3120 C.2   105  GLU105      0.2592
     37  O          2.5090    2.6110    7.3060 O.2   105  GLU105     -0.2718
     38  CB         4.9890    2.3500    9.3640 C.3   105  GLU105      0.0402
     39  CG         6.3860    1.8370    9.6300 C.3   105  GLU105      0.1161
     40  CD         7.3010    2.8810   10.2410 C.2   105  GLU105      0.3649
     41  OE1        8.5310    2.6950   10.1560 O.co2 105  GLU105     -0.2457
     42  OE2        6.7990    3.8830   10.8030 O.co2 105  GLU105     -0.2457
     43  N          1.8450    1.6960    9.2410 N.am  106  ILE106     -0.1966
     44  CA         0.4860    2.2000    9.1110 C.3   106  ILE106      0.1727
     45  C          0.2800    3.4900    9.9030 C.2   106  ILE106      0.2616
     46  O          0.6600    3.5890   11.0740 O.2   106  ILE106     -0.2715
     47  CB        -0.5360    1.1710    9.6040 C.3   106  ILE106      0.0290
     48  CG1       -0.3840   -0.1440    8.8410 C.3   106  ILE106      0.0022
     49  CG2       -1.9510    1.7150    9.4640 C.3   106  ILE106      0.0023
     50  CD1       -1.2490   -1.2680    9.3930 C.3   106  ILE106      0.0001
     51  N         -0.3100    4.4860    9.2510 N.am  107  CYS107     -0.1968
     52  CA        -0.6630    5.7350    9.9160 C.3   107  CYS107      0.1712
     53  C         -2.0890    6.1230    9.5750 C.2   107  CYS107      0.2296
     54  O         -2.7040    5.5310    8.6900 O.2   107  CYS107     -0.2864
     55  CB         0.2790    6.8510    9.4840 C.3   107  CYS107      0.0983
     56  SG         1.9900    6.5190    9.9090 S.3   107  CYS107     -0.0798
     57  N          3.7830   14.3060   12.5460 N.3   141  PHE141     -0.1241
     58  CA         3.0100   13.5410   13.5270 C.3   141  PHE141      0.1605
     59  C          2.1390   14.3800   14.4550 C.2   141  PHE141      0.2264
     60  O          2.6210   15.2590   15.1590 O.2   141  PHE141     -0.2867
     61  CB         3.9140   12.5980   14.3260 C.3   141  PHE141      0.0534
     62  CG         4.3920   11.4240   13.5270 C.ar  141  PHE141     -0.0203
     63  CD1        3.6600   10.2570   13.4940 C.ar  141  PHE141     -0.0042
     64  CD2        5.5510   11.5040   12.7780 C.ar  141  PHE141     -0.0042
     65  CE1        4.0790    9.1810   12.7400 C.ar  141  PHE141     -0.0003
     66  CE2        5.9720   10.4320   12.0210 C.ar  141  PHE141     -0.0003
     67  CZ         5.2370    9.2740   12.0030 C.ar  141  PHE141     -0.0000
     68  N          1.6280   10.4840   18.1030 N.3   144  LYS144     -0.1245
     69  CA         2.4500    9.2900   17.9400 C.3   144  LYS144      0.1561
     70  C          1.9760    8.1050   18.7810 C.2   144  LYS144      0.2260
     71  O          2.2170    6.9510   18.4240 O.2   144  LYS144     -0.2867
     72  CB         3.9150    9.6020   18.2530 C.3   144  LYS144      0.0271
     73  CG         4.5740   10.5300   17.2510 C.3   144  LYS144      0.0035
     74  CD         6.0550   10.7140   17.5540 C.3   144  LYS144      0.0206
     75  CE         6.7030   11.6650   16.5580 C.3   144  LYS144      0.1093
     76  NZ         8.1710   11.7940   16.7750 N.3   144  LYS144     -0.1314
     77  N         -0.7810    5.7970   14.4850 N.3   149  PRO149     -0.2116
     78  CA        -0.4260    7.1750   14.8180 C.3   149  PRO149      0.1372
     79  C         -1.1200    8.1280   13.8590 C.2   149  PRO149      0.2244
     80  O         -1.2660    7.7980   12.6860 O.2   149  PRO149     -0.2868
     81  CB         1.0890    7.2120   14.5830 C.3   149  PRO149      0.0268
     82  CG         1.5260    5.8080   14.6270 C.3   149  PRO149      0.0207
     83  CD         0.3990    4.9930   14.1200 C.3   149  PRO149      0.0892
@<TRIPOS>BOND
     1    23    20    1
     2    23    24    1
     3    22    21    2
     4    20    21    1
     5    20    19    1
     6    21    25   am
     7    19    10   am
     8    11    10    2
     9    10     9    1
    10     8     9    1
    11    25    26    1
    12     9    12    1
    13    27    28    2
    14    27    26    1
    15     4     3    2
    16    26    29    1
    17     3     2    1
    18    12    13    1
    19     2     1    1
    20     2     5    1
    21    34    35    1
    22    37    36    2
    23    13    15   ar
    24    13    14   ar
    25    29    30    1
    26    15    17   ar
    27     6     5    1
    28    14    16   ar
    29    30    31    1
    30    17    18   ar
    31     5     7    1
    32    36    35    1
    33    36    43   am
    34    16    18   ar
    35    35    38    1
    36    54    53    2
    37    48    50    1
    38    48    47    1
    39    44    43    1
    40    44    47    1
    41    44    45    1
    42    51    45   am
    43    51    52    1
    44    31    33   ar
    45    31    32   ar
    46    38    39    1
    47    49    47    1
    48    55    56    1
    49    55    52    1
    50    53    52    1
    51    39    40    1
    52    45    46    2
    53    41    40   ar
    54    40    42   ar
    55    67    66   ar
    56    67    65   ar
    57    66    64   ar
    58    57    58    1
    59    80    79    2
    60    65    63   ar
    61    64    62   ar
    62    63    62   ar
    63    58    61    1
    64    58    59    1
    65    62    61    1
    66    79    78    1
    67    83    77    1
    68    83    82    1
    69    59    60    2
    70    77    78    1
    71    81    82    1
    72    81    78    1
    73    75    76    1
    74    75    74    1
    75    73    74    1
    76    73    72    1
    77    69    68    1
    78    69    72    1
    79    69    70    1
    80    71    70    2
