@<TRIPOS>MOLECULE
tmp/4q60A00.pdb
 88 82 0 0 0
SMALL
GASTEIGER

@<TRIPOS>ATOM
      1  N         -9.4850   -8.7080   29.7780 N.3    94  GLY94      -0.1210
      2  CA       -10.1480   -8.7570   31.0820 C.3    94  GLY94       0.1956
      3  C        -11.6040   -8.3740   31.0050 C.2    94  GLY94       0.2611
      4  O        -12.4890   -9.1300   31.4370 O.2    94  GLY94      -0.2717
      5  N        -11.8580   -7.1780   30.4860 N.am   95  HIS95      -0.1975
      6  CA       -13.2230   -6.6990   30.3780 C.3    95  HIS95       0.1656
      7  C        -13.9900   -7.5660   29.3780 C.2    95  HIS95       0.2291
      8  O        -15.1700   -7.8240   29.5620 O.2    95  HIS95      -0.2864
      9  CB       -13.2890   -5.1840   30.0640 C.3    95  HIS95       0.0771
     10  CG       -12.9520   -4.8140   28.6530 C.ar   95  HIS95       0.0820
     11  ND1      -13.8640   -4.8960   27.6220 N.ar   95  HIS95      -0.2267
     12  CD2      -11.8200   -4.3050   28.1100 C.ar   95  HIS95       0.1154
     13  CE1      -13.2990   -4.4850   26.5000 C.ar   95  HIS95       0.1986
     14  NE2      -12.0600   -4.1190   26.7690 N.ar   95  HIS95      -0.2212
     15  N        -15.3260  -10.6770   31.1360 N.3    98  ILE98      -0.1245
     16  CA       -16.5220  -10.3460   31.8880 C.3    98  ILE98       0.1561
     17  C        -17.7120  -10.4320   30.9440 C.2    98  ILE98       0.2260
     18  O        -18.7000  -11.0720   31.2600 O.2    98  ILE98      -0.2867
     19  CB       -16.4120   -8.9670   32.5520 C.3    98  ILE98       0.0252
     20  CG1      -15.4300   -9.0590   33.7390 C.3    98  ILE98       0.0019
     21  CG2      -17.7690   -8.4690   33.0420 C.3    98  ILE98       0.0019
     22  CD1      -15.0480   -7.7200   34.3210 C.3    98  ILE98       0.0001
     23  N        -12.8160  -11.7920   37.3020 N.3   136  VAL136     -0.1245
     24  CA       -11.9000  -12.4260   36.3550 C.3   136  VAL136      0.1561
     25  C        -10.4880  -12.3200   36.8590 C.2   136  VAL136      0.2260
     26  O        -10.0580  -11.2370   37.2520 O.2   136  VAL136     -0.2867
     27  CB       -11.9290  -11.7200   34.9840 C.3   136  VAL136      0.0252
     28  CG1      -10.9270  -12.3650   34.0230 C.3   136  VAL136      0.0019
     29  CG2      -13.3370  -11.7430   34.4180 C.3   136  VAL136      0.0019
     30  N         -6.9350  -11.9570   35.9500 N.3   138  ASN138     -0.1240
     31  CA        -6.2220  -11.4620   34.7820 C.3   138  ASN138      0.1653
     32  C         -4.7570  -11.9170   34.7260 C.2   138  ASN138      0.2266
     33  O         -4.2680  -12.6650   35.5850 O.2   138  ASN138     -0.2867
     34  CB        -6.3200   -9.9400   34.7190 C.3   138  ASN138      0.1155
     35  CG        -6.4470   -9.4110   33.2970 C.2   138  ASN138      0.2627
     36  OD1       -6.0270  -10.0420   32.3050 O.2   138  ASN138     -0.2716
     37  ND2       -7.0150   -8.2320   33.1910 N.am  138  ASN138     -0.0877
     38  N         -0.5820   -3.8130   32.6260 N.3   165  GLY165     -0.1225
     39  CA        -1.7060   -4.5940   33.0610 C.3   165  GLY165      0.1811
     40  C         -2.4890   -5.0580   31.8820 C.2   165  GLY165      0.2280
     41  O         -3.6120   -4.6540   31.7140 O.2   165  GLY165     -0.2866
     42  N         -8.6890   -0.5660   27.8040 N.3   239  GLY239     -0.1210
     43  CA        -8.7400   -1.2100   29.1280 C.3   239  GLY239      0.1956
     44  C         -9.2500   -0.2300   30.1790 C.2   239  GLY239      0.2613
     45  O         -9.3770    0.9670   29.9060 O.2   239  GLY239     -0.2717
     46  N         -9.5500   -0.7280   31.3770 N.am  240  THR240     -0.1938
     47  CA       -10.0440    0.1320   32.4690 C.3   240  THR240      0.2028
     48  C         -8.9070    0.5680   33.4080 C.2   240  THR240      0.2643
     49  O         -9.0890    1.4600   34.2440 O.2   240  THR240     -0.2714
     50  CB       -11.1810   -0.5420   33.2870 C.3   240  THR240      0.1808
     51  OG1      -10.6390   -1.4020   34.2960 O.3   240  THR240     -0.2208
     52  CG2      -12.1110   -1.3470   32.3880 C.3   240  THR240      0.0379
     53  N         -7.7480   -0.0790   33.2860 N.am  241  GLY241     -0.1939
     54  CA        -6.5440    0.3230   34.0160 C.3   241  GLY241      0.2014
     55  C         -6.4380   -0.1280   35.4730 C.2   241  GLY241      0.2640
     56  O         -5.5080    0.2710   36.1810 O.2   241  GLY241     -0.2714
     57  N         -7.3720   -0.9690   35.9120 N.am  242  THR242     -0.1936
     58  CA        -7.3970   -1.4750   37.2810 C.3   242  THR242      0.2028
     59  C         -6.1830   -2.3240   37.6490 C.2   242  THR242      0.2642
     60  O         -5.5870   -2.1050   38.6970 O.2   242  THR242     -0.2714
     61  CB        -8.6860   -2.2720   37.5540 C.3   242  THR242      0.1808
     62  OG1       -9.8170   -1.4830   37.1710 O.3   242  THR242     -0.2208
     63  CG2       -8.8130   -2.6150   39.0280 C.3   242  THR242      0.0379
     64  N         -5.8220   -3.2770   36.7940 N.am  243  SER243     -0.1949
     65  CA        -4.6670   -4.1670   37.0190 C.3   243  SER243      0.1924
     66  C         -3.3640   -3.4000   37.1690 C.2   243  SER243      0.2314
     67  O         -2.5560   -3.6790   38.0630 O.2   243  SER243     -0.2863
     68  CB        -4.4850   -5.1530   35.8390 C.3   243  SER243      0.2116
     69  OG        -5.5290   -6.1020   35.7780 O.3   243  SER243     -0.2180
     70  N        -15.4380   -1.0840   39.7360 N.3   271  PHE271     -0.1241
     71  CA       -14.6530   -2.3290   39.7490 C.3   271  PHE271      0.1605
     72  C        -14.1090   -2.6110   41.1480 C.2   271  PHE271      0.2264
     73  O        -13.6220   -1.7090   41.8190 O.2   271  PHE271     -0.2867
     74  CB       -13.5380   -2.2380   38.7190 C.3   271  PHE271      0.0534
     75  CG       -14.0590   -2.1190   37.3070 C.ar  271  PHE271     -0.0203
     76  CD1      -14.4110   -3.2560   36.5830 C.ar  271  PHE271     -0.0042
     77  CD2      -14.2830   -0.8740   36.7340 C.ar  271  PHE271     -0.0042
     78  CE1      -14.9390   -3.1520   35.2970 C.ar  271  PHE271     -0.0003
     79  CE2      -14.8100   -0.7630   35.4480 C.ar  271  PHE271     -0.0003
     80  CZ       -15.1390   -1.9010   34.7310 C.ar  271  PHE271     -0.0000
     81  N        -10.3500   -9.0950   39.0820 N.3   286  ILE286     -0.1245
     82  CA       -11.1660   -7.8890   38.9650 C.3   286  ILE286      0.1561
     83  C        -12.6440   -8.2560   38.7780 C.2   286  ILE286      0.2260
     84  O        -12.9890   -9.0210   37.8750 O.2   286  ILE286     -0.2867
     85  CB       -10.7330   -7.0370   37.7480 C.3   286  ILE286      0.0252
     86  CG1       -9.2110   -6.8700   37.6580 C.3   286  ILE286      0.0019
     87  CG2      -11.4490   -5.6950   37.7370 C.3   286  ILE286      0.0019
     88  CD1       -8.5730   -6.2030   38.8390 C.3   286  ILE286      0.0001
@<TRIPOS>BOND
     1    13    14   ar
     2    13    11   ar
     3    14    12   ar
     4    11    10   ar
     5    42    43    1
     6    12    10   ar
     7    10     9    1
     8    43    44    1
     9     7     8    2
    10     7     6    1
    11     1     2    1
    12    45    44    2
    13     9     6    1
    14    44    46   am
    15     6     5    1
    16     5     3   am
    17    17    18    2
    18    17    16    1
    19     3     2    1
    20     3     4    2
    21    15    16    1
    22    46    47    1
    23    41    40    2
    24    40    39    1
    25    16    19    1
    26    36    35    2
    27    52    50    1
    28    47    50    1
    29    47    48    1
    30    19    21    1
    31    19    20    1
    32    38    39    1
    33    37    35   am
    34    53    48   am
    35    53    54    1
    36    50    51    1
    37    35    34    1
    38    48    49    2
    39    20    22    1
    40    54    55    1
    41    28    27    1
    42    29    27    1
    43    34    31    1
    44    32    31    1
    45    32    33    2
    46    80    78   ar
    47    80    79   ar
    48    31    30    1
    49    27    24    1
    50    78    76   ar
    51    79    77   ar
    52    55    57   am
    53    55    56    2
    54    69    68    1
    55    68    65    1
    56    57    58    1
    57    24    25    1
    58    24    23    1
    59    76    75   ar
    60    77    75   ar
    61    64    65    1
    62    64    59   am
    63    25    26    2
    64    65    66    1
    65    66    67    2
    66    62    61    1
    67    58    61    1
    68    58    59    1
    69    75    74    1
    70    61    63    1
    71    59    60    2
    72    86    85    1
    73    86    88    1
    74    87    85    1
    75    85    82    1
    76    84    83    2
    77    74    71    1
    78    83    82    1
    79    82    81    1
    80    70    71    1
    81    71    72    1
    82    72    73    2
