@<TRIPOS>MOLECULE
tmp/4q66L00.pdb
 136 129 0 0 0
SMALL
GASTEIGER

@<TRIPOS>ATOM
      1  N        -20.7690   94.5780   94.0330 N.3     6  ASP6       -0.1225
      2  CA       -20.0610   94.3090   92.7870 C.3     6  ASP6        0.1805
      3  C        -20.8400   94.8370   91.5870 C.2     6  ASP6        0.2598
      4  O        -22.0650   94.7320   91.5360 O.2     6  ASP6       -0.2718
      5  CB       -19.7990   92.8100   92.6290 C.3     6  ASP6        0.1424
      6  CG       -21.0730   91.9880   92.6470 C.2     6  ASP6        0.3668
      7  OD1      -21.5430   91.6410   93.7510 O.co2   6  ASP6       -0.2456
      8  OD2      -21.6030   91.6860   91.5570 O.co2   6  ASP6       -0.2456
      9  N        -20.1220   95.4090   90.6270 N.am    7  GLY7       -0.1942
     10  CA       -20.7430   95.9530   89.4340 C.3     7  GLY7        0.2014
     11  C        -21.1020   97.4190   89.5760 C.2     7  GLY7        0.2638
     12  O        -21.6830   98.0150   88.6690 O.2     7  GLY7       -0.2714
     13  N        -20.7570   98.0040   90.7180 N.am    8  ALA8       -0.1977
     14  CA       -21.0320   99.4140   90.9670 C.3     8  ALA8        0.1597
     15  C        -19.8680  100.2870   90.5120 C.2     8  ALA8        0.2287
     16  O        -20.0690  101.3770   89.9750 O.2     8  ALA8       -0.2864
     17  CB       -21.3250   99.6440   92.4400 C.3     8  ALA8        0.0319
     18  N        -16.7670  100.9420   91.0840 N.3     9  LYS9       -0.1231
     19  CA       -15.7900  101.5130   92.0030 C.3     9  LYS9        0.1693
     20  C        -14.4510  101.7320   91.3120 C.2     9  LYS9        0.2593
     21  O        -13.8390  102.7920   91.4460 O.2     9  LYS9       -0.2718
     22  CB       -15.6090  100.6110   93.2240 C.3     9  LYS9        0.0285
     23  CG       -16.8820  100.3790   94.0200 C.3     9  LYS9        0.0035
     24  CD       -16.6220   99.5090   95.2390 C.3     9  LYS9        0.0206
     25  CE       -16.0850   98.1430   94.8450 C.3     9  LYS9        0.1093
     26  NZ       -17.0370   97.3930   93.9800 N.3     9  LYS9       -0.1314
     27  N        -13.9970  100.7240   90.5740 N.am   10  THR10      -0.1939
     28  CA       -12.7440  100.8260   89.8360 C.3    10  THR10       0.2028
     29  C        -12.8710  101.8270   88.6930 C.2    10  THR10       0.2642
     30  O        -11.8930  102.4650   88.3040 O.2    10  THR10      -0.2714
     31  CB       -12.3000   99.4600   89.2750 C.3    10  THR10       0.1808
     32  OG1      -13.3660   98.8820   88.5120 O.3    10  THR10      -0.2208
     33  CG2      -11.9250   98.5150   90.4060 C.3    10  THR10       0.0379
     34  N        -14.0810  101.9650   88.1600 N.am   11  THR11      -0.1950
     35  CA       -14.3360  102.9210   87.0900 C.3    11  THR11       0.1897
     36  C        -14.3300  104.3440   87.6410 C.2    11  THR11       0.2313
     37  O        -13.8920  105.2800   86.9710 O.2    11  THR11      -0.2863
     38  CB       -15.6810  102.6420   86.3880 C.3    11  THR11       0.1794
     39  OG1      -15.7480  101.2610   86.0100 O.3    11  THR11      -0.2208
     40  CG2      -15.8290  103.5080   85.1450 C.3    11  THR11       0.0378
     41  N        -11.4970  103.3090   81.5770 N.3    21  ILE21      -0.1245
     42  CA       -10.7610  102.1200   81.1630 C.3    21  ILE21       0.1561
     43  C        -11.6130  100.8600   81.2870 C.2    21  ILE21       0.2260
     44  O        -12.5980  100.8340   82.0260 O.2    21  ILE21      -0.2867
     45  CB        -9.4740  101.9350   81.9930 C.3    21  ILE21       0.0252
     46  CG1       -9.8150  101.6890   83.4640 C.3    21  ILE21       0.0019
     47  CG2       -8.5630  103.1450   81.8440 C.3    21  ILE21       0.0019
     48  CD1       -8.6060  101.4480   84.3420 C.3    21  ILE21       0.0001
     49  N        -12.4160   97.8390   82.8940 N.3    23  THR23      -0.1203
     50  CA       -12.1250   97.2440   84.1910 C.3    23  THR23       0.1994
     51  C        -12.5900   95.7960   84.2760 C.2    23  THR23       0.2618
     52  O        -13.4960   95.3750   83.5550 O.2    23  THR23      -0.2717
     53  CB       -12.7810   98.0440   85.3330 C.3    23  THR23       0.1784
     54  OG1      -14.2060   98.0090   85.1880 O.3    23  THR23      -0.2211
     55  CG2      -12.3070   99.4900   85.3090 C.3    23  THR23       0.0376
     56  N        -11.9540   95.0380   85.1630 N.am   24  ILE24      -0.1966
     57  CA       -12.3330   93.6550   85.4140 C.3    24  ILE24       0.1712
     58  C        -12.7180   93.4890   86.8810 C.2    24  ILE24       0.2458
     59  O        -12.2210   94.2220   87.7390 O.2    24  ILE24      -0.2730
     60  CB       -11.1910   92.6770   85.0570 C.3    24  ILE24       0.0289
     61  CG1       -9.9380   92.9880   85.8800 C.3    24  ILE24       0.0022
     62  CG2      -10.8830   92.7390   83.5690 C.3    24  ILE24       0.0023
     63  CD1       -8.7830   92.0500   85.6100 C.3    24  ILE24       0.0001
     64  N        -13.6250   92.5410   87.1720 N.am   25  PRO25      -0.2716
     65  CA       -14.0380   92.2600   88.5510 C.3    25  PRO25       0.1536
     66  C        -12.8530   91.9660   89.4690 C.2    25  PRO25       0.2599
     67  O        -12.1530   90.9730   89.2770 O.2    25  PRO25      -0.2715
     68  CB       -14.9320   91.0270   88.4020 C.3    25  PRO25       0.0310
     69  CG       -15.4920   91.1480   87.0280 C.3    25  PRO25       0.0237
     70  CD       -14.3940   91.7480   86.1960 C.3    25  PRO25       0.0939
     71  N        -12.6360   92.8340   90.4520 N.am   26  THR26      -0.1951
     72  CA       -11.5200   92.6880   91.3780 C.3    26  THR26       0.1897
     73  C        -11.7330   91.5130   92.3270 C.2    26  THR26       0.2313
     74  O        -12.6190   91.5450   93.1820 O.2    26  THR26      -0.2863
     75  CB       -11.3030   93.9700   92.2050 C.3    26  THR26       0.1794
     76  OG1      -11.0740   95.0780   91.3240 O.3    26  THR26      -0.2208
     77  CG2      -10.1120   93.8090   93.1360 C.3    26  THR26       0.0378
     78  N        -12.7500   95.1510   95.7940 N.3    27  GLY27      -0.1210
     79  CA       -13.6000   93.9970   95.5670 C.3    27  GLY27       0.1956
     80  C        -15.0170   94.2190   96.0590 C.2    27  GLY27       0.2612
     81  O        -15.2280   94.7090   97.1680 O.2    27  GLY27      -0.2717
     82  N        -15.9910   93.8560   95.2310 N.am   28  GLY28      -0.1942
     83  CA       -17.3890   94.0390   95.5740 C.3    28  GLY28       0.2014
     84  C        -18.1550   92.7340   95.6750 C.2    28  GLY28       0.2638
     85  O        -19.2860   92.7080   96.1600 O.2    28  GLY28      -0.2714
     86  N        -17.5380   91.6510   95.2100 N.am   29  LEU29      -0.1977
     87  CA       -18.1630   90.3320   95.2480 C.3    29  LEU29       0.1596
     88  C        -18.4280   89.8970   96.6850 C.2    29  LEU29       0.2287
     89  O        -17.7580   90.3560   97.6080 O.2    29  LEU29      -0.2864
     90  CB       -17.2820   89.3010   94.5370 C.3    29  LEU29       0.0297
     91  CG       -17.0220   89.5220   93.0440 C.3    29  LEU29       0.0022
     92  CD1      -16.0300   88.4970   92.5130 C.3    29  LEU29       0.0001
     93  CD2      -18.3200   89.4670   92.2560 C.3    29  LEU29       0.0001
     94  N        -24.2090  105.9930   91.4330 N.3    60  ASN60      -0.1225
     95  CA       -23.5970  105.8240   90.1190 C.3    60  ASN60       0.1785
     96  C        -24.5800  105.2840   89.0840 C.2    60  ASN60       0.2597
     97  O        -25.6850  104.8620   89.4270 O.2    60  ASN60      -0.2718
     98  CB       -22.3830  104.8970   90.2180 C.3    60  ASN60       0.1169
     99  CG       -21.4080  105.0870   89.0690 C.2    60  ASN60       0.2627
    100  OD1      -21.3310  106.1640   88.4780 O.2    60  ASN60      -0.2716
    101  ND2      -20.6610  104.0370   88.7470 N.am   60  ASN60      -0.0877
    102  N        -24.1620  105.3080   87.8200 N.am   61  LYS61      -0.1980
    103  CA       -24.9790  104.8550   86.6970 C.3    61  LYS61       0.1596
    104  C        -26.3060  105.6030   86.6330 C.2    61  LYS61       0.2287
    105  O        -27.3590  105.0030   86.4230 O.2    61  LYS61      -0.2864
    106  CB       -25.2260  103.3460   86.7810 C.3    61  LYS61       0.0298
    107  CG       -23.9620  102.5080   86.7030 C.3    61  LYS61       0.0038
    108  CD       -24.2790  101.0230   86.7620 C.3    61  LYS61       0.0206
    109  CE       -23.0150  100.1860   86.6610 C.3    61  LYS61       0.1093
    110  NZ       -23.3090   98.7280   86.7140 N.3    61  LYS61      -0.1314
    111  N        -26.9950  107.6860   84.3690 N.3    63  ASP63      -0.1239
    112  CA       -27.3220  107.7270   82.9500 C.3    63  ASP63       0.1674
    113  C        -28.1540  106.5150   82.5460 C.2    63  ASP63       0.2266
    114  O        -28.6410  106.4310   81.4190 O.2    63  ASP63      -0.2867
    115  CB       -26.0460  107.7960   82.1080 C.3    63  ASP63       0.1410
    116  CG       -25.1020  106.6410   82.3860 C.2    63  ASP63       0.3668
    117  OD1      -25.0640  106.1670   83.5400 O.co2  63  ASP63      -0.2456
    118  OD2      -24.3990  106.2060   81.4500 O.co2  63  ASP63      -0.2456
    119  N        -21.9060  109.7370   87.8690 N.3    76  CYS76      -0.1221
    120  CA       -21.7140  108.9750   86.6410 C.3    76  CYS76       0.1808
    121  C        -20.2270  108.8180   86.3420 C.2    76  CYS76       0.2601
    122  O        -19.5630  109.7700   85.9320 O.2    76  CYS76      -0.2717
    123  CB       -22.4230  109.6530   85.4680 C.3    76  CYS76       0.0970
    124  SG       -22.2880  108.7610   83.9030 S.3    76  CYS76      -0.0800
    125  N        -19.7120  107.6100   86.5510 N.am   77  ALA77      -0.1965
    126  CA       -18.2850  107.3400   86.4010 C.3    77  ALA77       0.1728
    127  C        -17.8150  107.4750   84.9550 C.2    77  ALA77       0.2616
    128  O        -16.6840  107.8900   84.7010 O.2    77  ALA77      -0.2715
    129  CB       -17.9600  105.9520   86.9290 C.3    77  ALA77       0.0334
    130  N        -18.6840  107.1240   84.0130 N.am   78  THR78      -0.1951
    131  CA       -18.3340  107.1700   82.5970 C.3    78  THR78       0.1897
    132  C        -18.1690  108.6040   82.0960 C.2    78  THR78       0.2313
    133  O        -17.1530  108.9430   81.4890 O.2    78  THR78      -0.2863
    134  CB       -19.3910  106.4570   81.7360 C.3    78  THR78       0.1794
    135  OG1      -20.6700  107.0700   81.9410 O.3    78  THR78      -0.2208
    136  CG2      -19.4730  104.9860   82.1070 C.3    78  THR78       0.0378
@<TRIPOS>BOND
     1    42    43    1
     2    42    41    1
     3    42    45    1
     4    43    44    2
     5   114   113    2
     6   118   116   ar
     7   133   132    2
     8   134   135    1
     9   134   136    1
    10   134   131    1
    11    47    45    1
    12    45    46    1
    13   132   131    1
    14   115   116    1
    15   115   112    1
    16   116   117   ar
    17   113   112    1
    18   131   130    1
    19    49    50    1
    20   112   111    1
    21    46    48    1
    22    52    51    2
    23    62    60    1
    24   124   123    1
    25   130   127   am
    26    50    51    1
    27    50    53    1
    28    51    56   am
    29   128   127    2
    30   127   126    1
    31    60    57    1
    32    60    61    1
    33    40    38    1
    34    56    57    1
    35    54    53    1
    36    55    53    1
    37    57    58    1
    38   123   120    1
    39    63    61    1
    40   122   121    2
    41    39    38    1
    42    70    69    1
    43    70    64    1
    44   121   125   am
    45   121   120    1
    46    38    35    1
    47   126   125    1
    48   126   129    1
    49   105   104    2
    50   104   103    1
    51   120   119    1
    52   109   110    1
    53   109   108    1
    54   103   106    1
    55   103   102    1
    56   107   108    1
    57   107   106    1
    58    58    64   am
    59    58    59    2
    60    37    36    2
    61    69    68    1
    62    35    36    1
    63    35    34    1
    64    64    65    1
    65   102    96   am
    66    34    29   am
    67    30    29    2
    68    68    65    1
    69   100    99    2
    70    32    31    1
    71    65    66    1
    72    12    11    2
    73    29    28    1
    74   101    99   am
    75    99    98    1
    76    96    97    2
    77    96    95    1
    78    31    28    1
    79    31    33    1
    80    67    66    2
    81    10    11    1
    82    10     9    1
    83    66    71   am
    84    11    13   am
    85    28    27    1
    86    16    15    2
    87    95    98    1
    88    95    94    1
    89    71    72    1
    90    15    14    1
    91    27    20   am
    92     9     3   am
    93    13    14    1
    94    14    17    1
    95    18    19    1
    96    20    21    2
    97    20    19    1
    98    76    75    1
    99    72    75    1
   100    72    73    1
   101     4     3    2
   102     8     6   ar
   103     3     2    1
   104    19    22    1
   105    75    77    1
   106    93    91    1
   107    73    74    2
   108    92    91    1
   109     5     6    1
   110     5     2    1
   111     6     7   ar
   112     2     1    1
   113    91    90    1
   114    22    23    1
   115    26    25    1
   116    23    24    1
   117    90    87    1
   118    25    24    1
   119    86    87    1
   120    86    84   am
   121    82    83    1
   122    82    80   am
   123    87    88    1
   124    79    78    1
   125    79    80    1
   126    83    84    1
   127    84    85    2
   128    80    81    2
   129    88    89    2
