@<TRIPOS>MOLECULE
tmp/4q68A00.pdb
 156 153 0 0 0
SMALL
GASTEIGER

@<TRIPOS>ATOM
      1  N         13.9810   -3.2230   21.6520 N.3    21  HIS21      -0.1226
      2  CA        12.5540   -3.5630   21.5650 C.3    21  HIS21       0.1752
      3  C         11.6160   -2.4080   21.9200 C.2    21  HIS21       0.2597
      4  O         10.4600   -2.6400   22.3020 O.2    21  HIS21      -0.2718
      5  CB        12.2120   -4.8010   22.4190 C.3    21  HIS21       0.0759
      6  CG        13.2480   -5.8820   22.3640 C.ar   21  HIS21       0.0818
      7  ND1       13.6500   -6.4680   21.1830 N.ar   21  HIS21      -0.2268
      8  CD2       13.9640   -6.4820   23.3440 C.ar   21  HIS21       0.1154
      9  CE1       14.5740   -7.3770   21.4360 C.ar   21  HIS21       0.1986
     10  NE2       14.7810   -7.4090   22.7410 N.ar   21  HIS21      -0.2212
     11  N         12.0790   -1.1720   21.7490 N.am   22  THR22      -0.1939
     12  CA        11.2550   -0.0190   22.0890 C.3    22  THR22       0.2028
     13  C          9.9950    0.1170   21.2290 C.2    22  THR22       0.2642
     14  O          9.0810    0.8360   21.6160 O.2    22  THR22      -0.2714
     15  CB        12.0230    1.3130   22.0360 C.3    22  THR22       0.1808
     16  OG1       12.5510    1.5250   20.7100 O.3    22  THR22      -0.2208
     17  CG2       13.1160    1.3680   23.0910 C.3    22  THR22       0.0379
     18  N          9.9330   -0.5560   20.0770 N.am   23  LEU23      -0.1963
     19  CA         8.7620   -0.4660   19.1940 C.3    23  LEU23       0.1728
     20  C          7.7450   -1.5950   19.4000 C.2    23  LEU23       0.2616
     21  O          6.7440   -1.6340   18.6870 O.2    23  LEU23      -0.2715
     22  CB         9.2130   -0.4350   17.7300 C.3    23  LEU23       0.0311
     23  CG        10.2700    0.6160   17.3800 C.3    23  LEU23       0.0022
     24  CD1       10.4740    0.6570   15.8760 C.3    23  LEU23       0.0001
     25  CD2        9.9250    2.0020   17.9020 C.3    23  LEU23       0.0001
     26  N          7.9910   -2.4970   20.3560 N.am   24  GLU24      -0.1977
     27  CA         7.2460   -3.7650   20.4080 C.3    24  GLU24       0.1602
     28  C          6.1370   -3.9150   21.4480 C.2    24  GLU24       0.2287
     29  O          5.8320   -5.0380   21.8830 O.2    24  GLU24      -0.2864
     30  CB         8.1940   -4.9490   20.5720 C.3    24  GLU24       0.0415
     31  CG         9.4120   -4.9410   19.6830 C.3    24  GLU24       0.1163
     32  CD         9.1250   -4.8400   18.1930 C.2    24  GLU24       0.3649
     33  OE1        7.9490   -4.9260   17.7730 O.co2  24  GLU24      -0.2457
     34  OE2       10.1030   -4.6460   17.4270 O.co2  24  GLU24      -0.2457
     35  N         17.6540    2.0530   19.6900 N.3    39  ASP39      -0.1225
     36  CA        18.5500    1.0250   19.1990 C.3    39  ASP39       0.1805
     37  C         19.2210    1.5280   17.9310 C.2    39  ASP39       0.2598
     38  O         19.0750    2.6810   17.5650 O.2    39  ASP39      -0.2718
     39  CB        17.8430   -0.3290   19.0680 C.3    39  ASP39       0.1424
     40  CG        16.7470   -0.3360   18.0340 C.2    39  ASP39       0.3668
     41  OD1       16.8900    0.3500   17.0040 O.co2  39  ASP39      -0.2456
     42  OD2       15.7440   -1.0620   18.2440 O.co2  39  ASP39      -0.2456
     43  N         20.0130    0.6960   17.2800 N.am   40  CYS40      -0.1956
     44  CA        20.8130    1.2250   16.1690 C.3    40  CYS40       0.1843
     45  C         19.9430    1.7260   15.0180 C.2    40  CYS40       0.2626
     46  O         20.3260    2.6860   14.3410 O.2    40  CYS40      -0.2714
     47  CB        21.8650    0.2290   15.6660 C.3    40  CYS40       0.0997
     48  SG        21.2290   -1.2540   14.8930 S.3    40  CYS40      -0.0797
     49  N         18.7900    1.0900   14.8110 N.am   41  THR41      -0.1936
     50  CA        17.9130    1.4380   13.7150 C.3    41  THR41       0.2028
     51  C         17.0070    2.6110   14.0900 C.2    41  THR41       0.2642
     52  O         16.8440    3.5420   13.3050 O.2    41  THR41      -0.2714
     53  CB        17.1470    0.1920   13.2440 C.3    41  THR41       0.1808
     54  OG1       18.0990   -0.7790   12.7860 O.3    41  THR41      -0.2208
     55  CG2       16.2120    0.5160   12.1010 C.3    41  THR41       0.0379
     56  N         16.4180    2.5860   15.2900 N.am   42  THR42      -0.1950
     57  CA        15.5700    3.7130   15.6440 C.3    42  THR42       0.1897
     58  C         16.3740    5.0100   15.7090 C.2    42  THR42       0.2313
     59  O         15.8570    6.0560   15.3400 O.2    42  THR42      -0.2863
     60  CB        14.7080    3.5270   16.9020 C.3    42  THR42       0.1794
     61  OG1       15.5170    3.5510   18.0770 O.3    42  THR42      -0.2208
     62  CG2       13.8880    2.2390   16.8640 C.3    42  THR42       0.0378
     63  N         16.5470    6.2590   12.1910 N.3    45  GLU45      -0.1245
     64  CA        15.2270    6.7190   11.7750 C.3    45  GLU45       0.1567
     65  C         14.8960    8.0850   12.3600 C.2    45  GLU45       0.2260
     66  O         14.4000    8.9570   11.6450 O.2    45  GLU45      -0.2867
     67  CB        14.1500    5.7030   12.1520 C.3    45  GLU45       0.0388
     68  CG        14.2760    4.4160   11.3760 C.3    45  GLU45       0.1160
     69  CD        13.1570    3.4360   11.6180 C.2    45  GLU45       0.3649
     70  OE1       12.7120    3.3220   12.7910 O.co2  45  GLU45      -0.2457
     71  OE2       12.7230    2.7890   10.6240 O.co2  45  GLU45      -0.2457
     72  N          2.0550   -5.1430   12.0110 N.3    78  TYR78      -0.1241
     73  CA         3.4680   -5.3780   12.2860 C.3    78  TYR78       0.1605
     74  C          4.2810   -5.5150   11.0030 C.2    78  TYR78       0.2264
     75  O          5.4160   -5.0390   10.9230 O.2    78  TYR78      -0.2867
     76  CB         3.5980   -6.6400   13.1120 C.3    78  TYR78       0.0534
     77  CG         5.0170   -7.0590   13.4440 C.ar   78  TYR78      -0.0201
     78  CD1        5.7720   -6.3640   14.3760 C.ar   78  TYR78      -0.0009
     79  CD2        5.5910   -8.1810   12.8490 C.ar   78  TYR78      -0.0009
     80  CE1        7.0560   -6.7830   14.7160 C.ar   78  TYR78       0.0417
     81  CE2        6.8630   -8.6120   13.1800 C.ar   78  TYR78       0.0417
     82  CZ         7.5920   -7.9090   14.1020 C.ar   78  TYR78       0.1957
     83  OH         8.8500   -8.3500   14.4170 O.3    78  TYR78      -0.2866
     84  N          5.8860   -2.4950    8.9600 N.3    81  ARG81      -0.1245
     85  CA         7.1400   -1.8910    9.4020 C.3    81  ARG81       0.1563
     86  C          8.2660   -2.4800    8.5630 C.2    81  ARG81       0.2260
     87  O          8.2760   -3.6760    8.2860 O.2    81  ARG81      -0.2867
     88  CB         7.3790   -2.1730   10.8870 C.3    81  ARG81       0.0307
     89  CG         8.2710   -1.1540   11.5450 C.3    81  ARG81       0.0489
     90  CD         8.8510   -1.6070   12.8540 C.3    81  ARG81       0.2205
     91  NE         7.8220   -2.0160   13.8060 N.pl3  81  ARG81      -0.0865
     92  CZ         8.0620   -2.7700   14.8690 C.cat  81  ARG81       0.5346
     93  NH1        9.2920   -3.1800   15.1420 N.pl3  81  ARG81       0.1354
     94  NH2        7.0620   -3.1280   15.6650 N.pl3  81  ARG81       0.1354
     95  N         11.1730   -3.9300    8.5430 N.3    83  HIS83      -0.1226
     96  CA        12.0960   -4.6640    9.4040 C.3    83  HIS83       0.1752
     97  C         13.4360   -4.9550    8.7430 C.2    83  HIS83       0.2596
     98  O         14.4700   -4.8910    9.3990 O.2    83  HIS83      -0.2718
     99  CB        11.4960   -6.0010    9.8150 C.3    83  HIS83       0.0759
    100  CG        10.2270   -5.8660   10.5770 C.ar   83  HIS83       0.0818
    101  ND1       10.1940   -5.3620   11.8510 N.ar   83  HIS83      -0.2268
    102  CD2        8.9470   -6.1240   10.2270 C.ar   83  HIS83       0.1154
    103  CE1        8.9420   -5.3530   12.2670 C.ar   83  HIS83       0.1986
    104  NE2        8.1640   -5.8020   11.3010 N.ar   83  HIS83      -0.2212
    105  N         13.4110   -5.3250    7.4690 N.am   84  TYR84      -0.1962
    106  CA        14.6370   -5.6500    6.7620 C.3    84  TYR84       0.1771
    107  C         15.2180   -4.3990    6.1290 C.2    84  TYR84       0.2619
    108  O         14.5150   -3.6670    5.4220 O.2    84  TYR84      -0.2715
    109  CB        14.3910   -6.7170    5.7100 C.3    84  TYR84       0.0574
    110  CG        14.0610   -8.0740    6.2570 C.ar   84  TYR84      -0.0198
    111  CD1       14.9990   -8.7990    6.9820 C.ar   84  TYR84      -0.0009
    112  CD2       12.8240   -8.6660    6.0170 C.ar   84  TYR84      -0.0009
    113  CE1       14.7150  -10.0650    7.4500 C.ar   84  TYR84       0.0417
    114  CE2       12.5410   -9.9430    6.4700 C.ar   84  TYR84       0.0417
    115  CZ        13.4960  -10.6440    7.1730 C.ar   84  TYR84       0.1957
    116  OH        13.2710  -11.9370    7.5860 O.3    84  TYR84      -0.2866
    117  N         16.5020   -4.1620    6.3510 N.am   85  ILE85      -0.1977
    118  CA        17.0940   -2.9310    5.8900 C.3    85  ILE85       0.1596
    119  C         17.1390   -2.8420    4.3650 C.2    85  ILE85       0.2287
    120  O         16.9800   -1.7580    3.8230 O.2    85  ILE85      -0.2864
    121  CB        18.4380   -2.6670    6.5900 C.3    85  ILE85       0.0276
    122  CG1       18.2220   -2.5990    8.1120 C.3    85  ILE85       0.0022
    123  CG2       19.0770   -1.3760    6.0720 C.3    85  ILE85       0.0022
    124  CD1       17.0840   -1.6740    8.5730 C.3    85  ILE85       0.0001
    125  N         15.2910  -14.5980    7.6290 N.3   115  TYR115     -0.1241
    126  CA        15.5530  -14.8660    9.0550 C.3   115  TYR115      0.1605
    127  C         14.2850  -14.8680    9.9010 C.2   115  TYR115      0.2264
    128  O         14.0970  -15.7370   10.7520 O.2   115  TYR115     -0.2867
    129  CB        16.5520  -13.8420    9.5900 C.3   115  TYR115      0.0534
    130  CG        17.0440  -14.1370   10.9680 C.ar  115  TYR115     -0.0201
    131  CD1       16.3530  -13.7030   12.0800 C.ar  115  TYR115     -0.0009
    132  CD2       18.2190  -14.8470   11.1650 C.ar  115  TYR115     -0.0009
    133  CE1       16.8080  -13.9760   13.3630 C.ar  115  TYR115      0.0417
    134  CE2       18.6820  -15.1330   12.4460 C.ar  115  TYR115      0.0417
    135  CZ        17.9660  -14.6970   13.5370 C.ar  115  TYR115      0.1957
    136  OH        18.4000  -14.9510   14.8220 O.3   115  TYR115     -0.2866
    137  N         10.2090  -13.3650   17.6730 N.3   122  TYR122     -0.1241
    138  CA         9.4480  -12.1300   17.4570 C.3   122  TYR122      0.1605
    139  C          8.0370  -12.3310   17.9540 C.2   122  TYR122      0.2264
    140  O          7.3110  -13.1860   17.4600 O.2   122  TYR122     -0.2867
    141  CB         9.4310  -11.7410   15.9770 C.3   122  TYR122      0.0534
    142  CG        10.8140  -11.7080   15.4170 C.ar  122  TYR122     -0.0201
    143  CD1       11.6100  -10.5830   15.5650 C.ar  122  TYR122     -0.0009
    144  CD2       11.3670  -12.8350   14.8260 C.ar  122  TYR122     -0.0009
    145  CE1       12.9080  -10.5680   15.0960 C.ar  122  TYR122      0.0417
    146  CE2       12.6540  -12.8290   14.3490 C.ar  122  TYR122      0.0417
    147  CZ        13.4230  -11.7000   14.4900 C.ar  122  TYR122      0.1957
    148  OH        14.7050  -11.6950   14.0280 O.3   122  TYR122     -0.2866
    149  N         19.8140  -13.0940    6.7470 N.3   177  LEU177     -0.1245
    150  CA        19.7640  -11.7090    7.1860 C.3   177  LEU177      0.1561
    151  C         20.7290  -10.8910    6.3630 C.2   177  LEU177      0.2260
    152  O         21.8680  -11.2790    6.1790 O.2   177  LEU177     -0.2867
    153  CB        20.1230  -11.6200    8.6700 C.3   177  LEU177      0.0270
    154  CG        19.9980  -10.2410    9.3000 C.3   177  LEU177      0.0019
    155  CD1       18.5750   -9.6960    9.2440 C.3   177  LEU177      0.0001
    156  CD2       20.5150  -10.2930   10.7250 C.3   177  LEU177      0.0001
@<TRIPOS>BOND
     1   120   119    2
     2   119   118    1
     3   108   107    2
     4   109   110    1
     5   109   106    1
     6   118   117    1
     7   118   121    1
     8   112   110   ar
     9   112   114   ar
    10   123   121    1
    11   107   117   am
    12   107   106    1
    13   152   151    2
    14   110   111   ar
    15   151   150    1
    16   114   115   ar
    17   121   122    1
    18   149   150    1
    19   106   105    1
    20   111   113   ar
    21   115   113   ar
    22   115   116    1
    23   150   153    1
    24   105    97   am
    25   125   126    1
    26   122   124    1
    27    87    86    2
    28    95    96    1
    29    86    85    1
    30   153   154    1
    31    97    98    2
    32    97    96    1
    33    84    85    1
    34   126   129    1
    35   126   127    1
    36   155   154    1
    37   154   156    1
    38    85    88    1
    39    96    99    1
    40   129   130    1
    41    99   100    1
    42   127   128    2
    43   102   100   ar
    44   102   104   ar
    45   100   101   ar
    46    71    69   ar
    47    88    89    1
    48    75    74    2
    49   130   132   ar
    50   130   131   ar
    51    74    73    1
    52   132   134   ar
    53   104   103   ar
    54    68    69    1
    55    68    67    1
    56    89    90    1
    57    69    70   ar
    58    66    65    2
    59    64    67    1
    60    64    63    1
    61    64    65    1
    62   101   103   ar
    63    72    73    1
    64   131   133   ar
    65    55    53    1
    66    73    76    1
    67   134   135   ar
    68    54    53    1
    69    79    81   ar
    70    79    77   ar
    71    90    91    1
    72    76    77    1
    73    81    82   ar
    74    53    50    1
    75    52    51    2
    76   133   135   ar
    77    77    78   ar
    78   135   136    1
    79    50    51    1
    80    50    49    1
    81    91    92    2
    82   148   147    1
    83    51    56   am
    84    82    83    1
    85    82    80   ar
    86    46    45    2
    87   146   147   ar
    88   146   144   ar
    89    78    80   ar
    90   147   145   ar
    91    49    45   am
    92   144   142   ar
    93    92    93    1
    94    92    94    1
    95    48    47    1
    96    45    44    1
    97   145   143   ar
    98    56    57    1
    99    59    58    2
   100   142   143   ar
   101   142   141    1
   102    57    58    1
   103    57    60    1
   104    47    44    1
   105    24    23    1
   106   141   138    1
   107    44    43    1
   108    62    60    1
   109    60    61    1
   110    41    40   ar
   111    43    37   am
   112    23    22    1
   113    23    25    1
   114    34    32   ar
   115   138   137    1
   116   138   139    1
   117   140   139    2
   118    38    37    2
   119    22    19    1
   120    33    32   ar
   121    37    36    1
   122    40    42   ar
   123    40    39    1
   124    32    31    1
   125    21    20    2
   126    39    36    1
   127    19    20    1
   128    19    18    1
   129    36    35    1
   130    20    26   am
   131    31    30    1
   132    18    13   am
   133    26    27    1
   134    27    30    1
   135    27    28    1
   136    16    15    1
   137     7     9   ar
   138     7     6   ar
   139    13    14    2
   140    13    12    1
   141     9    10   ar
   142    28    29    2
   143     2     1    1
   144     2     3    1
   145     2     5    1
   146    11     3   am
   147    11    12    1
   148     3     4    2
   149    15    12    1
   150    15    17    1
   151     6     5    1
   152     6     8   ar
   153    10     8   ar
