@<TRIPOS>MOLECULE
tmp/4q6bA00.pdb
 93 90 0 0 0
SMALL
GASTEIGER

@<TRIPOS>ATOM
      1  N         28.4880   -7.6500   13.4560 N.3    74  ARG74      -0.1231
      2  CA        27.6080   -6.6020   12.8950 C.3    74  ARG74       0.1694
      3  C         26.1700   -7.0860   12.9280 C.2    74  ARG74       0.2592
      4  O         25.2790   -6.4300   13.5130 O.2    74  ARG74      -0.2718
      5  CB        27.9730   -6.3250   11.4400 C.3    74  ARG74       0.0321
      6  CG        27.1900   -5.1480   10.8330 C.3    74  ARG74       0.0489
      7  CD        27.6650   -4.9000    9.3820 C.3    74  ARG74       0.2205
      8  NE        27.0220   -3.7640    8.7080 N.pl3  74  ARG74      -0.0865
      9  CZ        25.9830   -3.8690    7.8880 C.cat  74  ARG74       0.5346
     10  NH1       25.4790   -2.7780    7.3190 N.pl3  74  ARG74       0.1354
     11  NH2       25.4510   -5.0620    7.6470 N.pl3  74  ARG74       0.1354
     12  N         25.9350   -8.2640   12.3740 N.am   75  ASN75      -0.1960
     13  CA        24.5560   -8.7230   12.2010 C.3    75  ASN75       0.1819
     14  C         24.0840   -9.3910   13.4760 C.2    75  ASN75       0.2622
     15  O         24.8120  -10.2230   14.0390 O.2    75  ASN75      -0.2715
     16  CB        24.4670   -9.7810   11.0720 C.3    75  ASN75       0.1195
     17  CG        24.9360   -9.2330    9.7370 C.2    75  ASN75       0.2630
     18  OD1       26.1370   -9.2160    9.4710 O.2    75  ASN75      -0.2716
     19  ND2       24.0020   -8.7400    8.9150 N.am   75  ASN75      -0.0877
     20  N         22.8800   -9.0690   13.9300 N.am   76  SER76      -0.1936
     21  CA        22.3870   -9.7480   15.1420 C.3    76  SER76       0.2055
     22  C         22.2830  -11.2700   15.0250 C.2    76  SER76       0.2643
     23  O         22.4990  -11.9830   16.0130 O.2    76  SER76      -0.2714
     24  CB        21.0230   -9.1710   15.5630 C.3    76  SER76       0.2130
     25  OG        21.1430   -7.8220   15.9730 O.3    76  SER76      -0.2179
     26  N         21.9720  -11.8120   13.8410 N.am   77  PHE77      -0.1973
     27  CA        21.8750  -13.2790   13.7510 C.3    77  PHE77       0.1639
     28  C         23.2100  -13.9980   13.9120 C.2    77  PHE77       0.2290
     29  O         23.2440  -15.2280   14.1200 O.2    77  PHE77      -0.2864
     30  CB        21.1660  -13.7180   12.4750 C.3    77  PHE77       0.0560
     31  CG        22.0580  -13.6890   11.2470 C.ar   77  PHE77      -0.0200
     32  CD1       22.7060  -14.8370   10.8330 C.ar   77  PHE77      -0.0042
     33  CD2       22.2220  -12.5220   10.5150 C.ar   77  PHE77      -0.0042
     34  CE1       23.5240  -14.8450    9.7030 C.ar   77  PHE77      -0.0003
     35  CE2       23.0640  -12.5200    9.3690 C.ar   77  PHE77      -0.0003
     36  CZ        23.7040  -13.6850    8.9890 C.ar   77  PHE77      -0.0000
     37  N         27.0410   -2.7000   16.1630 N.3    96  ALA96      -0.1231
     38  CA        25.9400   -2.6620   15.2180 C.3    96  ALA96       0.1694
     39  C         24.6920   -3.5180   15.4590 C.2    96  ALA96       0.2593
     40  O         23.6710   -3.2720   14.8500 O.2    96  ALA96      -0.2718
     41  CB        26.4600   -2.8780   13.8130 C.3    96  ALA96       0.0304
     42  N         24.7770   -4.5220   16.3250 N.am   97  SER97      -0.1938
     43  CA        23.6740   -5.4620   16.4340 C.3    97  SER97       0.2055
     44  C         22.6060   -4.8960   17.3490 C.2    97  SER97       0.2644
     45  O         22.8350   -4.7470   18.5270 O.2    97  SER97      -0.2714
     46  CB        24.1620   -6.8130   16.9770 C.3    97  SER97       0.2130
     47  OG        25.0690   -7.4370   16.0940 O.3    97  SER97      -0.2179
     48  N         21.4260   -4.6470   16.7860 N.am   98  THR98      -0.1936
     49  CA        20.3680   -3.9330   17.4970 C.3    98  THR98       0.2028
     50  C         19.2230   -4.8090   17.9960 C.2    98  THR98       0.2642
     51  O         18.3380   -4.3010   18.6950 O.2    98  THR98      -0.2714
     52  CB        19.7470   -2.8430   16.5950 C.3    98  THR98       0.1808
     53  OG1       19.2890   -3.4670   15.3800 O.3    98  THR98      -0.2208
     54  CG2       20.7770   -1.7610   16.2740 C.3    98  THR98       0.0379
     55  N         19.2320   -6.1100   17.7240 N.am   99  SER99      -0.1949
     56  CA        18.1590   -6.9680   18.2380 C.3    99  SER99       0.1924
     57  C         18.0520   -6.9540   19.7640 C.2    99  SER99       0.2314
     58  O         19.0270   -7.1880   20.4780 O.2    99  SER99      -0.2863
     59  CB        18.3600   -8.4130   17.8100 C.3    99  SER99       0.2116
     60  OG        17.3450   -9.2610   18.4110 O.3    99  SER99      -0.2180
     61  N         14.5990   -4.3230    6.8740 N.3   195  THR195     -0.1218
     62  CA        15.9200   -3.7610    6.6450 C.3   195  THR195      0.1862
     63  C         16.0380   -3.2690    5.2080 C.2   195  THR195      0.2287
     64  O         15.2960   -3.6990    4.3500 O.2   195  THR195     -0.2866
     65  CB        17.0310   -4.7870    6.9010 C.3   195  THR195      0.1770
     66  OG1       16.9020   -5.8600    5.9710 O.3   195  THR195     -0.2211
     67  CG2       16.9250   -5.3300    8.2920 C.3   195  THR195      0.0375
     68  N         17.5690    1.5230   11.8370 N.3   220  ASN220     -0.1225
     69  CA        18.9740    1.8420   11.6220 C.3   220  ASN220      0.1785
     70  C         19.6950    1.2660   10.3950 C.2   220  ASN220      0.2597
     71  O         20.7760    1.7800   10.0290 O.2   220  ASN220     -0.2718
     72  CB        19.7930    1.5190   12.8820 C.3   220  ASN220      0.1169
     73  CG        20.5140    0.1980   12.7710 C.2   220  ASN220      0.2627
     74  OD1       19.8900   -0.8580   12.7560 O.2   220  ASN220     -0.2716
     75  ND2       21.8260    0.2500   12.6580 N.am  220  ASN220     -0.0877
     76  N         19.1700    0.1990    9.7770 N.am  221  SER221     -0.1952
     77  CA        19.8580   -0.3420    8.6070 C.3   221  SER221      0.1924
     78  C         19.7890    0.6330    7.4210 C.2   221  SER221      0.2314
     79  O         20.4760    0.4570    6.3990 O.2   221  SER221     -0.2863
     80  CB        19.2450   -1.6920    8.1970 C.3   221  SER221      0.2116
     81  OG        17.8570   -1.5350    8.0010 O.3   221  SER221     -0.2180
     82  N         28.8290    4.0650   11.6800 N.3   262  TYR262     -0.1241
     83  CA        29.6470    2.8960   12.0630 C.3   262  TYR262      0.1605
     84  C         31.0990    3.2320   12.4190 C.2   262  TYR262      0.2264
     85  O         31.6660    2.6350   13.3680 O.2   262  TYR262     -0.2867
     86  CB        29.6060    1.8360   10.9400 C.3   262  TYR262      0.0534
     87  CG        28.1760    1.4370   10.6610 C.ar  262  TYR262     -0.0201
     88  CD1       27.4470    0.7140   11.5850 C.ar  262  TYR262     -0.0009
     89  CD2       27.5300    1.9160    9.5210 C.ar  262  TYR262     -0.0009
     90  CE1       26.0970    0.3850   11.3350 C.ar  262  TYR262      0.0417
     91  CE2       26.2090    1.6100    9.2700 C.ar  262  TYR262      0.0417
     92  CZ        25.4960    0.8460   10.1790 C.ar  262  TYR262      0.1957
     93  OH        24.1680    0.5620    9.8990 O.3   262  TYR262     -0.2866
@<TRIPOS>BOND
     1    64    63    2
     2    63    62    1
     3    66    65    1
     4    79    78    2
     5    62    61    1
     6    62    65    1
     7    65    67    1
     8    10     9    1
     9    78    77    1
    10    11     9    1
    11     9     8    2
    12    81    80    1
    13    80    77    1
    14    77    76    1
    15     8     7    1
    16    19    17   am
    17    36    35   ar
    18    36    34   ar
    19    91    89   ar
    20    91    92   ar
    21    35    33   ar
    22     7     6    1
    23    18    17    2
    24    89    87   ar
    25    34    32   ar
    26    17    16    1
    27    76    70   am
    28    93    92    1
    29    71    70    2
    30    92    90   ar
    31    70    69    1
    32    33    31   ar
    33    87    86    1
    34    87    88   ar
    35    32    31   ar
    36     6     5    1
    37    86    83    1
    38    16    13    1
    39    31    30    1
    40    90    88   ar
    41     5     2    1
    42    69    68    1
    43    69    72    1
    44    82    83    1
    45    83    84    1
    46    13    12    1
    47    13    14    1
    48    12     3   am
    49    84    85    2
    50    30    27    1
    51    75    73   am
    52    74    73    2
    53    73    72    1
    54     2     3    1
    55     2     1    1
    56     3     4    2
    57    14    20   am
    58    14    15    2
    59    27    26    1
    60    27    28    1
    61    41    38    1
    62    26    22   am
    63    28    29    2
    64    20    21    1
    65    40    39    2
    66    22    21    1
    67    22    23    2
    68    21    24    1
    69    38    39    1
    70    38    37    1
    71    53    52    1
    72    39    42   am
    73    24    25    1
    74    47    46    1
    75    54    52    1
    76    42    43    1
    77    43    46    1
    78    43    44    1
    79    52    49    1
    80    48    44   am
    81    48    49    1
    82    44    45    2
    83    49    50    1
    84    55    50   am
    85    55    56    1
    86    59    56    1
    87    59    60    1
    88    50    51    2
    89    56    57    1
    90    57    58    2
