@<TRIPOS>MOLECULE
tmp/4q6dA01.pdb
 143 140 0 0 0
SMALL
GASTEIGER

@<TRIPOS>ATOM
      1  N         -0.7430   -2.2300    6.3670 N.3    61  HIS61      -0.1241
      2  CA        -0.8110   -2.9490    7.6620 C.3    61  HIS61       0.1621
      3  C         -2.2740   -3.5350    7.8170 C.2    61  HIS61       0.2264
      4  O         -2.3900   -4.5910    8.4380 O.2    61  HIS61      -0.2867
      5  CB        -0.3510   -2.2480    8.9270 C.3    61  HIS61       0.0745
      6  CG        -0.7670   -0.8360    9.1140 C.ar   61  HIS61       0.0817
      7  ND1       -0.0660    0.1760    8.6310 N.ar   61  HIS61      -0.2268
      8  CD2       -1.7450   -0.2840    9.9190 C.ar   61  HIS61       0.1154
      9  CE1       -0.6240    1.3210    9.0280 C.ar   61  HIS61       0.1986
     10  NE2       -1.6240    1.0380    9.8210 N.ar   61  HIS61      -0.2212
     11  N        -12.6160    6.1080   11.1780 N.3    89  GLN89      -0.1245
     12  CA       -12.2930    4.9560   10.3380 C.3    89  GLN89       0.1566
     13  C        -12.5660    3.6960   11.1050 C.2    89  GLN89       0.2260
     14  O        -12.6120    3.7130   12.3350 O.2    89  GLN89      -0.2867
     15  CB       -10.8480    4.9820    9.8380 C.3    89  GLN89       0.0367
     16  CG        -9.7780    5.0860   10.9540 C.3    89  GLN89       0.0905
     17  CD        -9.0850    3.7790   11.2590 C.2    89  GLN89       0.2608
     18  OE1       -9.6400    2.6710   11.1320 O.2    89  GLN89      -0.2717
     19  NE2       -7.8280    3.8560   11.7540 N.am   89  GLN89      -0.0878
     20  N        -11.1630   -0.5960   10.8590 N.3    91  HIS91      -0.1241
     21  CA       -10.2810   -1.5630   10.2630 C.3    91  HIS91       0.1621
     22  C        -10.3620   -2.8340   11.0770 C.2    91  HIS91       0.2264
     23  O        -10.9710   -2.8520   12.1440 O.2    91  HIS91      -0.2867
     24  CB        -8.8450   -1.0680   10.1920 C.3    91  HIS91       0.0745
     25  CG        -8.3110   -0.7760   11.5310 C.ar   91  HIS91       0.0817
     26  ND1       -8.4970    0.4100   12.1860 N.ar   91  HIS91      -0.2268
     27  CD2       -7.6340   -1.5960   12.4250 C.ar   91  HIS91       0.1154
     28  CE1       -7.9750    0.3140   13.4270 C.ar   91  HIS91       0.1986
     29  NE2       -7.4620   -0.9160   13.6030 N.ar   91  HIS91      -0.2212
     30  N         -8.0160   -6.5490   12.3920 N.3    93  HIS93      -0.1241
     31  CA        -6.8260   -7.3630   12.5570 C.3    93  HIS93       0.1621
     32  C         -7.2300   -8.7880   12.4340 C.2    93  HIS93       0.2264
     33  O         -8.3160   -9.1470   12.9600 O.2    93  HIS93      -0.2867
     34  CB        -6.1630   -7.0940   13.9300 C.3    93  HIS93       0.0745
     35  CG        -5.8710   -5.6660   14.1740 C.ar   93  HIS93       0.0817
     36  ND1       -4.6410   -5.0860   13.9780 N.ar   93  HIS93      -0.2268
     37  CD2       -6.6530   -4.6430   14.6060 C.ar   93  HIS93       0.1154
     38  CE1       -4.7110   -3.7950   14.2860 C.ar   93  HIS93       0.1986
     39  NE2       -5.9390   -3.4800   14.6440 N.ar   93  HIS93      -0.2212
     40  N        -11.9720   -2.7560   14.7950 N.3   116  HIS116     -0.1241
     41  CA       -11.7360   -1.5400   15.5370 C.3   116  HIS116      0.1621
     42  C        -12.4210   -0.3770   14.8770 C.2   116  HIS116      0.2264
     43  O        -12.0410   -0.0110   13.7430 O.2   116  HIS116     -0.2867
     44  CB       -10.2410   -1.2480   15.6430 C.3   116  HIS116      0.0745
     45  CG        -9.5140   -2.2220   16.5190 C.ar  116  HIS116      0.0817
     46  ND1       -8.1580   -2.3920   16.4880 N.ar  116  HIS116     -0.2268
     47  CD2      -10.0520   -3.0520   17.4640 C.ar  116  HIS116      0.1154
     48  CE1       -7.8870   -3.3320   17.4040 C.ar  116  HIS116      0.1986
     49  NE2       -9.0010   -3.7350   18.0240 N.ar  116  HIS116     -0.2212
     50  N        -12.7970    3.4490   15.1660 N.3   118  VAL118     -0.1245
     51  CA       -11.9370    4.4500   15.7760 C.3   118  VAL118      0.1561
     52  C        -12.6290    5.8050   15.8130 C.2   118  VAL118      0.2260
     53  O        -13.0800    6.2930   14.7530 O.2   118  VAL118     -0.2867
     54  CB       -10.6170    4.5460   14.9630 C.3   118  VAL118      0.0252
     55  CG1       -9.6860    5.6070   15.5850 C.3   118  VAL118      0.0019
     56  CG2       -9.9640    3.1940   14.8280 C.3   118  VAL118      0.0019
     57  N         -8.5750   14.6980   14.6610 N.3   127  PHE127     -0.1227
     58  CA        -7.9640   13.4480   15.0470 C.3   127  PHE127      0.1736
     59  C         -6.4780   13.6410   15.4210 C.2   127  PHE127      0.2596
     60  O         -5.9540   13.0510   16.3980 O.2   127  PHE127     -0.2718
     61  CB        -8.0670   12.4660   13.9100 C.3   127  PHE127      0.0547
     62  CG        -7.4420   11.1590   14.1590 C.ar  127  PHE127     -0.0202
     63  CD1       -8.0570   10.1740   14.8740 C.ar  127  PHE127     -0.0042
     64  CD2       -6.1380   10.9410   13.8320 C.ar  127  PHE127     -0.0042
     65  CE1       -7.4840    8.9610   15.0890 C.ar  127  PHE127     -0.0003
     66  CE2       -5.5190    9.7430   14.0330 C.ar  127  PHE127     -0.0003
     67  CZ        -6.2530    8.7500   14.6590 C.ar  127  PHE127     -0.0000
     68  N         -5.7300   14.4310   14.6090 N.am  128  GLY128     -0.1957
     69  CA        -4.2880   14.5550   14.8650 C.3   128  GLY128      0.1869
     70  C         -3.9810   15.2100   16.2140 C.2   128  GLY128      0.2309
     71  O         -2.9580   14.8930   16.8500 O.2   128  GLY128     -0.2863
     72  N         -4.9780   12.4590   19.2000 N.3   131  VAL131     -0.1245
     73  CA        -4.0730   11.3660   19.5450 C.3   131  VAL131      0.1561
     74  C         -2.9600   11.8040   20.4630 C.2   131  VAL131      0.2260
     75  O         -2.2500   10.9090   21.0150 O.2   131  VAL131     -0.2867
     76  CB        -3.4540   10.6910   18.3400 C.3   131  VAL131      0.0252
     77  CG1       -4.4810    9.9830   17.5000 C.3   131  VAL131      0.0019
     78  CG2       -2.5510   11.5740   17.5100 C.3   131  VAL131      0.0019
     79  N        -11.8840    3.6320   21.0210 N.3   139  VAL139     -0.1245
     80  CA       -11.9230    2.5620   20.0360 C.3   139  VAL139      0.1561
     81  C        -12.8630    1.5280   20.5160 C.2   139  VAL139      0.2260
     82  O        -12.7160    1.0090   21.6360 O.2   139  VAL139     -0.2867
     83  CB       -10.5010    2.0250   19.6500 C.3   139  VAL139      0.0252
     84  CG1      -10.6750    0.9820   18.5450 C.3   139  VAL139      0.0019
     85  CG2       -9.6030    3.1510   19.2050 C.3   139  VAL139      0.0019
     86  N         -2.9510    3.0330   21.1330 N.3   194  LEU194     -0.1231
     87  CA        -2.9680    2.5050   19.7750 C.3   194  LEU194      0.1693
     88  C         -2.2350    1.1830   19.7840 C.2   194  LEU194      0.2593
     89  O         -1.2000    1.0220   20.4740 O.2   194  LEU194     -0.2718
     90  CB        -2.2350    3.4410   18.8060 C.3   194  LEU194      0.0284
     91  CG        -2.7130    4.8920   18.7770 C.3   194  LEU194      0.0019
     92  CD1       -1.8790    5.6760   17.7430 C.3   194  LEU194      0.0001
     93  CD2       -4.1660    5.0040   18.4630 C.3   194  LEU194      0.0001
     94  N         -2.6670    0.2160   18.9650 N.am  195  THR195     -0.1939
     95  CA        -2.0100   -1.0680   18.8910 C.3   195  THR195      0.2028
     96  C         -0.9950   -1.1700   17.7330 C.2   195  THR195      0.2643
     97  O         -0.4030   -2.2600   17.5670 O.2   195  THR195     -0.2714
     98  CB        -3.0100   -2.2160   18.7970 C.3   195  THR195      0.1808
     99  OG1       -3.6150   -2.1810   17.5210 O.3   195  THR195     -0.2208
    100  CG2       -4.0380   -2.2190   19.9440 C.3   195  THR195      0.0379
    101  N         -0.8280   -0.1250   16.9750 N.am  196  THR196     -0.1937
    102  CA         0.2100   -0.0110   15.9590 C.3   196  THR196      0.2013
    103  C          1.0150    1.2240   16.2560 C.2   196  THR196      0.2484
    104  O          0.5490    2.1820   16.8360 O.2   196  THR196     -0.2729
    105  CB        -0.3490    0.0510   14.5240 C.3   196  THR196      0.1807
    106  OG1       -1.4040    1.0320   14.4470 O.3   196  THR196     -0.2208
    107  CG2       -0.9300   -1.2710   14.1270 C.3   196  THR196      0.0379
    108  N          2.3130    1.2180   15.8180 N.am  197  PRO197     -0.2715
    109  CA         3.1120    2.4320   15.9030 C.3   197  PRO197      0.1521
    110  C          2.3270    3.6050   15.3760 C.2   197  PRO197      0.2440
    111  O          1.7270    3.5090   14.2860 O.2   197  PRO197     -0.2731
    112  CB         4.3440    2.0560   15.0590 C.3   197  PRO197      0.0310
    113  CG         4.4890    0.6080   15.3080 C.3   197  PRO197      0.0237
    114  CD         3.0820    0.0940   15.2280 C.3   197  PRO197      0.0939
    115  N          2.3510    4.7410   16.0520 N.am  198  PRO198     -0.2727
    116  CA         3.2620    5.1270   17.1610 C.3   198  PRO198      0.1402
    117  C          2.8360    4.6970   18.5800 C.2   198  PRO198      0.2269
    118  O          3.5040    5.1390   19.5400 O.2   198  PRO198     -0.2865
    119  CB         3.2970    6.6660   17.0420 C.3   198  PRO198      0.0296
    120  CG         1.9030    6.9980   16.5340 C.3   198  PRO198      0.0237
    121  CD         1.6160    5.9220   15.5130 C.3   198  PRO198      0.0939
    122  N          0.5770    5.3620   20.6910 N.3   200  LEU200     -0.1245
    123  CA         0.2960    6.4750   21.5910 C.3   200  LEU200      0.1561
    124  C         -0.7320    6.0620   22.6070 C.2   200  LEU200      0.2260
    125  O         -1.7190    5.3440   22.3370 O.2   200  LEU200     -0.2867
    126  CB        -0.2160    7.6860   20.8020 C.3   200  LEU200      0.0270
    127  CG         0.8200    8.2700   19.8410 C.3   200  LEU200      0.0019
    128  CD1        0.1600    9.2830   18.9120 C.3   200  LEU200      0.0001
    129  CD2        2.0460    8.8560   20.6140 C.3   200  LEU200      0.0001
    130  N        -10.4420    2.1470   25.5700 N.3   205  TRP205     -0.1241
    131  CA       -10.8740    0.9590   24.8840 C.3   205  TRP205      0.1605
    132  C        -12.2550    0.5330   25.3960 C.2   205  TRP205      0.2264
    133  O        -12.4740    0.4890   26.6120 O.2   205  TRP205     -0.2867
    134  CB        -9.8530   -0.1870   25.0860 C.3   205  TRP205      0.0550
    135  CG        -8.7460   -0.0840   24.1070 C.ar  205  TRP205      0.0003
    136  CD1       -7.5050    0.5090   24.2690 C.ar  205  TRP205      0.0946
    137  CD2       -8.8290   -0.4750   22.7360 C.ar  205  TRP205      0.0152
    138  NE1       -6.8400    0.4930   23.0870 N.ar  205  TRP205     -0.2442
    139  CE2       -7.5680   -0.1040   22.1180 C.ar  205  TRP205      0.0810
    140  CE3       -9.7850   -1.1260   21.9610 C.ar  205  TRP205      0.0012
    141  CZ2       -7.2980   -0.3440   20.7700 C.ar  205  TRP205      0.0191
    142  CZ3       -9.5100   -1.3920   20.6440 C.ar  205  TRP205      0.0001
    143  CH2       -8.3020   -0.9960   20.0570 C.ar  205  TRP205      0.0015
@<TRIPOS>BOND
     1     1     2    1
     2     2     3    1
     3     2     5    1
     4     3     4    2
     5     7     9   ar
     6     7     6   ar
     7     5     6    1
     8     9    10   ar
     9     6     8   ar
    10    10     8   ar
    11    15    12    1
    12    15    16    1
    13    24    21    1
    14    24    25    1
    15    21    20    1
    16    21    22    1
    17    12    13    1
    18    12    11    1
    19    16    17    1
    20    22    23    2
    21    13    14    2
    22    18    17    2
    23    17    19   am
    24    25    26   ar
    25    25    27   ar
    26    26    28   ar
    27    30    31    1
    28    27    29   ar
    29    32    31    1
    30    32    33    2
    31    31    34    1
    32    28    29   ar
    33    43    42    2
    34    64    66   ar
    35    64    62   ar
    36    61    62    1
    37    61    58    1
    38    34    35    1
    39    36    35   ar
    40    36    38   ar
    41    66    67   ar
    42   107   105    1
    43    62    63   ar
    44    35    37   ar
    45    38    39   ar
    46   111   110    2
    47   106   105    1
    48   105   102    1
    49    37    39   ar
    50    68    69    1
    51    68    59   am
    52    67    65   ar
    53    57    58    1
    54    53    52    2
    55    40    41    1
    56    56    54    1
    57    69    70    1
    58    63    65   ar
    59    42    41    1
    60    54    55    1
    61    54    51    1
    62    58    59    1
    63   112   113    1
    64   112   109    1
    65    50    51    1
    66   114   113    1
    67   114   108    1
    68   110   109    1
    69   110   115   am
    70    59    60    2
    71   121   115    1
    72   121   120    1
    73    41    44    1
    74    44    45    1
    75    51    52    1
    76   108   109    1
    77   108   103   am
    78   102   103    1
    79   102   101    1
    80   115   116    1
    81    70    71    2
    82   103   104    2
    83    46    45   ar
    84    46    48   ar
    85    45    47   ar
    86   120   119    1
    87   101    96   am
    88   119   116    1
    89   116   117    1
    90    48    49   ar
    91    47    49   ar
    92    77    76    1
    93    78    76    1
    94    99    98    1
    95    97    96    2
    96    96    95    1
    97    92    91    1
    98    76    73    1
    99    93    91    1
   100    84    83    1
   101   117   118    2
   102    91    90    1
   103    98    95    1
   104    98   100    1
   105    90    87    1
   106    95    94    1
   107   128   127    1
   108    94    88   am
   109    72    73    1
   110    85    83    1
   111    73    74    1
   112    83    80    1
   113    87    88    1
   114    87    86    1
   115    88    89    2
   116   127   129    1
   117   127   126    1
   118    80    81    1
   119    80    79    1
   120   143   142   ar
   121   143   141   ar
   122    74    75    2
   123    81    82    2
   124   142   140   ar
   125   122   123    1
   126   141   139   ar
   127   126   123    1
   128   123   124    1
   129   140   137   ar
   130   139   137   ar
   131   139   138   ar
   132   125   124    2
   133   137   135   ar
   134   138   136   ar
   135   135   136   ar
   136   135   134    1
   137   131   134    1
   138   131   132    1
   139   131   130    1
   140   132   133    2
