@<TRIPOS>MOLECULE
tmp/4q6eA01.pdb
 143 140 0 0 0
SMALL
GASTEIGER

@<TRIPOS>ATOM
      1  N         -0.7500   -2.2850    6.3040 N.3    61  HIS61      -0.1241
      2  CA        -0.8790   -3.0140    7.6060 C.3    61  HIS61       0.1621
      3  C         -2.2810   -3.5930    7.7680 C.2    61  HIS61       0.2264
      4  O         -2.4070   -4.6430    8.3910 O.2    61  HIS61      -0.2867
      5  CB        -0.4620   -2.2360    8.8490 C.3    61  HIS61       0.0745
      6  CG        -0.8360   -0.8180    9.0490 C.ar   61  HIS61       0.0817
      7  ND1       -1.8790   -0.3380    9.9680 N.ar   61  HIS61      -0.2268
      8  CD2       -0.1530    0.3000    8.6040 C.ar   61  HIS61       0.1154
      9  CE1       -1.8180    1.0190    9.9340 C.ar   61  HIS61       0.1986
     10  NE2       -0.7810    1.4020    9.1270 N.ar   61  HIS61      -0.2212
     11  N        -12.6130    6.1280   11.2060 N.3    89  GLN89      -0.1245
     12  CA       -12.2840    4.9670   10.3470 C.3    89  GLN89       0.1566
     13  C        -12.5730    3.7330   11.1090 C.2    89  GLN89       0.2260
     14  O        -12.6080    3.7410   12.3570 O.2    89  GLN89      -0.2867
     15  CB       -10.8340    4.9920    9.8450 C.3    89  GLN89       0.0367
     16  CG        -9.7700    5.1240   10.9770 C.3    89  GLN89       0.0905
     17  CD        -9.0740    3.8450   11.3180 C.2    89  GLN89       0.2608
     18  OE1       -9.6160    2.7170   11.1600 O.2    89  GLN89      -0.2717
     19  NE2       -7.8370    3.9550   11.8140 N.am   89  GLN89      -0.0878
     20  N        -11.1810   -0.5760   10.8840 N.3    91  HIS91      -0.1241
     21  CA       -10.3120   -1.5530   10.2790 C.3    91  HIS91       0.1621
     22  C        -10.3860   -2.8280   11.1230 C.2    91  HIS91       0.2264
     23  O        -11.0160   -2.8600   12.1680 O.2    91  HIS91      -0.2867
     24  CB        -8.8700   -1.0560   10.2060 C.3    91  HIS91       0.0745
     25  CG        -8.3440   -0.7580   11.5760 C.ar   91  HIS91       0.0817
     26  ND1       -8.5080    0.4270   12.2150 N.ar   91  HIS91      -0.2268
     27  CD2       -7.7090   -1.5870   12.4780 C.ar   91  HIS91       0.1154
     28  CE1       -8.0010    0.3330   13.4640 C.ar   91  HIS91       0.1986
     29  NE2       -7.5500   -0.9170   13.6430 N.ar   91  HIS91      -0.2212
     30  N         -8.0680   -6.5630   12.4100 N.3    93  HIS93      -0.1241
     31  CA        -6.8650   -7.3480   12.5930 C.3    93  HIS93       0.1621
     32  C         -7.2920   -8.8170   12.4690 C.2    93  HIS93       0.2264
     33  O         -8.3680   -9.1510   12.9830 O.2    93  HIS93      -0.2867
     34  CB        -6.2150   -7.1160   13.9730 C.3    93  HIS93       0.0745
     35  CG        -5.9440   -5.6780   14.2390 C.ar   93  HIS93       0.0817
     36  ND1       -4.6980   -5.1360   14.0720 N.ar   93  HIS93      -0.2268
     37  CD2       -6.7310   -4.6410   14.6420 C.ar   93  HIS93       0.1154
     38  CE1       -4.7480   -3.8250   14.3470 C.ar   93  HIS93       0.1986
     39  NE2       -5.9880   -3.5030   14.6900 N.ar   93  HIS93      -0.2212
     40  N        -12.0270   -2.7420   14.8290 N.3   116  HIS116     -0.1241
     41  CA       -11.7950   -1.5380   15.5750 C.3   116  HIS116      0.1621
     42  C        -12.4700   -0.3740   14.9020 C.2   116  HIS116      0.2264
     43  O        -12.0840   -0.0060   13.7800 O.2   116  HIS116     -0.2867
     44  CB       -10.2990   -1.2530   15.6910 C.3   116  HIS116      0.0745
     45  CG        -9.5670   -2.2240   16.5570 C.ar  116  HIS116      0.0817
     46  ND1       -8.2220   -2.4290   16.5460 N.ar  116  HIS116     -0.2268
     47  CD2      -10.1210   -3.0600   17.5120 C.ar  116  HIS116      0.1154
     48  CE1       -7.9530   -3.3690   17.4380 C.ar  116  HIS116      0.1986
     49  NE2       -9.0630   -3.7430   18.0690 N.ar  116  HIS116     -0.2212
     50  N        -12.8060    3.4550   15.2000 N.3   118  VAL118     -0.1245
     51  CA       -11.9440    4.4700   15.8110 C.3   118  VAL118      0.1561
     52  C        -12.6360    5.8130   15.8360 C.2   118  VAL118      0.2260
     53  O        -13.0650    6.3090   14.7800 O.2   118  VAL118     -0.2867
     54  CB       -10.6400    4.5740   15.0170 C.3   118  VAL118      0.0252
     55  CG1       -9.6880    5.6120   15.6370 C.3   118  VAL118      0.0019
     56  CG2       -9.9670    3.1830   14.8900 C.3   118  VAL118      0.0019
     57  N         -8.4750   14.6810   14.7360 N.3   127  PHE127     -0.1227
     58  CA        -7.8270   13.4230   15.1770 C.3   127  PHE127      0.1736
     59  C         -6.3820   13.6380   15.5800 C.2   127  PHE127      0.2596
     60  O         -5.9060   13.0570   16.5510 O.2   127  PHE127     -0.2718
     61  CB        -7.9350   12.4540   14.0130 C.3   127  PHE127      0.0547
     62  CG        -7.2920   11.1350   14.2580 C.ar  127  PHE127     -0.0202
     63  CD1       -7.9650   10.1180   14.9310 C.ar  127  PHE127     -0.0042
     64  CD2       -6.0050   10.8900   13.8610 C.ar  127  PHE127     -0.0042
     65  CE1       -7.3560    8.9150   15.2080 C.ar  127  PHE127     -0.0003
     66  CE2       -5.4080    9.6600   14.1110 C.ar  127  PHE127     -0.0003
     67  CZ        -6.1020    8.6660   14.7990 C.ar  127  PHE127     -0.0000
     68  N         -5.6380   14.4300   14.7850 N.am  128  GLY128     -0.1957
     69  CA        -4.2720   14.5620   15.0620 C.3   128  GLY128      0.1869
     70  C         -3.9490   15.2490   16.4220 C.2   128  GLY128      0.2309
     71  O         -2.9480   14.9330   17.0640 O.2   128  GLY128     -0.2863
     72  N         -4.9640   12.4940   19.4070 N.3   131  VAL131     -0.1245
     73  CA        -4.0490   11.3940   19.7560 C.3   131  VAL131      0.1561
     74  C         -2.9600   11.8330   20.7120 C.2   131  VAL131      0.2260
     75  O         -2.2620   10.9770   21.2780 O.2   131  VAL131     -0.2867
     76  CB        -3.4160   10.7070   18.5780 C.3   131  VAL131      0.0252
     77  CG1       -4.4440   10.0450   17.6810 C.3   131  VAL131      0.0019
     78  CG2       -2.5090   11.6240   17.7510 C.3   131  VAL131      0.0019
     79  N        -11.9350    3.6340   21.0670 N.3   139  VAL139     -0.1245
     80  CA       -11.9480    2.5800   20.0730 C.3   139  VAL139      0.1561
     81  C        -12.9040    1.5130   20.5620 C.2   139  VAL139      0.2260
     82  O        -12.7730    1.0080   21.6750 O.2   139  VAL139     -0.2867
     83  CB       -10.5550    2.0370   19.7080 C.3   139  VAL139      0.0252
     84  CG1      -10.6960    1.0260   18.5990 C.3   139  VAL139      0.0019
     85  CG2       -9.6440    3.1590   19.2800 C.3   139  VAL139      0.0019
     86  N         -3.0350    3.0340   21.1720 N.3   194  LEU194     -0.1231
     87  CA        -3.0560    2.5080   19.8240 C.3   194  LEU194      0.1693
     88  C         -2.3190    1.1830   19.8330 C.2   194  LEU194      0.2593
     89  O         -1.2780    1.0310   20.5140 O.2   194  LEU194     -0.2718
     90  CB        -2.3330    3.4480   18.8670 C.3   194  LEU194      0.0284
     91  CG        -2.8330    4.8900   18.8300 C.3   194  LEU194      0.0019
     92  CD1       -2.0110    5.7000   17.8030 C.3   194  LEU194      0.0001
     93  CD2       -4.3080    4.9820   18.4920 C.3   194  LEU194      0.0001
     94  N         -2.7280    0.2180   19.0050 N.am  195  THR195     -0.1939
     95  CA        -2.0800   -1.0730   18.9540 C.3   195  THR195      0.2028
     96  C         -1.0670   -1.1560   17.7990 C.2   195  THR195      0.2643
     97  O         -0.4810   -2.2530   17.6300 O.2   195  THR195     -0.2714
     98  CB        -3.0720   -2.2310   18.8670 C.3   195  THR195      0.1808
     99  OG1       -3.6620   -2.1980   17.5730 O.3   195  THR195     -0.2208
    100  CG2       -4.0790   -2.2100   19.9960 C.3   195  THR195      0.0379
    101  N         -0.9090   -0.1110   17.0210 N.am  196  THR196     -0.1937
    102  CA         0.1690   -0.0260   16.0420 C.3   196  THR196      0.2013
    103  C          0.9310    1.2320   16.3320 C.2   196  THR196      0.2484
    104  O          0.4500    2.1810   16.9090 O.2   196  THR196     -0.2729
    105  CB        -0.3430    0.0240   14.5840 C.3   196  THR196      0.1807
    106  OG1       -1.3500    1.0420   14.4170 O.3   196  THR196     -0.2208
    107  CG2       -1.0070   -1.2510   14.2280 C.3   196  THR196      0.0379
    108  N          2.2210    1.2820   15.8770 N.am  197  PRO197     -0.2715
    109  CA         2.9680    2.5360   15.9670 C.3   197  PRO197      0.1521
    110  C          2.1510    3.6760   15.4550 C.2   197  PRO197      0.2440
    111  O          1.4910    3.5530   14.3890 O.2   197  PRO197     -0.2731
    112  CB         4.1880    2.2320   15.0960 C.3   197  PRO197      0.0310
    113  CG         4.4240    0.7700   15.3400 C.3   197  PRO197      0.0237
    114  CD         3.0270    0.1980   15.2700 C.3   197  PRO197      0.0939
    115  N          2.1710    4.8230   16.1060 N.am  198  PRO198     -0.2727
    116  CA         3.0950    5.2360   17.1940 C.3   198  PRO198      0.1402
    117  C          2.7280    4.7760   18.6160 C.2   198  PRO198      0.2269
    118  O          3.3800    5.2000   19.5540 O.2   198  PRO198     -0.2865
    119  CB         3.0700    6.7400   17.0440 C.3   198  PRO198      0.0296
    120  CG         1.6970    7.0610   16.5780 C.3   198  PRO198      0.0237
    121  CD         1.3890    5.9730   15.5840 C.3   198  PRO198      0.0939
    122  N          0.5070    5.4060   20.7630 N.3   200  LEU200     -0.1245
    123  CA         0.2210    6.5030   21.6940 C.3   200  LEU200      0.1561
    124  C         -0.8320    6.1060   22.7250 C.2   200  LEU200      0.2260
    125  O         -1.8090    5.3570   22.4110 O.2   200  LEU200     -0.2867
    126  CB        -0.2890    7.7380   20.9190 C.3   200  LEU200      0.0270
    127  CG         0.7780    8.3160   19.9820 C.3   200  LEU200      0.0019
    128  CD1        0.1690    9.3630   19.0980 C.3   200  LEU200      0.0001
    129  CD2        1.9540    8.9200   20.7940 C.3   200  LEU200      0.0001
    130  N        -10.5010    2.1640   25.6230 N.3   205  TRP205     -0.1241
    131  CA       -10.9180    0.9620   24.9140 C.3   205  TRP205      0.1605
    132  C        -12.3140    0.5470   25.4430 C.2   205  TRP205      0.2264
    133  O        -12.5380    0.4900   26.6470 O.2   205  TRP205     -0.2867
    134  CB        -9.9240   -0.2000   25.1210 C.3   205  TRP205      0.0550
    135  CG        -8.8090   -0.0900   24.1430 C.ar  205  TRP205      0.0003
    136  CD1       -7.5590    0.4910   24.3210 C.ar  205  TRP205      0.0946
    137  CD2       -8.8880   -0.4900   22.7960 C.ar  205  TRP205      0.0152
    138  NE1       -6.9050    0.4930   23.1410 N.ar  205  TRP205     -0.2442
    139  CE2       -7.6600   -0.1140   22.1750 C.ar  205  TRP205      0.0810
    140  CE3       -9.8440   -1.1220   22.0090 C.ar  205  TRP205      0.0012
    141  CZ2       -7.3820   -0.3390   20.8290 C.ar  205  TRP205      0.0191
    142  CZ3       -9.5920   -1.3790   20.7070 C.ar  205  TRP205      0.0001
    143  CH2       -8.3720   -1.0070   20.1060 C.ar  205  TRP205      0.0015
@<TRIPOS>BOND
     1     1     2    1
     2     2     3    1
     3     2     5    1
     4     3     4    2
     5     8     6   ar
     6     8    10   ar
     7     5     6    1
     8     6     7   ar
     9    10     9   ar
    10    15    12    1
    11    15    16    1
    12     9     7   ar
    13    24    21    1
    14    24    25    1
    15    21    20    1
    16    21    22    1
    17    12    13    1
    18    12    11    1
    19    16    17    1
    20    13    14    2
    21    22    23    2
    22    18    17    2
    23    17    19   am
    24    25    26   ar
    25    25    27   ar
    26    26    28   ar
    27    30    31    1
    28    32    31    1
    29    32    33    2
    30    27    29   ar
    31    31    34    1
    32    28    29   ar
    33    43    42    2
    34    64    66   ar
    35    64    62   ar
    36    34    35    1
    37    61    62    1
    38    61    58    1
    39    36    35   ar
    40    36    38   ar
    41    66    67   ar
    42   107   105    1
    43    35    37   ar
    44    62    63   ar
    45    38    39   ar
    46   111   110    2
    47   106   105    1
    48   105   102    1
    49    37    39   ar
    50    57    58    1
    51    53    52    2
    52    68    69    1
    53    68    59   am
    54    67    65   ar
    55    40    41    1
    56    56    54    1
    57    42    41    1
    58    63    65   ar
    59    54    55    1
    60    54    51    1
    61    69    70    1
    62   112   113    1
    63   112   109    1
    64    58    59    1
    65    50    51    1
    66   114   113    1
    67   114   108    1
    68   110   109    1
    69   110   115   am
    70    41    44    1
    71    59    60    2
    72   121   115    1
    73   121   120    1
    74    44    45    1
    75    51    52    1
    76   108   109    1
    77   108   103   am
    78   102   103    1
    79   102   101    1
    80   115   116    1
    81   103   104    2
    82    70    71    2
    83    46    45   ar
    84    46    48   ar
    85    45    47   ar
    86   120   119    1
    87   101    96   am
    88   119   116    1
    89   116   117    1
    90    48    49   ar
    91    47    49   ar
    92    99    98    1
    93    97    96    2
    94    77    76    1
    95    78    76    1
    96    96    95    1
    97    92    91    1
    98    93    91    1
    99    76    73    1
   100    84    83    1
   101   117   118    2
   102    91    90    1
   103    98    95    1
   104    98   100    1
   105    90    87    1
   106    95    94    1
   107    94    88   am
   108   128   127    1
   109    85    83    1
   110    72    73    1
   111    83    80    1
   112    73    74    1
   113    87    88    1
   114    87    86    1
   115    88    89    2
   116   127   129    1
   117   127   126    1
   118    80    81    1
   119    80    79    1
   120   143   142   ar
   121   143   141   ar
   122    81    82    2
   123   142   140   ar
   124    74    75    2
   125   122   123    1
   126   141   139   ar
   127   126   123    1
   128   123   124    1
   129   140   137   ar
   130   139   137   ar
   131   139   138   ar
   132   125   124    2
   133   137   135   ar
   134   138   136   ar
   135   135   136   ar
   136   135   134    1
   137   131   134    1
   138   131   132    1
   139   131   130    1
   140   132   133    2
