@<TRIPOS>MOLECULE
tmp/4q6fA00.pdb
 152 149 0 0 0
SMALL
GASTEIGER

@<TRIPOS>ATOM
      1  N        -11.6450  -18.1790   -9.1900 N.3     2  VAL2       -0.1231
      2  CA       -10.2680  -18.7560   -9.3500 C.3     2  VAL2        0.1692
      3  C        -10.0030  -20.1180   -8.6860 C.2     2  VAL2        0.2592
      4  O         -9.3860  -20.9770   -9.3120 O.2     2  VAL2       -0.2718
      5  CB        -9.1410  -17.7290   -8.9930 C.3     2  VAL2        0.0266
      6  CG1       -7.8080  -18.4140   -8.6460 C.3     2  VAL2        0.0020
      7  CG2       -8.9380  -16.7530  -10.1420 C.3     2  VAL2        0.0020
      8  N        -10.4660  -20.3240   -7.4500 N.am    3  ASN3       -0.1960
      9  CA       -10.3790  -21.6570   -6.8360 C.3     3  ASN3        0.1819
     10  C        -11.1430  -22.7520   -7.6310 C.2     3  ASN3        0.2621
     11  O        -10.8770  -23.9360   -7.4380 O.2     3  ASN3       -0.2715
     12  CB       -10.7690  -21.6410   -5.3400 C.3     3  ASN3        0.1195
     13  CG       -12.0090  -20.8110   -5.0540 C.2     3  ASN3        0.2630
     14  OD1      -12.0630  -19.6210   -5.3710 O.2     3  ASN3       -0.2716
     15  ND2      -13.0060  -21.4260   -4.4350 N.am    3  ASN3       -0.0877
     16  N        -12.0420  -22.3450   -8.5390 N.am    4  LYS4       -0.1963
     17  CA       -12.8460  -23.2510   -9.3820 C.3     4  LYS4        0.1728
     18  C        -12.2060  -23.5940  -10.7480 C.2     4  LYS4        0.2616
     19  O        -12.7340  -24.4450  -11.4870 O.2     4  LYS4       -0.2715
     20  CB       -14.2230  -22.6160   -9.6550 C.3     4  LYS4        0.0311
     21  CG       -15.0820  -22.4770   -8.4480 C.3     4  LYS4        0.0038
     22  CD       -15.6630  -23.7740   -7.9770 C.3     4  LYS4        0.0206
     23  CE       -16.5650  -23.5780   -6.7330 C.3     4  LYS4        0.1093
     24  NZ       -15.8290  -23.4050   -5.4730 N.3     4  LYS4       -0.1314
     25  N        -11.1000  -22.9290  -11.0950 N.am    5  VAL5       -0.1963
     26  CA       -10.4610  -23.1460  -12.3920 C.3     5  VAL5        0.1727
     27  C         -9.8410  -24.5320  -12.5040 C.2     5  VAL5        0.2616
     28  O         -9.2040  -25.0550  -11.5650 O.2     5  VAL5       -0.2715
     29  CB        -9.4270  -22.0460  -12.7430 C.3     5  VAL5        0.0290
     30  CG1       -8.2610  -22.0420  -11.7870 C.3     5  VAL5        0.0023
     31  CG2       -8.9160  -22.2260  -14.1650 C.3     5  VAL5        0.0023
     32  N        -10.0650  -25.1390  -13.6560 N.am    6  THR6       -0.1951
     33  CA        -9.5360  -26.4790  -13.9390 C.3     6  THR6        0.1897
     34  C         -8.7350  -26.4510  -15.2410 C.2     6  THR6        0.2313
     35  O         -8.8800  -25.5360  -16.0450 O.2     6  THR6       -0.2863
     36  CB       -10.6940  -27.4790  -14.0130 C.3     6  THR6        0.1794
     37  OG1      -11.6190  -27.0220  -14.9930 O.3     6  THR6       -0.2208
     38  CG2      -11.4080  -27.5630  -12.6660 C.3     6  THR6        0.0378
     39  N         -8.2300  -29.6150  -11.0590 N.3    13  GLY13      -0.1225
     40  CA        -7.9110  -28.3000  -10.5140 C.3    13  GLY13       0.1811
     41  C         -6.7820  -28.3350   -9.5000 C.2    13  GLY13       0.2280
     42  O         -6.5880  -27.3720   -8.7620 O.2    13  GLY13      -0.2866
     43  N         -2.0570  -26.2250   -8.0400 N.3    16  ASP16      -0.1225
     44  CA        -2.4010  -24.8140   -8.3250 C.3    16  ASP16       0.1805
     45  C         -1.2480  -23.9780   -8.8550 C.2    16  ASP16       0.2597
     46  O         -1.4280  -23.1960   -9.7810 O.2    16  ASP16      -0.2718
     47  CB        -2.9160  -24.1160   -7.0410 C.3    16  ASP16       0.1424
     48  CG        -4.1810  -24.7410   -6.4840 C.2    16  ASP16       0.3668
     49  OD1       -4.5650  -25.8560   -6.9130 O.co2  16  ASP16      -0.2456
     50  OD2       -4.7690  -24.1200   -5.5780 O.co2  16  ASP16      -0.2456
     51  N         -0.0710  -24.1300   -8.2450 N.am   17  GLU17      -0.1979
     52  CA         1.1370  -23.3750   -8.6550 C.3    17  GLU17       0.1602
     53  C          1.6630  -23.7130  -10.0570 C.2    17  GLU17       0.2287
     54  O          2.4860  -22.9890  -10.5880 O.2    17  GLU17      -0.2864
     55  CB         2.2960  -23.5200   -7.6660 C.3    17  GLU17       0.0415
     56  CG         2.6770  -24.9340   -7.2890 C.3    17  GLU17       0.1163
     57  CD         1.7180  -25.5300   -6.2640 C.2    17  GLU17       0.3649
     58  OE1        1.5770  -24.9610   -5.1540 O.co2  17  GLU17      -0.2457
     59  OE2        1.0670  -26.5360   -6.5910 O.co2  17  GLU17      -0.2457
     60  N         -0.6960  -24.3100  -12.4300 N.3    19  LEU19      -0.1231
     61  CA        -1.9400  -24.2140  -13.1920 C.3    19  LEU19       0.1693
     62  C         -2.0600  -22.7930  -13.7100 C.2    19  LEU19       0.2592
     63  O         -2.4330  -21.8590  -12.9910 O.2    19  LEU19      -0.2718
     64  CB        -3.1650  -24.6580  -12.3800 C.3    19  LEU19       0.0284
     65  CG        -4.3120  -25.2720  -13.1760 C.3    19  LEU19       0.0019
     66  CD1       -5.4280  -25.7370  -12.2370 C.3    19  LEU19       0.0001
     67  CD2       -4.8820  -24.2990  -14.1900 C.3    19  LEU19       0.0001
     68  N         -1.6310  -22.6630  -14.9610 N.am   20  LEU20      -0.1966
     69  CA        -1.6080  -21.4210  -15.7080 C.3    20  LEU20       0.1728
     70  C         -3.0320  -20.8960  -16.0240 C.2    20  LEU20       0.2616
     71  O         -3.8950  -21.6290  -16.4800 O.2    20  LEU20      -0.2715
     72  CB        -0.8030  -21.6680  -16.9760 C.3    20  LEU20       0.0311
     73  CG        -0.5740  -20.5460  -17.9600 C.3    20  LEU20       0.0022
     74  CD1        0.0810  -19.3760  -17.2390 C.3    20  LEU20       0.0001
     75  CD2        0.3090  -21.0670  -19.0800 C.3    20  LEU20       0.0001
     76  N         -3.2730  -19.6420  -15.6880 N.am   21  LEU21      -0.1963
     77  CA        -4.5490  -18.9900  -15.9230 C.3    21  LEU21       0.1728
     78  C         -4.5100  -18.1630  -17.2420 C.2    21  LEU21       0.2616
     79  O         -3.5420  -17.4250  -17.4940 O.2    21  LEU21      -0.2715
     80  CB        -4.8600  -18.0700  -14.7680 C.3    21  LEU21       0.0311
     81  CG        -4.9330  -18.6000  -13.3310 C.3    21  LEU21       0.0022
     82  CD1       -5.3560  -17.4740  -12.3870 C.3    21  LEU21       0.0001
     83  CD2       -5.9000  -19.7660  -13.2230 C.3    21  LEU21       0.0001
     84  N         -5.5600  -18.2960  -18.0680 N.am   22  CYS22      -0.1954
     85  CA        -5.6930  -17.4840  -19.2740 C.3    22  CYS22       0.1843
     86  C         -5.8850  -16.0170  -18.8700 C.2    22  CYS22       0.2625
     87  O         -6.6610  -15.7150  -17.9330 O.2    22  CYS22      -0.2714
     88  CB        -6.8740  -17.9580  -20.1400 C.3    22  CYS22       0.0997
     89  SG        -7.0270  -17.0660  -21.6970 S.3    22  CYS22      -0.0797
     90  N         -5.1480  -15.1240  -19.5400 N.am   23  ASP23      -0.1971
     91  CA        -5.3560  -13.6840  -19.3720 C.3    23  ASP23       0.1709
     92  C         -6.6030  -13.1440  -20.1150 C.2    23  ASP23       0.2293
     93  O         -6.9890  -12.0080  -19.8770 O.2    23  ASP23      -0.2864
     94  CB        -4.0950  -12.9050  -19.7600 C.3    23  ASP23       0.1436
     95  CG        -2.9830  -13.0670  -18.7420 C.2    23  ASP23       0.3671
     96  OD1       -3.1970  -12.6960  -17.5690 O.co2  23  ASP23      -0.2456
     97  OD2       -1.9220  -13.6110  -19.0880 O.co2  23  ASP23      -0.2456
     98  N         -9.7530  -15.0800  -20.3320 N.3    25  CYS25      -0.1235
     99  CA       -10.9730  -15.7290  -19.8890 C.3    25  CYS25       0.1677
    100  C        -10.7180  -16.4350  -18.5580 C.2    25  CYS25       0.2270
    101  O         -9.6780  -16.2300  -17.9370 O.2    25  CYS25      -0.2867
    102  CB       -11.4980  -16.7000  -20.9500 C.3    25  CYS25       0.0956
    103  SG       -10.5130  -18.2290  -21.1560 S.3    25  CYS25      -0.0801
    104  N          6.0750  -21.1700  -15.8230 N.3    41  VAL41      -0.1231
    105  CA         5.0180  -20.1840  -16.0280 C.3    41  VAL41       0.1681
    106  C          5.6060  -18.9910  -16.7660 C.2    41  VAL41       0.2471
    107  O          6.6320  -18.4700  -16.3510 O.2    41  VAL41      -0.2730
    108  CB         4.4320  -19.6990  -14.6820 C.3    41  VAL41       0.0265
    109  CG1        3.4160  -18.5840  -14.9020 C.3    41  VAL41       0.0020
    110  CG2        3.7900  -20.8820  -13.9470 C.3    41  VAL41       0.0020
    111  N          4.9740  -18.5540  -17.8640 N.am   42  PRO42      -0.2492
    112  CA         5.5580  -17.4280  -18.5760 C.3    42  PRO42       0.1619
    113  C          5.4160  -16.0800  -17.8350 C.2    42  PRO42       0.2605
    114  O          4.4680  -15.9120  -17.0910 O.2    42  PRO42      -0.2715
    115  CB         4.7940  -17.3890  -19.8920 C.3    42  PRO42       0.0570
    116  CG         3.7280  -18.4200  -19.8490 C.2    42  PRO42      -0.0077
    117  CD         3.8790  -19.2060  -18.5910 C.2    42  PRO42       0.0634
    118  N          6.3350  -15.1430  -18.0950 N.am   43  GLU43      -0.1964
    119  CA         6.2800  -13.8180  -17.4970 C.3    43  GLU43       0.1733
    120  C          5.2230  -12.9570  -18.1870 C.2    43  GLU43       0.2617
    121  O          4.5750  -12.1500  -17.5480 O.2    43  GLU43      -0.2715
    122  CB         7.6340  -13.1180  -17.6130 C.3    43  GLU43       0.0429
    123  CG         8.7900  -13.8500  -16.9370 C.3    43  GLU43       0.1163
    124  CD         8.7470  -13.7550  -15.4200 C.2    43  GLU43       0.3649
    125  OE1        8.2250  -12.7400  -14.8980 O.co2  43  GLU43      -0.2457
    126  OE2        9.2340  -14.7030  -14.7630 O.co2  43  GLU43      -0.2457
    127  N          5.0590  -13.1040  -19.4960 N.am   44  GLY44      -0.1940
    128  CA         4.0990  -12.2630  -20.2080 C.3    44  GLY44       0.2014
    129  C          2.6600  -12.7550  -20.1050 C.2    44  GLY44       0.2639
    130  O          2.3500  -13.6600  -19.3190 O.2    44  GLY44      -0.2714
    131  N          1.7730  -12.1530  -20.8900 N.am   45  ASP45      -0.1957
    132  CA         0.4000  -12.6380  -20.9820 C.3    45  ASP45       0.1840
    133  C          0.3350  -13.9820  -21.7040 C.2    45  ASP45       0.2622
    134  O          1.1410  -14.2770  -22.5910 O.2    45  ASP45      -0.2715
    135  CB        -0.4960  -11.6320  -21.7140 C.3    45  ASP45       0.1450
    136  CG        -0.6040  -10.3200  -20.9860 C.2    45  ASP45       0.3671
    137  OD1       -0.5010  -10.3430  -19.7560 O.co2  45  ASP45      -0.2456
    138  OD2       -0.7760   -9.2820  -21.6450 O.co2  45  ASP45      -0.2456
    139  N         -0.6350  -14.7840  -21.2980 N.am   46  TRP46      -0.1974
    140  CA        -0.9100  -16.0610  -21.9160 C.3    46  TRP46       0.1640
    141  C         -2.3930  -16.1750  -22.2320 C.2    46  TRP46       0.2290
    142  O         -3.2240  -15.9510  -21.3870 O.2    46  TRP46      -0.2864
    143  CB        -0.5070  -17.2190  -20.9940 C.3    46  TRP46       0.0576
    144  CG        -0.7480  -18.5300  -21.6630 C.ar   46  TRP46       0.0006
    145  CD1       -0.0260  -19.0580  -22.6930 C.ar   46  TRP46       0.0946
    146  CD2       -1.8080  -19.4580  -21.4030 C.ar   46  TRP46       0.0152
    147  NE1       -0.5480  -20.2570  -23.0730 N.ar   46  TRP46      -0.2442
    148  CE2       -1.6430  -20.5330  -22.2970 C.ar   46  TRP46       0.0810
    149  CE3       -2.8780  -19.4780  -20.5140 C.ar   46  TRP46       0.0012
    150  CZ2       -2.5160  -21.6250  -22.3340 C.ar   46  TRP46       0.0191
    151  CZ3       -3.7380  -20.5650  -20.5290 C.ar   46  TRP46       0.0001
    152  CH2       -3.5550  -21.6310  -21.4370 C.ar   46  TRP46       0.0015
@<TRIPOS>BOND
     1   147   145   ar
     2   147   148   ar
     3   145   144   ar
     4   134   133    2
     5   150   148   ar
     6   150   152   ar
     7   148   146   ar
     8   141   140    1
     9   141   142    2
    10   140   139    1
    11   140   143    1
    12   135   136    1
    13   135   132    1
    14   133   139   am
    15   133   132    1
    16    89    88    1
    17   144   146   ar
    18   144   143    1
    19   138   136   ar
    20   152   151   ar
    21   146   149   ar
    22   103   102    1
    23   136   137   ar
    24   132   131    1
    25   102    99    1
    26   131   129   am
    27   151   149   ar
    28    98    99    1
    29   128   129    1
    30   128   127    1
    31    88    85    1
    32    92    93    2
    33    92    91    1
    34   129   130    2
    35   115   116    1
    36   115   112    1
    37    99   100    1
    38   116   117    2
    39    94    91    1
    40    94    95    1
    41    90    91    1
    42    90    86   am
    43   127   120   am
    44    85    86    1
    45    85    84    1
    46    97    95   ar
    47    75    73    1
    48    86    87    2
    49    95    96   ar
    50   117   111    1
    51   112   111    1
    52   112   113    1
    53   100   101    2
    54   120   121    2
    55   120   119    1
    56   118   113   am
    57   118   119    1
    58    84    78   am
    59    73    74    1
    60    73    72    1
    61   111   106   am
    62   113   114    2
    63   122   119    1
    64   122   123    1
    65    79    78    2
    66    78    77    1
    67    72    69    1
    68   123   124    1
    69   106   107    2
    70   106   105    1
    71    71    70    2
    72    35    34    2
    73   105   104    1
    74   105   108    1
    75    70    69    1
    76    70    76   am
    77    77    76    1
    78    77    80    1
    79    69    68    1
    80   124   125   ar
    81   124   126   ar
    82    34    33    1
    83    37    36    1
    84    68    62   am
    85   109   108    1
    86    80    81    1
    87   108   110    1
    88    67    65    1
    89    31    29    1
    90    36    33    1
    91    36    38    1
    92    33    32    1
    93    62    61    1
    94    62    63    2
    95    32    27   am
    96    81    83    1
    97    81    82    1
    98    61    60    1
    99    61    64    1
   100    65    64    1
   101    65    66    1
   102    29    26    1
   103    29    30    1
   104    27    26    1
   105    27    28    2
   106    26    25    1
   107    19    18    2
   108    25    18   am
   109    39    40    1
   110    18    17    1
   111    54    53    2
   112    40    41    1
   113     7     5    1
   114    53    52    1
   115    46    45    2
   116    20    17    1
   117    20    21    1
   118    41    42    2
   119    17    16    1
   120     2     1    1
   121     2     5    1
   122     2     3    1
   123     4     3    2
   124     5     6    1
   125    45    44    1
   126    45    51   am
   127     3     8   am
   128    52    51    1
   129    52    55    1
   130    16    10   am
   131    21    22    1
   132    44    43    1
   133    44    47    1
   134    22    23    1
   135    55    56    1
   136    10    11    2
   137    10     9    1
   138     8     9    1
   139    56    57    1
   140    47    48    1
   141    49    48   ar
   142     9    12    1
   143    23    24    1
   144    59    57   ar
   145    48    50   ar
   146    57    58   ar
   147    14    13    2
   148    12    13    1
   149    13    15   am
