@<TRIPOS>MOLECULE
tmp/4q6fC00.pdb
 117 113 0 0 0
SMALL
GASTEIGER

@<TRIPOS>ATOM
      1  N         -9.7290   12.6540  -55.5970 N.3     1  LYS1       -0.1231
      2  CA        -9.3500   13.5820  -54.4910 C.3     1  LYS1        0.1693
      3  C         -9.2650   12.8520  -53.1420 C.2     1  LYS1        0.2592
      4  O         -8.5700   13.3080  -52.2320 O.2     1  LYS1       -0.2718
      5  CB       -10.3490   14.7430  -54.3970 C.3     1  LYS1        0.0285
      6  CG       -10.1050   15.6940  -53.2540 C.3     1  LYS1        0.0035
      7  CD       -11.1590   16.7910  -53.2020 C.3     1  LYS1        0.0206
      8  CE       -12.5240   16.2720  -52.7410 C.3     1  LYS1        0.1093
      9  NZ       -12.5220   15.7740  -51.3260 N.3     1  LYS1       -0.1314
     10  N         -9.9570   11.7220  -53.0240 N.am    2  VAL2       -0.1966
     11  CA       -10.1040   11.0250  -51.7380 C.3     2  VAL2        0.1727
     12  C         -8.7870   10.4460  -51.2650 C.2     2  VAL2        0.2616
     13  O         -8.1290    9.7130  -52.0080 O.2     2  VAL2       -0.2715
     14  CB       -11.0800    9.8440  -51.8450 C.3     2  VAL2        0.0290
     15  CG1      -11.1450    9.0900  -50.5130 C.3     2  VAL2        0.0023
     16  CG2      -12.4570   10.3350  -52.2830 C.3     2  VAL2        0.0023
     17  N         -8.4200   10.7430  -50.0250 N.am    3  THR3       -0.1951
     18  CA        -7.2240   10.1520  -49.4480 C.3     3  THR3        0.1897
     19  C         -7.5050    9.4140  -48.1350 C.2     3  THR3        0.2313
     20  O         -8.5130    9.6360  -47.4630 O.2     3  THR3       -0.2863
     21  CB        -6.1390   11.2070  -49.1950 C.3     3  THR3        0.1794
     22  OG1       -6.5840   12.0840  -48.1600 O.3     3  THR3       -0.2208
     23  CG2       -5.8380   12.0090  -50.4780 C.3     3  THR3        0.0378
     24  N         -3.4870    8.6820  -51.5050 N.3    10  GLY10      -0.1225
     25  CA        -4.6660    8.3560  -52.3180 C.3    10  GLY10       0.1811
     26  C         -4.4090    7.2660  -53.3440 C.2    10  GLY10       0.2280
     27  O         -5.2590    6.9980  -54.1920 O.2    10  GLY10      -0.2866
     28  N         -6.1970    2.6470  -55.0920 N.3    13  ASP13      -0.1225
     29  CA        -7.5990    3.0850  -55.0520 C.3    13  ASP13       0.1805
     30  C         -8.5810    1.9580  -54.8640 C.2    13  ASP13       0.2597
     31  O         -9.6280    2.1390  -54.2910 O.2    13  ASP13      -0.2718
     32  CB        -7.9650    3.7960  -56.3720 C.3    13  ASP13       0.1424
     33  CG        -7.1060    5.0420  -56.6390 C.2    13  ASP13       0.3668
     34  OD1       -5.8470    4.9550  -56.5800 O.co2  13  ASP13      -0.2456
     35  OD2       -7.6990    6.1120  -56.9390 O.co2  13  ASP13      -0.2456
     36  N         -8.2630    0.8080  -55.4350 N.am   14  GLU14      -0.1979
     37  CA        -9.0820   -0.3800  -55.3100 C.3    14  GLU14       0.1602
     38  C         -9.1690   -0.8940  -53.8490 C.2    14  GLU14       0.2287
     39  O        -10.0960   -1.6320  -53.4870 O.2    14  GLU14      -0.2864
     40  CB        -8.4570   -1.4830  -56.1790 C.3    14  GLU14       0.0415
     41  CG        -8.4550   -1.2130  -57.6820 C.3    14  GLU14       0.1163
     42  CD        -9.6780   -1.7890  -58.3780 C.2    14  GLU14       0.3649
     43  OE1       -9.6070   -2.0240  -59.6030 O.co2  14  GLU14      -0.2457
     44  OE2      -10.7080   -2.0150  -57.7000 O.co2  14  GLU14      -0.2457
     45  N         -8.9250    1.3250  -51.2260 N.3    16  LEU16      -0.1231
     46  CA        -9.1820    2.5590  -50.5050 C.3    16  LEU16       0.1693
     47  C        -10.6770    2.7310  -50.3020 C.2    16  LEU16       0.2592
     48  O        -11.3680    3.3150  -51.1240 O.2    16  LEU16      -0.2718
     49  CB        -8.5850    3.7490  -51.2490 C.3    16  LEU16       0.0284
     50  CG        -8.4780    5.0970  -50.5230 C.3    16  LEU16       0.0019
     51  CD1       -8.3050    4.9310  -49.0400 C.3    16  LEU16       0.0001
     52  CD2       -7.3610    5.9760  -51.0750 C.3    16  LEU16       0.0001
     53  N        -11.1360    2.1980  -49.1780 N.am   17  LEU17      -0.1966
     54  CA       -12.5300    2.2040  -48.7640 C.3    17  LEU17       0.1728
     55  C        -13.0520    3.6250  -48.5190 C.2    17  LEU17       0.2616
     56  O        -12.3830    4.4470  -47.8890 O.2    17  LEU17      -0.2715
     57  CB       -12.6600    1.3170  -47.5220 C.3    17  LEU17       0.0311
     58  CG       -13.7960    1.4170  -46.5150 C.3    17  LEU17       0.0022
     59  CD1      -15.1300    0.9490  -47.1020 C.3    17  LEU17       0.0001
     60  CD2      -13.4040    0.5740  -45.3120 C.3    17  LEU17       0.0001
     61  N        -14.2340    3.9080  -49.0860 N.am   18  LEU18      -0.1977
     62  CA       -14.9220    5.1830  -48.9320 C.3    18  LEU18       0.1596
     63  C        -15.9510    5.1270  -47.8040 C.2    18  LEU18       0.2287
     64  O        -16.6860    4.1420  -47.6740 O.2    18  LEU18      -0.2864
     65  CB       -15.6100    5.5640  -50.2430 C.3    18  LEU18       0.0297
     66  CG       -14.6930    5.5370  -51.4700 C.3    18  LEU18       0.0022
     67  CD1      -15.4680    5.7760  -52.7680 C.3    18  LEU18       0.0001
     68  CD2      -13.5780    6.5610  -51.3090 C.3    18  LEU18       0.0001
     69  N        -19.4090    6.0380  -46.1250 N.3    20  ASP20      -0.1239
     70  CA       -20.7510    6.3190  -46.6250 C.3    20  ASP20       0.1674
     71  C        -21.3640    7.6090  -46.0580 C.2    20  ASP20       0.2266
     72  O        -22.4240    8.0020  -46.5090 O.2    20  ASP20      -0.2867
     73  CB       -21.6770    5.1230  -46.3460 C.3    20  ASP20       0.1410
     74  CG       -21.2830    3.9060  -47.1380 C.2    20  ASP20       0.3668
     75  OD1      -21.4700    3.9350  -48.3560 O.co2  20  ASP20      -0.2456
     76  OD2      -20.7710    2.9200  -46.5730 O.co2  20  ASP20      -0.2456
     77  N        -12.5610   -5.2700  -48.3780 N.3    38  VAL38      -0.1231
     78  CA       -13.5400   -4.1940  -48.3860 C.3    38  VAL38       0.1678
     79  C        -14.8780   -4.7700  -47.8890 C.2    38  VAL38       0.2434
     80  O        -15.3580   -5.7610  -48.4230 O.2    38  VAL38      -0.2733
     81  CB       -13.6990   -3.5390  -49.7850 C.3    38  VAL38       0.0265
     82  CG1      -14.8690   -2.5670  -49.7920 C.3    38  VAL38       0.0020
     83  CG2      -12.4150   -2.7880  -50.2030 C.3    38  VAL38       0.0020
     84  N        -15.4550   -4.1740  -46.8300 N.am   39  PRO39      -0.2718
     85  CA       -16.7370   -4.6460  -46.3000 C.3    39  PRO39       0.1535
     86  C        -17.9010   -4.4090  -47.2520 C.2    39  PRO39       0.2598
     87  O        -17.8940   -3.4410  -47.9900 O.2    39  PRO39      -0.2715
     88  CB       -16.9790   -3.7480  -45.0700 C.3    39  PRO39       0.0310
     89  CG       -15.7060   -3.0490  -44.7950 C.3    39  PRO39       0.0237
     90  CD       -14.9520   -3.0150  -46.0800 C.3    39  PRO39       0.0939
     91  N        -18.9100   -5.2720  -47.1980 N.am   40  GLU40      -0.1964
     92  CA       -20.1480   -4.9740  -47.8900 C.3    40  GLU40       0.1733
     93  C        -20.9960   -4.1230  -46.9710 C.2    40  GLU40       0.2616
     94  O        -20.6930   -3.9400  -45.7820 O.2    40  GLU40      -0.2715
     95  CB       -20.8960   -6.2330  -48.3030 C.3    40  GLU40       0.0429
     96  CG       -20.1400   -7.0340  -49.3530 C.3    40  GLU40       0.1163
     97  CD       -20.8770   -8.2970  -49.7530 C.2    40  GLU40       0.3649
     98  OE1      -22.1360   -8.2800  -49.7900 O.co2  40  GLU40      -0.2457
     99  OE2      -20.2030   -9.3120  -50.0260 O.co2  40  GLU40      -0.2457
    100  N        -22.0540   -3.5720  -47.5390 N.am   41  GLY41      -0.1955
    101  CA       -22.9440   -2.7170  -46.7940 C.3    41  GLY41       0.1869
    102  C        -22.3170   -1.3780  -46.5110 C.2    41  GLY41       0.2309
    103  O        -21.4330   -0.8990  -47.2370 O.2    41  GLY41      -0.2863
    104  N        -20.1900    1.4500  -44.3700 N.3    43  TRP43      -0.1241
    105  CA       -19.0390    1.6790  -43.4900 C.3    43  TRP43       0.1605
    106  C        -18.9590    3.2020  -43.2090 C.2    43  TRP43       0.2264
    107  O        -19.0570    4.0160  -44.1300 O.2    43  TRP43      -0.2867
    108  CB       -17.7210    1.1320  -44.0930 C.3    43  TRP43       0.0550
    109  CG       -16.5430    1.4530  -43.1850 C.ar   43  TRP43       0.0003
    110  CD1      -16.2050    0.8300  -42.0090 C.ar   43  TRP43       0.0946
    111  CD2      -15.6000    2.5020  -43.3630 C.ar   43  TRP43       0.0152
    112  NE1      -15.1080    1.4210  -41.4630 N.ar   43  TRP43      -0.2442
    113  CE2      -14.7090    2.4510  -42.2710 C.ar   43  TRP43       0.0810
    114  CE3      -15.4140    3.4810  -44.3410 C.ar   43  TRP43       0.0012
    115  CZ2      -13.6570    3.3560  -42.1210 C.ar   43  TRP43       0.0191
    116  CZ3      -14.3510    4.3680  -44.2040 C.ar   43  TRP43       0.0001
    117  CH2      -13.4830    4.2930  -43.1030 C.ar   43  TRP43       0.0015
@<TRIPOS>BOND
     1    43    42   ar
     2    42    44   ar
     3    42    41    1
     4    41    40    1
     5    35    33   ar
     6    33    34   ar
     7    33    32    1
     8    32    29    1
     9    40    37    1
    10     1     2    1
    11    36    37    1
    12    36    30   am
    13    37    38    1
    14    28    29    1
    15    29    30    1
    16    30    31    2
    17     2     5    1
    18     2     3    1
    19     5     6    1
    20    27    26    2
    21    38    39    2
    22    26    25    1
    23     6     7    1
    24     7     8    1
    25     3    10   am
    26     3     4    2
    27    10    11    1
    28    67    66    1
    29     8     9    1
    30    25    24    1
    31    16    14    1
    32    13    12    2
    33    14    11    1
    34    14    15    1
    35    11    12    1
    36    66    68    1
    37    66    65    1
    38    12    17   am
    39    49    50    1
    40    49    46    1
    41    45    46    1
    42    48    47    2
    43    52    50    1
    44    50    51    1
    45    46    47    1
    46    23    21    1
    47    47    53   am
    48    65    62    1
    49    83    81    1
    50    99    97   ar
    51    17    18    1
    52    82    81    1
    53    98    97   ar
    54    81    78    1
    55    97    96    1
    56    18    21    1
    57    18    19    1
    58    96    95    1
    59    21    22    1
    60    53    54    1
    61    61    62    1
    62    61    55   am
    63    62    63    1
    64    54    55    1
    65    54    57    1
    66    55    56    2
    67    80    79    2
    68    78    77    1
    69    78    79    1
    70    75    74   ar
    71    95    92    1
    72    19    20    2
    73    87    86    2
    74    92    91    1
    75    92    93    1
    76    79    84   am
    77    63    64    2
    78   100    93   am
    79   100   101    1
    80    57    58    1
    81    86    91   am
    82    86    85    1
    83   103   102    2
    84    74    76   ar
    85    74    73    1
    86    59    58    1
    87    93    94    2
    88    84    85    1
    89    84    90    1
    90   101   102    1
    91    70    73    1
    92    70    69    1
    93    70    71    1
    94    58    60    1
    95    72    71    2
    96    85    88    1
    97    90    89    1
    98    88    89    1
    99   104   105    1
   100   114   116   ar
   101   114   111   ar
   102   116   117   ar
   103   107   106    2
   104   108   105    1
   105   108   109    1
   106   105   106    1
   107   111   109   ar
   108   111   113   ar
   109   109   110   ar
   110   117   115   ar
   111   113   115   ar
   112   113   112   ar
   113   110   112   ar
