@<TRIPOS>MOLECULE
tmp/4q6gA01.pdb
 145 144 0 0 0
SMALL
GASTEIGER

@<TRIPOS>ATOM
      1  N         16.9180   45.3710   39.6520 N.3   112  PRO112     -0.2102
      2  CA        16.2430   44.1160   39.3310 C.3   112  PRO112      0.1504
      3  C         15.4170   44.2380   38.0530 C.2   112  PRO112      0.2576
      4  O         15.0380   43.2300   37.4480 O.2   112  PRO112     -0.2718
      5  CB        15.3300   43.8990   40.5420 C.3   112  PRO112      0.0282
      6  CG        15.0000   45.2770   40.9870 C.3   112  PRO112      0.0208
      7  CD        16.2380   46.0960   40.7430 C.3   112  PRO112      0.0893
      8  N         15.1500   45.4780   37.6620 N.am  113  MET113     -0.1966
      9  CA        14.3770   45.7810   36.4770 C.3   113  MET113      0.1736
     10  C         14.7930   47.1350   35.9250 C.2   113  MET113      0.2616
     11  O         15.3240   47.9650   36.6490 O.2   113  MET113     -0.2715
     12  CB        12.8830   45.8080   36.8160 C.3   113  MET113      0.0427
     13  CG        12.5610   46.6500   38.0460 C.3   113  MET113      0.0599
     14  SD        10.8340   46.5770   38.5180 S.3   113  MET113     -0.1393
     15  CE        10.5310   44.8170   38.6960 C.3   113  MET113      0.0692
     16  N         14.5450   47.3420   34.6400 N.am  114  VAL114     -0.1963
     17  CA        14.8520   48.6020   33.9700 C.3   114  VAL114      0.1727
     18  C         13.6660   49.5860   33.9620 C.2   114  VAL114      0.2616
     19  O         13.8410   50.7340   33.5660 O.2   114  VAL114     -0.2715
     20  CB        15.3580   48.3520   32.5240 C.3   114  VAL114      0.0290
     21  CG1       16.0840   49.5670   31.9860 C.3   114  VAL114      0.0023
     22  CG2       16.3340   47.1850   32.4810 C.3   114  VAL114      0.0023
     23  N         12.4910   49.1680   34.4450 N.am  115  ALA115     -0.1977
     24  CA        11.2590   49.9960   34.3830 C.3   115  ALA115      0.1597
     25  C         11.4390   51.3970   34.9060 C.2   115  ALA115      0.2287
     26  O         11.0710   52.3540   34.2280 O.2   115  ALA115     -0.2864
     27  CB        10.1120   49.3380   35.1400 C.3   115  ALA115      0.0319
     28  N         13.1870   53.4200   32.3890 N.3   118  ILE118     -0.1231
     29  CA        12.3730   53.5580   31.1890 C.3   118  ILE118      0.1692
     30  C         11.2700   54.6140   31.4020 C.2   118  ILE118      0.2592
     31  O         11.0410   55.4650   30.5340 O.2   118  ILE118     -0.2718
     32  CB        11.7600   52.2000   30.7880 C.3   118  ILE118      0.0266
     33  CG1       12.8480   51.2370   30.2780 C.3   118  ILE118      0.0019
     34  CG2       10.6640   52.3560   29.7360 C.3   118  ILE118      0.0020
     35  CD1       13.5210   51.6380   28.9790 C.3   118  ILE118      0.0001
     36  N         10.6070   54.5670   32.5570 N.am  119  PHE119     -0.1976
     37  CA         9.5550   55.5380   32.8640 C.3   119  PHE119      0.1639
     38  C         10.1120   56.9460   32.9240 C.2   119  PHE119      0.2290
     39  O          9.5170   57.8600   32.3650 O.2   119  PHE119     -0.2864
     40  CB         8.8370   55.2110   34.1740 C.3   119  PHE119      0.0560
     41  CG         8.0550   53.9250   34.1460 C.ar  119  PHE119     -0.0200
     42  CD1        7.3700   53.5190   33.0100 C.ar  119  PHE119     -0.0042
     43  CD2        7.9810   53.1310   35.2790 C.ar  119  PHE119     -0.0042
     44  CE1        6.6370   52.3430   33.0050 C.ar  119  PHE119     -0.0003
     45  CE2        7.2490   51.9580   35.2770 C.ar  119  PHE119     -0.0003
     46  CZ         6.5820   51.5620   34.1400 C.ar  119  PHE119     -0.0000
     47  N         18.7780   39.7050   40.4280 N.3   143  ARG143     -0.1245
     48  CA        17.8330   39.2570   41.4560 C.3   143  ARG143      0.1563
     49  C         18.3820   38.0230   42.1610 C.2   143  ARG143      0.2260
     50  O         18.7630   37.0670   41.4950 O.2   143  ARG143     -0.2867
     51  CB        16.4820   38.8890   40.8400 C.3   143  ARG143      0.0307
     52  CG        15.7960   40.0070   40.0800 C.3   143  ARG143      0.0489
     53  CD        14.4780   39.5390   39.4880 C.3   143  ARG143      0.2205
     54  NE        13.8380   40.5860   38.6940 N.pl3 143  ARG143     -0.0865
     55  CZ        12.6840   40.4430   38.0470 C.cat 143  ARG143      0.5346
     56  NH1       12.0210   39.2880   38.0880 N.pl3 143  ARG143      0.1354
     57  NH2       12.1890   41.4630   37.3540 N.pl3 143  ARG143      0.1354
     58  N         21.2750   38.3830   34.9510 N.3   155  PHE155     -0.1241
     59  CA        20.6510   38.1450   33.6550 C.3   155  PHE155      0.1605
     60  C         20.6150   39.4130   32.8050 C.2   155  PHE155      0.2264
     61  O         21.1020   40.4620   33.2140 O.2   155  PHE155     -0.2867
     62  CB        19.2660   37.4950   33.8070 C.3   155  PHE155      0.0534
     63  CG        18.2870   38.2880   34.6330 C.ar  155  PHE155     -0.0203
     64  CD1       18.3760   38.2990   36.0200 C.ar  155  PHE155     -0.0042
     65  CD2       17.2430   38.9810   34.0290 C.ar  155  PHE155     -0.0042
     66  CE1       17.4720   39.0180   36.7870 C.ar  155  PHE155     -0.0003
     67  CE2       16.3340   39.6990   34.7950 C.ar  155  PHE155     -0.0003
     68  CZ        16.4500   39.7170   36.1730 C.ar  155  PHE155     -0.0000
     69  N         18.1320   41.7590   30.3480 N.3   157  MET157     -0.1245
     70  CA        16.7600   42.0890   29.9810 C.3   157  MET157      0.1570
     71  C         16.7220   42.9780   28.7630 C.2   157  MET157      0.2261
     72  O         17.4870   43.9330   28.6620 O.2   157  MET157     -0.2867
     73  CB        16.0770   42.8500   31.1090 C.3   157  MET157      0.0387
     74  CG        15.7550   41.9920   32.3120 C.3   157  MET157      0.0595
     75  SD        14.5900   40.6680   31.9600 S.3   157  MET157     -0.1393
     76  CE        13.1820   41.4710   31.1860 C.3   157  MET157      0.0692
     77  N         13.9270   45.4830   27.3910 N.3   159  ASN159     -0.1225
     78  CA        12.6480   46.1490   27.6170 C.3   159  ASN159      0.1785
     79  C         12.3220   47.1790   26.5470 C.2   159  ASN159      0.2597
     80  O         13.1000   48.1000   26.3160 O.2   159  ASN159     -0.2718
     81  CB        12.6520   46.8220   28.9770 C.3   159  ASN159      0.1169
     82  CG        12.5070   45.8200   30.0930 C.2   159  ASN159      0.2627
     83  OD1       13.4880   45.4240   30.7210 O.2   159  ASN159     -0.2716
     84  ND2       11.2890   45.3340   30.2880 N.am  159  ASN159     -0.0877
     85  N         11.1710   47.0190   25.9010 N.am  160  PHE160     -0.1962
     86  CA        10.6720   48.0410   24.9910 C.3   160  PHE160      0.1771
     87  C          9.3840   48.6780   25.5220 C.2   160  PHE160      0.2619
     88  O          8.6610   48.0850   26.3110 O.2   160  PHE160     -0.2715
     89  CB        10.5130   47.4970   23.5690 C.3   160  PHE160      0.0574
     90  CG         9.4300   46.4700   23.4060 C.ar  160  PHE160     -0.0200
     91  CD1        8.1090   46.8540   23.2090 C.ar  160  PHE160     -0.0042
     92  CD2        9.7370   45.1190   23.3830 C.ar  160  PHE160     -0.0042
     93  CE1        7.1150   45.9120   23.0260 C.ar  160  PHE160     -0.0003
     94  CE2        8.7450   44.1680   23.2080 C.ar  160  PHE160     -0.0003
     95  CZ         7.4320   44.5680   23.0310 C.ar  160  PHE160     -0.0000
     96  N          9.1190   49.8980   25.0750 N.am  161  PHE161     -0.1974
     97  CA         8.1060   50.7370   25.6870 C.3   161  PHE161      0.1639
     98  C          7.6380   51.7420   24.6590 C.2   161  PHE161      0.2290
     99  O          8.4570   52.3720   23.9890 O.2   161  PHE161     -0.2864
    100  CB         8.7290   51.4560   26.8930 C.3   161  PHE161      0.0560
    101  CG         7.8140   52.4350   27.5950 C.ar  161  PHE161     -0.0200
    102  CD1        7.0050   52.0260   28.6500 C.ar  161  PHE161     -0.0042
    103  CD2        7.8130   53.7770   27.2450 C.ar  161  PHE161     -0.0042
    104  CE1        6.1860   52.9310   29.3200 C.ar  161  PHE161     -0.0003
    105  CE2        6.9960   54.6840   27.9100 C.ar  161  PHE161     -0.0003
    106  CZ         6.1780   54.2570   28.9460 C.ar  161  PHE161     -0.0000
    107  N          2.8310   44.2690   38.5260 N.3   197  TYR197     -0.1241
    108  CA         2.2170   45.4410   37.8810 C.3   197  TYR197      0.1605
    109  C          0.6800   45.3970   37.9540 C.2   197  TYR197      0.2264
    110  O          0.0560   46.3090   38.5000 O.2   197  TYR197     -0.2867
    111  CB         2.6720   45.5450   36.4180 C.3   197  TYR197      0.0534
    112  CG         4.1650   45.7510   36.2470 C.ar  197  TYR197     -0.0201
    113  CD1        5.0490   44.6760   36.3210 C.ar  197  TYR197     -0.0009
    114  CD2        4.6940   47.0180   36.0050 C.ar  197  TYR197     -0.0009
    115  CE1        6.4120   44.8570   36.1670 C.ar  197  TYR197      0.0417
    116  CE2        6.0580   47.2060   35.8470 C.ar  197  TYR197      0.0417
    117  CZ         6.9090   46.1190   35.9310 C.ar  197  TYR197      0.1957
    118  OH         8.2620   46.2770   35.7820 O.3   197  TYR197     -0.2866
    119  N          0.2050   53.6510   27.4960 N.3   230  TRP230     -0.1241
    120  CA         1.4910   53.0400   27.1850 C.3   230  TRP230      0.1605
    121  C          1.4000   51.5310   27.0790 C.2   230  TRP230      0.2264
    122  O          0.4660   50.9060   27.5970 O.2   230  TRP230     -0.2867
    123  CB         2.5650   53.4590   28.2020 C.3   230  TRP230      0.0550
    124  CG         2.3760   52.9230   29.5840 C.ar  230  TRP230      0.0003
    125  CD1        1.6560   53.4900   30.5930 C.ar  230  TRP230      0.0946
    126  CD2        2.9440   51.7210   30.1210 C.ar  230  TRP230      0.0152
    127  NE1        1.7320   52.7090   31.7230 N.ar  230  TRP230     -0.2442
    128  CE2        2.5150   51.6180   31.4590 C.ar  230  TRP230      0.0810
    129  CE3        3.7650   50.7190   29.5970 C.ar  230  TRP230      0.0012
    130  CZ2        2.8800   50.5500   32.2830 C.ar  230  TRP230      0.0191
    131  CZ3        4.1330   49.6600   30.4160 C.ar  230  TRP230      0.0001
    132  CH2        3.6880   49.5830   31.7440 C.ar  230  TRP230      0.0015
    133  N          4.2890   47.9750   26.9040 N.3   232  GLY232     -0.1210
    134  CA         5.6570   47.5910   27.1940 C.3   232  GLY232      0.1956
    135  C          5.7920   46.1200   27.5000 C.2   232  GLY232      0.2612
    136  O          4.8180   45.4620   27.8650 O.2   232  GLY232     -0.2717
    137  N          7.0100   45.6120   27.3410 N.am  233  ALA233     -0.1965
    138  CA         7.3160   44.2190   27.6410 C.3   233  ALA233      0.1728
    139  C          8.8010   44.0340   27.9090 C.2   233  ALA233      0.2616
    140  O          9.6420   44.7440   27.3470 O.2   233  ALA233     -0.2715
    141  CB         6.8910   43.3240   26.4920 C.3   233  ALA233      0.0334
    142  N          9.1010   43.0550   28.7560 N.am  234  GLY234     -0.1955
    143  CA        10.4590   42.6930   29.1160 C.3   234  GLY234      0.1869
    144  C         10.7230   41.2420   28.7880 C.2   234  GLY234      0.2309
    145  O          9.9160   40.3760   29.1190 O.2   234  GLY234     -0.2863
@<TRIPOS>BOND
     1    93    95   ar
     2    93    91   ar
     3    95    94   ar
     4    94    92   ar
     5    91    90   ar
     6    92    90   ar
     7    90    89    1
     8    89    86    1
     9    99    98    2
    10    98    97    1
    11    86    87    1
    12    86    85    1
    13    96    87   am
    14    96    97    1
    15    87    88    2
    16    97   100    1
    17    85    79   am
    18    80    79    2
    19   141   138    1
    20    79    78    1
    21   100   101    1
    22   133   134    1
    23   121   120    1
    24   121   122    2
    25   120   119    1
    26   120   123    1
    27   134   135    1
    28   103   101   ar
    29   103   105   ar
    30   137   135   am
    31   137   138    1
    32   140   139    2
    33    77    78    1
    34   135   136    2
    35   101   102   ar
    36    78    81    1
    37   138   139    1
    38   139   142   am
    39   105   106   ar
    40   123   124    1
    41   102   104   ar
    42    72    71    2
    43   142   143    1
    44    71    70    1
    45   144   143    1
    46   144   145    2
    47   106   104   ar
    48    81    82    1
    49    35    33    1
    50   124   126   ar
    51   124   125   ar
    52   129   126   ar
    53   129   131   ar
    54    34    32    1
    55    70    69    1
    56    70    73    1
    57    82    84   am
    58    82    83    2
    59   126   128   ar
    60    33    32    1
    61   131   132   ar
    62    31    30    2
    63   125   127   ar
    64    32    29    1
    65    73    74    1
    66    76    75    1
    67    29    30    1
    68    29    28    1
    69    30    36   am
    70   128   127   ar
    71   128   130   ar
    72   132   130   ar
    73    75    74    1
    74    21    20    1
    75    39    38    2
    76    22    20    1
    77    20    17    1
    78    36    37    1
    79    60    61    2
    80    60    59    1
    81    37    38    1
    82    37    40    1
    83    44    42   ar
    84    44    46   ar
    85    42    41   ar
    86    19    18    2
    87    59    62    1
    88    59    58    1
    89    62    63    1
    90    18    17    1
    91    18    23   am
    92    17    16    1
    93    65    63   ar
    94    65    67   ar
    95    46    45   ar
    96    41    40    1
    97    41    43   ar
    98    26    25    2
    99    24    23    1
   100    24    25    1
   101    24    27    1
   102    63    64   ar
   103    16    10   am
   104    67    68   ar
   105    45    43   ar
   106   118   117    1
   107   116   117   ar
   108   116   114   ar
   109    10     9    1
   110    10    11    2
   111   117   115   ar
   112   114   112   ar
   113    64    66   ar
   114   115   113   ar
   115    68    66   ar
   116   112   113   ar
   117   112   111    1
   118   111   108    1
   119     9    12    1
   120     9     8    1
   121    12    13    1
   122    57    55    1
   123     4     3    2
   124     8     3   am
   125   108   109    1
   126   108   107    1
   127   109   110    2
   128    13    14    1
   129    55    56    1
   130    55    54    2
   131     3     2    1
   132    14    15    1
   133    54    53    1
   134     2     1    1
   135     2     5    1
   136    53    52    1
   137     1     7    1
   138    52    51    1
   139    47    48    1
   140     5     6    1
   141     7     6    1
   142    51    48    1
   143    48    49    1
   144    50    49    2
