@<TRIPOS>MOLECULE
tmp/4q6nA00.pdb
 211 200 0 0 0
SMALL
GASTEIGER

@<TRIPOS>ATOM
      1  N         29.0780   -7.1050   -1.3990 N.3    25  GLN25      -0.1245
      2  CA        29.1430   -8.5340   -1.6880 C.3    25  GLN25       0.1566
      3  C         28.4160   -8.7830   -2.9890 C.2    25  GLN25       0.2260
      4  O         27.2930   -8.2940   -3.1940 O.2    25  GLN25      -0.2867
      5  CB        28.5230   -9.3830   -0.5710 C.3    25  GLN25       0.0367
      6  CG        29.5040   -9.6730    0.5480 C.3    25  GLN25       0.0905
      7  CD        29.5590   -8.5910    1.5800 C.2    25  GLN25       0.2608
      8  OE1       28.5500   -7.9240    1.8610 O.2    25  GLN25      -0.2717
      9  NE2       30.7380   -8.4190    2.1920 N.am   25  GLN25      -0.0878
     10  N         24.5990  -10.5490   -3.3000 N.3    28  GLU28      -0.1245
     11  CA        23.5290   -9.9410   -2.5210 C.3    28  GLU28       0.1567
     12  C         22.6980   -9.0340   -3.4160 C.2    28  GLU28       0.2260
     13  O         22.7580   -7.8030   -3.3200 O.2    28  GLU28      -0.2867
     14  CB        24.0900   -9.1930   -1.3110 C.3    28  GLU28       0.0388
     15  CG        24.7120  -10.1720   -0.3190 C.3    28  GLU28       0.1160
     16  CD        25.3080   -9.5390    0.9220 C.2    28  GLU28       0.3649
     17  OE1       25.0640   -8.3470    1.2460 O.co2  28  GLU28      -0.2457
     18  OE2       26.0060  -10.2820    1.6540 O.co2  28  GLU28      -0.2457
     19  N         30.4400  -13.8520   -3.6620 N.3    65  ARG65      -0.1245
     20  CA        30.4480  -12.9710   -2.4970 C.3    65  ARG65       0.1563
     21  C         31.6110  -11.9640   -2.5370 C.2    65  ARG65       0.2260
     22  O         31.4750  -10.8150   -2.1080 O.2    65  ARG65      -0.2867
     23  CB        30.4610  -13.7960   -1.2020 C.3    65  ARG65       0.0307
     24  CG        29.9900  -12.9930   -0.0050 C.3    65  ARG65       0.0489
     25  CD        29.8830  -13.7850    1.2960 C.3    65  ARG65       0.2205
     26  NE        28.9570  -13.0850    2.1980 N.pl3  65  ARG65      -0.0865
     27  CZ        29.3260  -12.2630    3.1720 C.cat  65  ARG65       0.5346
     28  NH1       30.6130  -12.0540    3.4270 N.pl3  65  ARG65       0.1354
     29  NH2       28.3940  -11.6550    3.9040 N.pl3  65  ARG65       0.1354
     30  N         36.5940  -10.4460    1.4270 N.3    70  ASP70      -0.1239
     31  CA        35.4770   -9.6520    1.9110 C.3    70  ASP70       0.1674
     32  C         35.8290   -8.1640    1.8160 C.2    70  ASP70       0.2266
     33  O         36.5980   -7.6540    2.6260 O.2    70  ASP70      -0.2867
     34  CB        35.1310  -10.0660    3.3470 C.3    70  ASP70       0.1410
     35  CG        33.8450   -9.4440    3.8380 C.2    70  ASP70       0.3668
     36  OD1       33.4030   -8.4510    3.2360 O.co2  70  ASP70      -0.2456
     37  OD2       33.2770   -9.9460    4.8310 O.co2  70  ASP70      -0.2456
     38  N         34.1330   -5.7410    2.6080 N.3    72  ASN72      -0.1225
     39  CA        33.6430   -5.0160    3.7890 C.3    72  ASN72       0.1785
     40  C         34.4500   -5.2640    5.0530 C.2    72  ASN72       0.2597
     41  O         33.9660   -5.0130    6.1620 O.2    72  ASN72      -0.2718
     42  CB        32.1560   -5.2910    4.0640 C.3    72  ASN72       0.1169
     43  CG        31.4730   -4.1430    4.8140 C.2    72  ASN72       0.2627
     44  OD1       31.9170   -3.0010    4.7290 O.2    72  ASN72      -0.2716
     45  ND2       30.3960   -4.4410    5.5400 N.am   72  ASN72      -0.0877
     46  N         35.6640   -5.7880    4.8660 N.am   73  ARG73      -0.1979
     47  CA        36.6390   -5.9230    5.9550 C.3    73  ARG73       0.1597
     48  C         37.9080   -5.1330    5.6160 C.2    73  ARG73       0.2287
     49  O         38.9730   -5.3300    6.2220 O.2    73  ARG73      -0.2864
     50  CB        36.9320   -7.3980    6.2510 C.3    73  ARG73       0.0334
     51  CG        35.7580   -8.1820    6.8310 C.3    73  ARG73       0.0492
     52  CD        35.2210   -7.5950    8.1410 C.3    73  ARG73       0.2205
     53  NE        34.1120   -8.3920    8.6620 N.pl3  73  ARG73      -0.0865
     54  CZ        32.8200   -8.1750    8.4110 C.cat  73  ARG73       0.5346
     55  NH1       32.4290   -7.1430    7.6610 N.pl3  73  ARG73       0.1354
     56  NH2       31.9060   -8.9900    8.9280 N.pl3  73  ARG73       0.1354
     57  N         24.0490    1.8090    3.5960 N.3   105  HIS105     -0.1241
     58  CA        24.7620    0.6780    2.9900 C.3   105  HIS105      0.1621
     59  C         23.8420   -0.5240    3.0030 C.2   105  HIS105      0.2264
     60  O         23.4340   -0.9620    4.0920 O.2   105  HIS105     -0.2867
     61  CB        26.0330    0.4150    3.8130 C.3   105  HIS105      0.0745
     62  CG        27.0170   -0.4990    3.1400 C.ar  105  HIS105      0.0817
     63  ND1       28.0110   -1.1260    3.8130 N.ar  105  HIS105     -0.2268
     64  CD2       27.1090   -0.9200    1.8070 C.ar  105  HIS105      0.1154
     65  CE1       28.7170   -1.8850    2.9420 C.ar  105  HIS105      0.1986
     66  NE2       28.1740   -1.7590    1.7250 N.ar  105  HIS105     -0.2212
     67  N         22.5410   -4.4360    2.2070 N.3   107  HIS107     -0.1226
     68  CA        23.0290   -5.8260    2.2700 C.3   107  HIS107      0.1752
     69  C         21.8720   -6.7910    2.1860 C.2   107  HIS107      0.2596
     70  O         20.7390   -6.4850    2.5830 O.2   107  HIS107     -0.2718
     71  CB        23.6720   -6.1140    3.6410 C.3   107  HIS107      0.0759
     72  CG        24.9080   -5.3120    3.9460 C.ar  107  HIS107      0.0818
     73  ND1       26.1490   -5.7660    3.7000 N.ar  107  HIS107     -0.2268
     74  CD2       25.0520   -4.0650    4.5430 C.ar  107  HIS107      0.1154
     75  CE1       27.0440   -4.8160    4.0820 C.ar  107  HIS107      0.1986
     76  NE2       26.3670   -3.7950    4.5980 N.ar  107  HIS107     -0.2212
     77  N         22.1720   -8.0030    1.7440 N.am  108  ASP108     -0.1960
     78  CA        21.2350   -9.1100    1.9640 C.3   108  ASP108      0.1840
     79  C         21.8500  -10.0560    2.9760 C.2   108  ASP108      0.2623
     80  O         23.0420  -10.3420    2.9070 O.2   108  ASP108     -0.2715
     81  CB        20.9930   -9.9090    0.6850 C.3   108  ASP108      0.1450
     82  CG        20.3570   -9.1110   -0.4420 C.2   108  ASP108      0.3671
     83  OD1       19.8870   -7.9510   -0.2520 O.co2 108  ASP108     -0.2456
     84  OD2       20.2840   -9.7050   -1.5410 O.co2 108  ASP108     -0.2456
     85  N         21.0360  -10.5670    3.8960 N.am  109  GLY109     -0.1940
     86  CA        21.5830  -11.3570    5.0090 C.3   109  GLY109      0.2014
     87  C         20.7260  -12.5500    5.3850 C.2   109  GLY109      0.2639
     88  O         19.5200  -12.4980    5.2710 O.2   109  GLY109     -0.2714
     89  N         21.3710  -13.6100    5.8520 N.am  110  GLY110     -0.1954
     90  CA        20.6520  -14.8350    6.1890 C.3   110  GLY110      0.1869
     91  C         19.6650  -14.7190    7.3300 C.2   110  GLY110      0.2309
     92  O         19.8130  -13.9150    8.2560 O.2   110  GLY110     -0.2863
     93  N         22.3830  -14.0470   15.9330 N.3   125  LYS125     -0.1231
     94  CA        23.4850  -14.3540   15.0270 C.3   125  LYS125      0.1693
     95  C         23.0660  -14.0730   13.5860 C.2   125  LYS125      0.2592
     96  O         23.9190  -13.9720   12.7070 O.2   125  LYS125     -0.2718
     97  CB        23.9470  -15.8180   15.1450 C.3   125  LYS125      0.0285
     98  CG        24.2600  -16.3060   16.5550 C.3   125  LYS125      0.0035
     99  CD        25.4640  -15.5970   17.1490 C.3   125  LYS125      0.0206
    100  CE        25.5630  -15.8370   18.6490 C.3   125  LYS125      0.1093
    101  NZ        26.0440  -17.2070   18.9970 N.3   125  LYS125     -0.1314
    102  N         21.7560  -13.9470   13.3570 N.am  126  ARG126     -0.1966
    103  CA        21.2370  -13.7720   12.0020 C.3   126  ARG126      0.1729
    104  C         21.2180  -12.3080   11.6070 C.2   126  ARG126      0.2616
    105  O         21.2770  -11.4220   12.4550 O.2   126  ARG126     -0.2715
    106  CB        19.8370  -14.3750   11.8500 C.3   126  ARG126      0.0348
    107  CG        19.6850  -15.8270   12.3160 C.3   126  ARG126      0.0492
    108  CD        20.9060  -16.7070   12.0480 C.3   126  ARG126      0.2205
    109  NE        21.2270  -16.8220   10.6280 N.pl3 126  ARG126     -0.0865
    110  CZ        20.6380  -17.6600    9.7820 C.cat 126  ARG126      0.5346
    111  NH1       19.6740  -18.4650   10.1990 N.pl3 126  ARG126      0.1354
    112  NH2       21.0180  -17.6910    8.5140 N.pl3 126  ARG126      0.1354
    113  N         21.1080  -12.0640   10.3020 N.am  127  TRP127     -0.1974
    114  CA        21.2240  -10.7070    9.7790 C.3   127  TRP127      0.1640
    115  C         20.0320  -10.1790    9.0100 C.2   127  TRP127      0.2290
    116  O         19.9600   -9.0040    8.7530 O.2   127  TRP127     -0.2864
    117  CB        22.5010  -10.5990    8.9420 C.3   127  TRP127      0.0576
    118  CG        23.7570  -10.6650    9.7940 C.ar  127  TRP127      0.0006
    119  CD1       24.4480  -11.8050   10.2010 C.ar  127  TRP127      0.0946
    120  CD2       24.4810   -9.5430   10.4050 C.ar  127  TRP127      0.0152
    121  NE1       25.5290  -11.4710   10.9860 N.ar  127  TRP127     -0.2442
    122  CE2       25.6090  -10.1300   11.1380 C.ar  127  TRP127      0.0810
    123  CE3       24.3300   -8.1520   10.3960 C.ar  127  TRP127      0.0012
    124  CZ2       26.5230   -9.3430   11.8330 C.ar  127  TRP127      0.0191
    125  CZ3       25.2510   -7.3740   11.1050 C.ar  127  TRP127      0.0001
    126  CH2       26.3270   -7.9580   11.8000 C.ar  127  TRP127      0.0015
    127  N         20.6860   -1.2670   10.9520 N.3   132  ILE132     -0.1245
    128  CA        21.8760   -1.4260   11.7890 C.3   132  ILE132      0.1561
    129  C         22.6340   -0.1120   11.9720 C.2   132  ILE132      0.2260
    130  O         22.9090    0.6110   11.0110 O.2   132  ILE132     -0.2867
    131  CB        22.8450   -2.4680   11.2030 C.3   132  ILE132      0.0252
    132  CG1       22.0900   -3.7600   10.8730 C.3   132  ILE132      0.0019
    133  CG2       23.9740   -2.7720   12.1840 C.3   132  ILE132      0.0019
    134  CD1       22.8890   -4.7810   10.0960 C.3   132  ILE132      0.0001
    135  N         26.1690    1.5090   14.2400 N.3   134  ASP134     -0.1239
    136  CA        27.3900    1.1610   14.9610 C.3   134  ASP134      0.1674
    137  C         27.3700    1.6220   16.4140 C.2   134  ASP134      0.2266
    138  O         28.0890    1.0700   17.2390 O.2   134  ASP134     -0.2867
    139  CB        28.6180    1.7670   14.2710 C.3   134  ASP134      0.1410
    140  CG        28.9320    1.1000   12.9550 C.2   134  ASP134      0.3668
    141  OD1       29.5520    0.0190   12.9690 O.co2 134  ASP134     -0.2456
    142  OD2       28.5600    1.6600   11.9090 O.co2 134  ASP134     -0.2456
    143  N         25.4310   -2.6410   16.7620 N.3   173  THR173     -0.1218
    144  CA        26.6280   -3.4820   16.9430 C.3   173  THR173      0.1862
    145  C         27.6320   -2.9560   17.9850 C.2   173  THR173      0.2287
    146  O         28.5970   -3.6520   18.3110 O.2   173  THR173     -0.2866
    147  CB        27.3730   -3.7760   15.6130 C.3   173  THR173      0.1770
    148  OG1       27.7430   -2.5410   14.9860 O.3   173  THR173     -0.2211
    149  CG2       26.4840   -4.5880   14.6640 C.3   173  THR173      0.0375
    150  N         33.3670   -5.6030   12.7560 N.3   182  MET182     -0.1245
    151  CA        32.6680   -4.3910   12.3470 C.3   182  MET182      0.1570
    152  C         33.6090   -3.1940   12.3500 C.2   182  MET182      0.2261
    153  O         33.3690   -2.2210   11.6290 O.2   182  MET182     -0.2867
    154  CB        31.4330   -4.1160   13.2150 C.3   182  MET182      0.0387
    155  CG        30.2170   -5.0120   12.9670 C.3   182  MET182      0.0595
    156  SD        29.7370   -5.2450   11.2340 S.3   182  MET182     -0.1393
    157  CE        30.6250   -6.7460   10.8530 C.3   182  MET182      0.0692
    158  N         34.6860   -2.4930    8.9000 N.3   185  ALA185     -0.1231
    159  CA        33.6180   -2.3340    7.8980 C.3   185  ALA185      0.1694
    160  C         33.2910   -0.9010    7.5350 C.2   185  ALA185      0.2592
    161  O         33.7340    0.0480    8.1790 O.2   185  ALA185     -0.2718
    162  CB        32.3580   -3.0490    8.3530 C.3   185  ALA185      0.0304
    163  N         32.4390   -0.7710    6.5230 N.am  186  LEU186     -0.1966
    164  CA        32.1920    0.5060    5.8940 C.3   186  LEU186      0.1728
    165  C         31.5210    1.5230    6.8220 C.2   186  LEU186      0.2617
    166  O         31.9560    2.6850    6.8720 O.2   186  LEU186     -0.2715
    167  CB        31.3430    0.2980    4.6260 C.3   186  LEU186      0.0311
    168  CG        31.1210    1.5170    3.7310 C.3   186  LEU186      0.0022
    169  CD1       30.8510    1.0240    2.3070 C.3   186  LEU186      0.0001
    170  CD2       29.9530    2.3650    4.2210 C.3   186  LEU186      0.0001
    171  N         30.4480    1.1410    7.5140 N.am  187  THR187     -0.1937
    172  CA        29.7120    2.1610    8.2930 C.3   187  THR187      0.2028
    173  C         30.5320    2.6990    9.4680 C.2   187  THR187      0.2642
    174  O         30.3910    3.8720    9.8230 O.2   187  THR187     -0.2714
    175  CB        28.3030    1.7220    8.7500 C.3   187  THR187      0.1808
    176  OG1       28.3950    0.5620    9.5770 O.3   187  THR187     -0.2208
    177  CG2       27.3880    1.4570    7.5460 C.3   187  THR187      0.0379
    178  N         31.3820    1.8600   10.0590 N.am  188  PHE188     -0.1973
    179  CA        32.2080    2.3460   11.1590 C.3   188  PHE188      0.1639
    180  C         33.1910    3.3730   10.6110 C.2   188  PHE188      0.2290
    181  O         33.4450    4.3990   11.2540 O.2   188  PHE188     -0.2864
    182  CB        32.9720    1.2050   11.8070 C.3   188  PHE188      0.0560
    183  CG        33.6550    1.5920   13.0920 C.ar  188  PHE188     -0.0200
    184  CD1       32.9240    2.1180   14.1580 C.ar  188  PHE188     -0.0042
    185  CD2       35.0200    1.4200   13.2280 C.ar  188  PHE188     -0.0042
    186  CE1       33.5640    2.4630   15.3560 C.ar  188  PHE188     -0.0003
    187  CE2       35.6680    1.7540   14.4170 C.ar  188  PHE188     -0.0003
    188  CZ        34.9320    2.2740   15.4740 C.ar  188  PHE188     -0.0000
    189  N         23.1740    0.7050    8.0310 N.3   199  ALA199     -0.1245
    190  CA        23.0810   -0.3900    7.0950 C.3   199  ALA199      0.1562
    191  C         21.6860   -0.9710    7.1370 C.2   199  ALA199      0.2260
    192  O         21.0900   -1.1660    8.1930 O.2   199  ALA199     -0.2867
    193  CB        24.1010   -1.4800    7.4130 C.3   199  ALA199      0.0290
    194  N         19.6730   -4.4360    6.0890 N.3   201  GLU201     -0.1245
    195  CA        19.6760   -5.8360    5.6740 C.3   201  GLU201      0.1567
    196  C         18.3060   -6.3140    5.2270 C.2   201  GLU201      0.2260
    197  O         17.3310   -6.1230    5.9470 O.2   201  GLU201     -0.2867
    198  CB        20.0700   -6.7010    6.8710 C.3   201  GLU201      0.0388
    199  CG        21.5460   -6.6470    7.2180 C.3   201  GLU201      0.1160
    200  CD        22.3830   -7.5940    6.3890 C.2   201  GLU201      0.3649
    201  OE1       21.8590   -8.1960    5.4450 O.co2 201  GLU201     -0.2457
    202  OE2       23.5910   -7.6950    6.6610 O.co2 201  GLU201     -0.2457
    203  N         17.8700  -12.9480    3.0050 N.3   204  LYS204     -0.1245
    204  CA        18.1100  -13.8500    1.8700 C.3   204  LYS204      0.1561
    205  C         17.0170  -14.9070    1.7510 C.2   204  LYS204      0.2260
    206  O         16.8960  -15.5500    0.7180 O.2   204  LYS204     -0.2867
    207  CB        19.4680  -14.5350    2.0010 C.3   204  LYS204      0.0271
    208  CG        20.6510  -13.6100    1.7330 C.3   204  LYS204      0.0035
    209  CD        21.9610  -14.3430    2.0260 C.3   204  LYS204      0.0206
    210  CE        23.1590  -13.5360    1.5250 C.3   204  LYS204      0.1093
    211  NZ        24.4410  -14.3090    1.6750 N.3   204  LYS204     -0.1314
@<TRIPOS>BOND
     1    19    20    1
     2    12    13    2
     3    12    11    1
     4    10    11    1
     5     4     3    2
     6     3     2    1
     7    21    20    1
     8    21    22    2
     9    11    14    1
    10    20    23    1
    11     2     1    1
    12     2     5    1
    13    84    82   ar
    14    14    15    1
    15    23    24    1
    16     5     6    1
    17    82    83   ar
    18    82    81    1
    19    15    16    1
    20    24    25    1
    21     6     7    1
    22    81    78    1
    23   206   205    2
    24    16    17   ar
    25    16    18   ar
    26    25    26    1
    27    30    31    1
    28   210   211    1
    29   210   209    1
    30     7     8    2
    31     7     9   am
    32    66    64   ar
    33    66    65   ar
    34   208   207    1
    35   208   209    1
    36    77    78    1
    37    77    69   am
    38   205   204    1
    39    64    62   ar
    40    32    31    1
    41    32    33    2
    42   204   207    1
    43   204   203    1
    44    31    34    1
    45    78    79    1
    46    69    68    1
    47    69    70    2
    48    26    27    2
    49    67    68    1
    50    68    71    1
    51   169   168    1
    52    38    39    1
    53    80    79    2
    54    65    63   ar
    55    79    85   am
    56    58    59    1
    57    58    57    1
    58    58    61    1
    59    59    60    2
    60    62    63   ar
    61    62    61    1
    62    27    28    1
    63    27    29    1
    64    36    35   ar
    65    34    35    1
    66    71    72    1
    67    73    72   ar
    68    73    75   ar
    69   168   170    1
    70   168   167    1
    71    39    42    1
    72    39    40    1
    73    35    37   ar
    74    85    86    1
    75    72    74   ar
    76    42    43    1
    77    75    76   ar
    78    74    76   ar
    79   167   164    1
    80    44    43    2
    81    43    45   am
    82    46    40   am
    83    46    47    1
    84    86    87    1
    85    40    41    2
    86   196   195    1
    87   196   197    2
    88    88    87    2
    89    87    89   am
    90   201   200   ar
    91    48    47    1
    92    48    49    2
    93   195   194    1
    94   195   198    1
    95    89    90    1
    96   164   163    1
    97   164   165    1
    98    47    50    1
    99    90    91    1
   100    50    51    1
   101   200   202   ar
   102   200   199    1
   103   163   160   am
   104   165   166    2
   105   165   171   am
   106    51    52    1
   107   198   199    1
   108   190   191    1
   109   190   193    1
   110   190   189    1
   111   191   192    2
   112    91    92    2
   113   171   172    1
   114   160   159    1
   115   160   161    2
   116   177   175    1
   117    55    54    1
   118   159   162    1
   119   159   158    1
   120    52    53    1
   121   172   175    1
   122   172   173    1
   123    54    53    2
   124    54    56    1
   125   112   110    1
   126   175   176    1
   127   116   115    2
   128   117   114    1
   129   117   118    1
   130   115   114    1
   131   173   174    2
   132   173   178   am
   133   114   113    1
   134   110   111    1
   135   110   109    2
   136   118   119   ar
   137   118   120   ar
   138   178   179    1
   139   134   132    1
   140   119   121   ar
   141   113   104   am
   142   123   120   ar
   143   123   125   ar
   144   120   122   ar
   145   180   179    1
   146   180   181    2
   147   109   108    1
   148   157   156    1
   149   132   131    1
   150   127   128    1
   151   121   122   ar
   152   130   129    2
   153   125   126   ar
   154   122   124   ar
   155   179   182    1
   156   131   128    1
   157   131   133    1
   158   156   155    1
   159   104   103    1
   160   104   105    2
   161   153   152    2
   162   128   129    1
   163   126   124   ar
   164   182   183    1
   165   106   103    1
   166   106   107    1
   167   142   140   ar
   168   103   102    1
   169   108   107    1
   170   151   152    1
   171   151   150    1
   172   151   154    1
   173    96    95    2
   174   140   141   ar
   175   140   139    1
   176   155   154    1
   177   183   185   ar
   178   183   184   ar
   179   185   187   ar
   180   102    95   am
   181    95    94    1
   182   184   186   ar
   183   135   136    1
   184   139   136    1
   185   187   188   ar
   186   149   147    1
   187   136   137    1
   188   148   147    1
   189    94    97    1
   190    94    93    1
   191    97    98    1
   192   186   188   ar
   193   147   144    1
   194   137   138    2
   195    98    99    1
   196   143   144    1
   197   144   145    1
   198    99   100    1
   199   145   146    2
   200   100   101    1
