@<TRIPOS>MOLECULE
tmp/4q6oA00.pdb
 135 126 0 0 0
SMALL
GASTEIGER

@<TRIPOS>ATOM
      1  N        -28.7540   -7.1060    1.3820 N.3    25  GLN25      -0.1245
      2  CA       -28.8210   -8.5310    1.7130 C.3    25  GLN25       0.1566
      3  C        -28.0760   -8.7770    3.0070 C.2    25  GLN25       0.2260
      4  O        -26.9510   -8.3130    3.1810 O.2    25  GLN25      -0.2867
      5  CB       -28.2940   -9.4050    0.5740 C.3    25  GLN25       0.0367
      6  CG       -29.3220   -9.5650   -0.5440 C.3    25  GLN25       0.0905
      7  CD       -29.2580   -8.5150   -1.6130 C.2    25  GLN25       0.2608
      8  OE1      -28.1770   -7.9970   -1.9640 O.2    25  GLN25      -0.2717
      9  NE2      -30.4240   -8.2030   -2.1780 N.am   25  GLN25      -0.0878
     10  N        -36.2600  -10.3140   -1.5820 N.3    70  ASP70      -0.1239
     11  CA       -35.1340   -9.5290   -2.0600 C.3    70  ASP70       0.1674
     12  C        -35.4750   -8.0440   -1.9470 C.2    70  ASP70       0.2266
     13  O        -36.2460   -7.5120   -2.7370 O.2    70  ASP70      -0.2867
     14  CB       -34.7500   -9.9100   -3.4950 C.3    70  ASP70       0.1410
     15  CG       -33.4250   -9.2940   -3.9270 C.2    70  ASP70       0.3668
     16  OD1      -32.9650   -8.3090   -3.2890 O.co2  70  ASP70      -0.2456
     17  OD2      -32.8530   -9.7920   -4.9190 O.co2  70  ASP70      -0.2456
     18  N        -33.6820   -5.6040   -2.6500 N.3    72  ASN72      -0.1225
     19  CA       -33.1820   -4.8890   -3.8220 C.3    72  ASN72       0.1785
     20  C        -33.9650   -5.1780   -5.1060 C.2    72  ASN72       0.2597
     21  O        -33.4580   -4.9490   -6.1990 O.2    72  ASN72      -0.2718
     22  CB       -31.6880   -5.1460   -4.0510 C.3    72  ASN72       0.1169
     23  CG       -31.0250   -4.0060   -4.8000 C.2    72  ASN72       0.2627
     24  OD1      -31.4900   -2.8680   -4.7320 O.2    72  ASN72      -0.2716
     25  ND2      -29.9650   -4.2900   -5.5070 N.am   72  ASN72      -0.0877
     26  N        -35.1760   -5.7090   -4.9660 N.am   73  ARG73      -0.1979
     27  CA       -36.1080   -5.8240   -6.0950 C.3    73  ARG73       0.1597
     28  C        -37.4180   -5.1000   -5.7640 C.2    73  ARG73       0.2287
     29  O        -38.4530   -5.3480   -6.3920 O.2    73  ARG73      -0.2864
     30  CB       -36.3420   -7.3000   -6.4420 C.3    73  ARG73       0.0334
     31  CG       -35.1030   -8.0450   -6.9260 C.3    73  ARG73       0.0492
     32  CD       -34.5700   -7.5820   -8.2810 C.3    73  ARG73       0.2205
     33  NE       -33.4010   -8.3840   -8.6710 N.pl3  73  ARG73      -0.0865
     34  CZ       -32.1300   -8.0940   -8.3810 C.cat  73  ARG73       0.5346
     35  NH1      -31.8040   -6.9770   -7.7220 N.pl3  73  ARG73       0.1354
     36  NH2      -31.1640   -8.9350   -8.7520 N.pl3  73  ARG73       0.1354
     37  N        -23.6190    1.8430   -3.5640 N.3   105  HIS105     -0.1241
     38  CA       -24.3480    0.7360   -2.9430 C.3   105  HIS105      0.1621
     39  C        -23.4480   -0.4940   -2.9600 C.2   105  HIS105      0.2264
     40  O        -22.9840   -0.9070   -4.0310 O.2   105  HIS105     -0.2867
     41  CB       -25.6190    0.4730   -3.7540 C.3   105  HIS105      0.0745
     42  CG       -26.6160   -0.4260   -3.0880 C.ar  105  HIS105      0.0817
     43  ND1      -27.6480   -1.0270   -3.7720 N.ar  105  HIS105     -0.2268
     44  CD2      -26.7340   -0.8350   -1.8030 C.ar  105  HIS105      0.1154
     45  CE1      -28.3550   -1.7710   -2.9380 C.ar  105  HIS105      0.1986
     46  NE2      -27.8330   -1.6590   -1.7330 N.ar  105  HIS105     -0.2212
     47  N        -22.2310   -4.4880   -2.1530 N.3   107  HIS107     -0.1241
     48  CA       -22.7400   -5.8690   -2.1850 C.3   107  HIS107      0.1621
     49  C        -21.5730   -6.8420   -2.0910 C.2   107  HIS107      0.2264
     50  O        -20.4230   -6.4900   -2.4130 O.2   107  HIS107     -0.2867
     51  CB       -23.4050   -6.1710   -3.5250 C.3   107  HIS107      0.0745
     52  CG       -24.5820   -5.3040   -3.8400 C.ar  107  HIS107      0.0817
     53  ND1      -25.8760   -5.6590   -3.5380 N.ar  107  HIS107     -0.2268
     54  CD2      -24.6580   -4.1090   -4.4700 C.ar  107  HIS107      0.1154
     55  CE1      -26.6940   -4.7030   -3.9340 C.ar  107  HIS107      0.1986
     56  NE2      -25.9800   -3.7610   -4.5160 N.ar  107  HIS107     -0.2212
     57  N        -20.8700  -11.6850  -10.2670 N.3   127  TRP127     -0.1241
     58  CA       -20.8460  -10.3080   -9.7830 C.3   127  TRP127      0.1605
     59  C        -19.6070   -9.9600   -8.9600 C.2   127  TRP127      0.2264
     60  O        -19.4130   -8.8040   -8.6520 O.2   127  TRP127     -0.2867
     61  CB       -22.0950   -9.9880   -8.9390 C.3   127  TRP127      0.0550
     62  CG       -23.3860  -10.0000   -9.7070 C.ar  127  TRP127      0.0003
     63  CD1      -24.2100  -11.0620   -9.8950 C.ar  127  TRP127      0.0946
     64  CD2      -24.0010   -8.8890  -10.3700 C.ar  127  TRP127      0.0152
     65  NE1      -25.3080  -10.6920  -10.6440 N.ar  127  TRP127     -0.2442
     66  CE2      -25.1960   -9.3640  -10.9580 C.ar  127  TRP127      0.0810
     67  CE3      -23.6470   -7.5470  -10.5470 C.ar  127  TRP127      0.0012
     68  CZ2      -26.0430   -8.5390  -11.6940 C.ar  127  TRP127      0.0191
     69  CZ3      -24.4900   -6.7270  -11.2840 C.ar  127  TRP127      0.0001
     70  CH2      -25.6750   -7.2270  -11.8460 C.ar  127  TRP127      0.0015
     71  N        -20.1820   -1.2110  -10.8270 N.3   132  ILE132     -0.1245
     72  CA       -21.3550   -1.3360  -11.6640 C.3   132  ILE132      0.1561
     73  C        -22.0900   -0.0330  -11.8780 C.2   132  ILE132      0.2260
     74  O        -22.3470    0.7020  -10.9240 O.2   132  ILE132     -0.2867
     75  CB       -22.3640   -2.3070  -11.0110 C.3   132  ILE132      0.0252
     76  CG1      -21.7050   -3.6620  -10.7230 C.3   132  ILE132      0.0019
     77  CG2      -23.5850   -2.5220  -11.8890 C.3   132  ILE132      0.0019
     78  CD1      -22.2550   -4.3690   -9.5180 C.3   132  ILE132      0.0001
     79  N        -25.6180    1.5660  -14.2390 N.3   134  ASP134     -0.1239
     80  CA       -26.8320    1.2470  -14.9730 C.3   134  ASP134      0.1674
     81  C        -26.7690    1.7270  -16.4220 C.2   134  ASP134      0.2266
     82  O        -27.4270    1.1700  -17.2810 O.2   134  ASP134     -0.2867
     83  CB       -28.0470    1.8950  -14.3000 C.3   134  ASP134      0.1410
     84  CG       -28.3990    1.2430  -12.9890 C.2   134  ASP134      0.3668
     85  OD1      -29.0150    0.1570  -12.9840 O.co2 134  ASP134     -0.2456
     86  OD2      -28.0700    1.8290  -11.9420 O.co2 134  ASP134     -0.2456
     87  N        -24.8150   -2.4810  -16.7610 N.3   173  THR173     -0.1218
     88  CA       -25.9560   -3.3570  -16.9490 C.3   173  THR173      0.1862
     89  C        -26.9720   -2.8330  -17.9860 C.2   173  THR173      0.2287
     90  O        -27.9350   -3.5330  -18.3080 O.2   173  THR173     -0.2866
     91  CB       -26.6420   -3.6610  -15.6000 C.3   173  THR173      0.1770
     92  OG1      -27.1040   -2.4450  -14.9960 O.3   173  THR173     -0.2211
     93  CG2      -25.6800   -4.3460  -14.6610 C.3   173  THR173      0.0375
     94  N        -32.6210   -5.5100  -12.7730 N.3   182  MET182     -0.1245
     95  CA       -31.9590   -4.2710  -12.3670 C.3   182  MET182      0.1570
     96  C        -32.9070   -3.0820  -12.4050 C.2   182  MET182      0.2261
     97  O        -32.6970   -2.1100  -11.6680 O.2   182  MET182     -0.2867
     98  CB       -30.7230   -3.9880  -13.2250 C.3   182  MET182      0.0387
     99  CG       -29.5500   -4.9380  -13.0050 C.3   182  MET182      0.0595
    100  SD       -28.9670   -5.0790  -11.2940 S.3   182  MET182     -0.1393
    101  CE       -29.8380   -6.5450  -10.7570 C.3   182  MET182      0.0692
    102  N        -34.1650   -2.3620   -8.9440 N.3   185  ALA185     -0.1231
    103  CA       -33.1150   -2.2350   -7.9300 C.3   185  ALA185      0.1694
    104  C        -32.7800   -0.7820   -7.5940 C.2   185  ALA185      0.2592
    105  O        -33.2200    0.1620   -8.2570 O.2   185  ALA185     -0.2718
    106  CB       -31.8900   -2.9810   -8.3980 C.3   185  ALA185      0.0304
    107  N        -31.9680   -0.6160   -6.5520 N.am  186  LEU186     -0.1966
    108  CA       -31.7230    0.6700   -5.9380 C.3   186  LEU186      0.1728
    109  C        -31.0600    1.6710   -6.8680 C.2   186  LEU186      0.2616
    110  O        -31.5020    2.8310   -6.9580 O.2   186  LEU186     -0.2715
    111  CB       -30.8830    0.4550   -4.6710 C.3   186  LEU186      0.0311
    112  CG       -30.7140    1.6630   -3.7390 C.3   186  LEU186      0.0022
    113  CD1      -30.4920    1.2530   -2.2880 C.3   186  LEU186      0.0001
    114  CD2      -29.5900    2.5610   -4.2180 C.3   186  LEU186      0.0001
    115  N        -29.9920    1.2770   -7.5480 N.am  187  THR187     -0.1951
    116  CA       -29.2460    2.2750   -8.3030 C.3   187  THR187      0.1897
    117  C        -30.0260    2.8060   -9.5030 C.2   187  THR187      0.2313
    118  O        -29.8540    3.9770   -9.8610 O.2   187  THR187     -0.2863
    119  CB       -27.8410    1.8110   -8.7460 C.3   187  THR187      0.1794
    120  OG1      -27.9440    0.6520   -9.5770 O.3   187  THR187     -0.2208
    121  CG2      -26.9880    1.5230   -7.5540 C.3   187  THR187      0.0378
    122  N        -22.6680    0.8050   -7.9690 N.3   199  ALA199     -0.1245
    123  CA       -22.6270   -0.2820   -7.0320 C.3   199  ALA199      0.1562
    124  C        -21.2550   -0.9080   -7.0620 C.2   199  ALA199      0.2260
    125  O        -20.6310   -1.0400   -8.1190 O.2   199  ALA199     -0.2867
    126  CB       -23.7110   -1.3020   -7.3490 C.3   199  ALA199      0.0290
    127  N        -19.3890   -4.4900   -5.9360 N.3   201  GLU201     -0.1245
    128  CA       -19.5710   -5.8950   -5.5680 C.3   201  GLU201      0.1567
    129  C        -18.2340   -6.4980   -5.2190 C.2   201  GLU201      0.2260
    130  O        -17.3780   -6.5780   -6.1080 O.2   201  GLU201     -0.2867
    131  CB       -20.0410   -6.6840   -6.7870 C.3   201  GLU201      0.0388
    132  CG       -21.5240   -6.6910   -7.0240 C.3   201  GLU201      0.1160
    133  CD       -22.2330   -7.7100   -6.1720 C.2   201  GLU201      0.3649
    134  OE1      -21.5670   -8.2740   -5.2850 O.co2 201  GLU201     -0.2457
    135  OE2      -23.4490   -7.9190   -6.3880 O.co2 201  GLU201     -0.2457
@<TRIPOS>BOND
     1    90    89    2
     2    89    88    1
     3    82    81    2
     4    88    87    1
     5    88    91    1
     6    81    80    1
     7    91    92    1
     8    91    93    1
     9    80    83    1
    10    80    79    1
    11    83    84    1
    12    98    99    1
    13    98    95    1
    14    99   100    1
    15    84    85   ar
    16    84    86   ar
    17    94    95    1
    18    96    95    1
    19    96    97    2
    20    77    75    1
    21    73    72    1
    22    73    74    2
    23    70    68   ar
    24    70    69   ar
    25    68    66   ar
    26    72    75    1
    27    72    71    1
    28   100   101    1
    29    69    67   ar
    30    75    76    1
    31    66    65   ar
    32    66    64   ar
    33    76    78    1
    34    65    63   ar
    35    67    64   ar
    36    64    62   ar
    37    57    58    1
    38    63    62   ar
    39   118   117    2
    40    58    59    1
    41    58    61    1
    42    62    61    1
    43   120   119    1
    44   117   116    1
    45    59    60    2
    46   102   103    1
    47    36    34    1
    48   119   116    1
    49   119   121    1
    50    33    34    2
    51    33    32    1
    52   106   103    1
    53    34    35    1
    54   116   115    1
    55    32    31    1
    56   105   104    2
    57   125   124    2
    58   122   123    1
    59   103   104    1
    60   104   107   am
    61   115   109   am
    62   126   123    1
    63   124   123    1
    64   132   131    1
    65   132   133    1
    66   110   109    2
    67    31    30    1
    68   109   108    1
    69   131   128    1
    70   107   108    1
    71    30    27    1
    72    29    28    2
    73   135   133   ar
    74    21    20    2
    75   133   134   ar
    76   130   129    2
    77    27    28    1
    78    27    26    1
    79   108   111    1
    80   127   128    1
    81   128   129    1
    82    25    23   am
    83    20    26   am
    84    20    19    1
    85    17    15   ar
    86    23    24    2
    87    23    22    1
    88   111   112    1
    89    56    54   ar
    90    56    55   ar
    91    54    52   ar
    92   114   112    1
    93    22    19    1
    94    40    39    2
    95    55    53   ar
    96    15    14    1
    97    15    16   ar
    98    52    53   ar
    99    52    51    1
   100    19    18    1
   101    43    42   ar
   102    43    45   ar
   103    41    42    1
   104    41    38    1
   105   112   113    1
   106    37    38    1
   107    51    48    1
   108    14    11    1
   109    42    44   ar
   110    39    38    1
   111    45    46   ar
   112    13    12    2
   113    50    49    2
   114    48    47    1
   115    48    49    1
   116     9     7   am
   117    11    12    1
   118    11    10    1
   119     8     7    2
   120    44    46   ar
   121     7     6    1
   122     6     5    1
   123     5     2    1
   124     1     2    1
   125     2     3    1
   126     3     4    2
