@<TRIPOS>MOLECULE
tmp/4q6rB01.pdb
 109 104 0 0 0
SMALL
GASTEIGER

@<TRIPOS>ATOM
      1  N         48.5720   10.9430   14.9300 N.3   181  PHE181     -0.1241
      2  CA        48.1660   11.6100   16.1570 C.3   181  PHE181      0.1605
      3  C         48.2520   10.7260   17.4210 C.2   181  PHE181      0.2264
      4  O         48.8160   11.2000   18.4180 O.2   181  PHE181     -0.2867
      5  CB        46.7770   12.2730   15.9970 C.3   181  PHE181      0.0534
      6  CG        46.1170   12.7370   17.2800 C.ar  181  PHE181     -0.0203
      7  CD1       46.3070   14.0320   17.7540 C.ar  181  PHE181     -0.0042
      8  CD2       45.2970   11.8770   18.0160 C.ar  181  PHE181     -0.0042
      9  CE1       45.6600   14.4680   18.9220 C.ar  181  PHE181     -0.0003
     10  CE2       44.6710   12.3100   19.1940 C.ar  181  PHE181     -0.0003
     11  CZ        44.8500   13.6030   19.6340 C.ar  181  PHE181     -0.0000
     12  N         45.1130   13.4240   26.4370 N.3   365  ASN365     -0.1225
     13  CA        44.2040   12.7350   25.5300 C.3   365  ASN365      0.1785
     14  C         44.1060   11.2660   25.9130 C.2   365  ASN365      0.2597
     15  O         45.1250   10.6260   26.1640 O.2   365  ASN365     -0.2718
     16  CB        44.6690   12.8700   24.0810 C.3   365  ASN365      0.1169
     17  CG        44.5240   14.2640   23.5410 C.2   365  ASN365      0.2627
     18  OD1       43.5040   14.6280   22.9490 O.2   365  ASN365     -0.2716
     19  ND2       45.5620   15.0650   23.6930 N.am  365  ASN365     -0.0877
     20  N         42.8810   10.7420   25.9680 N.am  366  GLN366     -0.1979
     21  CA        42.6230    9.3420   26.2610 C.3   366  GLN366      0.1601
     22  C         42.4180    8.6500   24.9390 C.2   366  GLN366      0.2287
     23  O         41.5010    8.9770   24.1880 O.2   366  GLN366     -0.2864
     24  CB        41.4250    9.1720   27.2090 C.3   366  GLN366      0.0394
     25  CG        41.8320    9.3670   28.6700 C.3   366  GLN366      0.0908
     26  CD        40.7890   10.0910   29.4760 C.2   366  GLN366      0.2608
     27  OE1       40.3500   11.1960   29.1310 O.2   366  GLN366     -0.2717
     28  NE2       40.3900    9.4960   30.5910 N.am  366  GLN366     -0.0878
     29  N         35.7300    9.0430   34.5510 N.3   412  MET412     -0.1245
     30  CA        35.8030    9.0670   33.0920 C.3   412  MET412      0.1570
     31  C         36.7220    7.9920   32.5160 C.2   412  MET412      0.2261
     32  O         36.4120    7.4530   31.4580 O.2   412  MET412     -0.2867
     33  CB        36.1840   10.4730   32.5980 C.3   412  MET412      0.0387
     34  CG        35.7170   10.7950   31.1730 C.3   412  MET412      0.0595
     35  SD        33.9670   10.5020   30.7630 S.3   412  MET412     -0.1393
     36  CE        33.1740   11.6040   31.9070 C.3   412  MET412      0.0692
     37  N         34.9010    4.8080   31.9880 N.3   415  ILE415     -0.1231
     38  CA        34.0330    4.9310   30.8120 C.3   415  ILE415      0.1692
     39  C         34.8190    4.6300   29.5270 C.2   415  ILE415      0.2592
     40  O         34.3560    3.8160   28.7280 O.2   415  ILE415     -0.2718
     41  CB        33.2830    6.3010   30.7890 C.3   415  ILE415      0.0266
     42  CG1       32.2800    6.3920   31.9660 C.3   415  ILE415      0.0019
     43  CG2       32.5620    6.5320   29.4520 C.3   415  ILE415      0.0020
     44  CD1       32.0320    7.7920   32.5160 C.3   415  ILE415      0.0001
     45  N         36.0190    5.2400   29.3580 N.am  416  TYR416     -0.1976
     46  CA        36.8890    5.0230   28.1970 C.3   416  TYR416      0.1639
     47  C         37.3920    3.5820   28.0860 C.2   416  TYR416      0.2290
     48  O         37.5390    3.0660   26.9730 O.2   416  TYR416     -0.2864
     49  CB        38.0460    6.0350   28.1590 C.3   416  TYR416      0.0560
     50  CG        37.6120    7.4420   27.8020 C.ar  416  TYR416     -0.0198
     51  CD1       37.0550    7.7280   26.5580 C.ar  416  TYR416     -0.0009
     52  CD2       37.7980    8.4960   28.6890 C.ar  416  TYR416     -0.0009
     53  CE1       36.6640    9.0230   26.2200 C.ar  416  TYR416      0.0417
     54  CE2       37.4330    9.7980   28.3540 C.ar  416  TYR416      0.0417
     55  CZ        36.8530   10.0550   27.1230 C.ar  416  TYR416      0.1957
     56  OH        36.4790   11.3370   26.7940 O.3   416  TYR416     -0.2866
     57  N         35.6850    0.8290   29.4540 N.3   418  MET418     -0.1230
     58  CA        34.4900    0.0400   29.1490 C.3   418  MET418      0.1702
     59  C         34.0790    0.1730   27.6680 C.2   418  MET418      0.2592
     60  O         33.6960   -0.8250   27.0570 O.2   418  MET418     -0.2718
     61  CB        33.3370    0.3910   30.1120 C.3   418  MET418      0.0401
     62  CG        32.2620    1.2330   29.5240 C.3   418  MET418      0.0596
     63  SD        30.9510    0.2320   28.7760 S.3   418  MET418     -0.1393
     64  CE        30.0550    1.5080   27.8700 C.3   418  MET418      0.0692
     65  N         34.1760    1.3970   27.1000 N.am  419  ALA419     -0.1980
     66  CA        33.8210    1.7000   25.7100 C.3   419  ALA419      0.1597
     67  C         34.5600    0.8410   24.6780 C.2   419  ALA419      0.2287
     68  O         33.9980    0.5600   23.6210 O.2   419  ALA419     -0.2864
     69  CB        34.0440    3.1710   25.4180 C.3   419  ALA419      0.0319
     70  N         27.8060    2.6100   21.7940 N.3   428  VAL428     -0.1245
     71  CA        28.8700    3.6350   21.8500 C.3   428  VAL428      0.1561
     72  C         28.5390    4.7570   20.8390 C.2   428  VAL428      0.2260
     73  O         28.6780    5.9420   21.1620 O.2   428  VAL428     -0.2867
     74  CB        30.2990    3.0370   21.6480 C.3   428  VAL428      0.0252
     75  CG1       31.3810    4.0950   21.8340 C.3   428  VAL428      0.0019
     76  CG2       30.5560    1.8730   22.5950 C.3   428  VAL428      0.0019
     77  N         25.5120    6.8010   22.2770 N.3   431  LEU431     -0.1231
     78  CA        25.9700    7.7080   23.3290 C.3   431  LEU431      0.1693
     79  C         26.7630    8.8960   22.7560 C.2   431  LEU431      0.2592
     80  O         26.7350    9.9790   23.3400 O.2   431  LEU431     -0.2718
     81  CB        26.7760    6.9540   24.3970 C.3   431  LEU431      0.0284
     82  CG        25.9730    5.9900   25.2870 C.3   431  LEU431      0.0019
     83  CD1       26.8170    4.8080   25.7190 C.3   431  LEU431      0.0001
     84  CD2       25.4160    6.7020   26.5090 C.3   431  LEU431      0.0001
     85  N         27.4230    8.7090   21.5920 N.am  432  SER432     -0.1952
     86  CA        28.1680    9.7670   20.9010 C.3   432  SER432      0.1924
     87  C         27.1980   10.8080   20.3240 C.2   432  SER432      0.2314
     88  O         27.4610   12.0110   20.4330 O.2   432  SER432     -0.2863
     89  CB        29.0430    9.1790   19.8010 C.3   432  SER432      0.2116
     90  OG        30.0200    8.2980   20.3300 O.3   432  SER432     -0.2180
     91  N         25.8930   12.7560   23.1670 N.3   435  PHE435     -0.1227
     92  CA        26.9290   13.7360   23.5060 C.3   435  PHE435      0.1736
     93  C         26.8510   14.9370   22.5400 C.2   435  PHE435      0.2595
     94  O         26.9100   16.0800   22.9970 O.2   435  PHE435     -0.2718
     95  CB        28.3490   13.1150   23.5020 C.3   435  PHE435      0.0547
     96  CG        29.4660   14.1410   23.5400 C.ar  435  PHE435     -0.0202
     97  CD1       29.8540   14.7290   24.7400 C.ar  435  PHE435     -0.0042
     98  CD2       30.0870   14.5640   22.3650 C.ar  435  PHE435     -0.0042
     99  CE1       30.8600   15.7060   24.7660 C.ar  435  PHE435     -0.0003
    100  CE2       31.0820   15.5460   22.3920 C.ar  435  PHE435     -0.0003
    101  CZ        31.4600   16.1110   23.5910 C.ar  435  PHE435     -0.0000
    102  N         26.7160   14.6820   21.2200 N.am  436  LEU436     -0.1980
    103  CA        26.5910   15.7580   20.2300 C.3   436  LEU436      0.1596
    104  C         25.3290   16.6100   20.4430 C.2   436  LEU436      0.2287
    105  O         25.4160   17.8360   20.3490 O.2   436  LEU436     -0.2864
    106  CB        26.6940   15.2350   18.7890 C.3   436  LEU436      0.0297
    107  CG        28.0850   14.7500   18.3380 C.3   436  LEU436      0.0022
    108  CD1       28.0330   14.1310   16.9610 C.3   436  LEU436      0.0001
    109  CD2       29.1080   15.8740   18.3550 C.3   436  LEU436      0.0001
@<TRIPOS>BOND
     1     1     2    1
     2     5     2    1
     3     5     6    1
     4     2     3    1
     5   108   107    1
     6     6     7   ar
     7     6     8   ar
     8     3     4    2
     9     7     9   ar
    10     8    10   ar
    11   107   109    1
    12   107   106    1
    13   106   103    1
    14     9    11   ar
    15    10    11   ar
    16    89    90    1
    17    89    86    1
    18   103   104    1
    19   103   102    1
    20    87    88    2
    21    87    86    1
    22   105   104    2
    23    72    73    2
    24    72    71    1
    25    86    85    1
    26   102    93   am
    27    85    79   am
    28    74    75    1
    29    74    71    1
    30    74    76    1
    31    70    71    1
    32    77    78    1
    33    98   100   ar
    34    98    96   ar
    35   100   101   ar
    36    93    94    2
    37    93    92    1
    38    79    78    1
    39    79    80    2
    40    18    17    2
    41    91    92    1
    42    78    81    1
    43    95    92    1
    44    95    96    1
    45    96    97   ar
    46    17    19   am
    47    17    16    1
    48   101    99   ar
    49    68    67    2
    50    16    13    1
    51    23    22    2
    52    81    82    1
    53    67    66    1
    54    97    99   ar
    55    22    21    1
    56    82    83    1
    57    82    84    1
    58    69    66    1
    59    13    14    1
    60    13    12    1
    61    66    65    1
    62    14    20   am
    63    14    15    2
    64    20    21    1
    65    53    51   ar
    66    53    55   ar
    67    21    24    1
    68    51    50   ar
    69    56    55    1
    70    48    47    2
    71    60    59    2
    72    65    59   am
    73    55    54   ar
    74    24    25    1
    75    59    58    1
    76    50    49    1
    77    50    52   ar
    78    64    63    1
    79    47    46    1
    80    49    46    1
    81    46    45    1
    82    54    52   ar
    83    25    26    1
    84    40    39    2
    85    63    62    1
    86    27    26    2
    87    58    57    1
    88    58    61    1
    89    45    39   am
    90    43    41    1
    91    26    28   am
    92    62    61    1
    93    39    38    1
    94    35    34    1
    95    35    36    1
    96    41    38    1
    97    41    42    1
    98    38    37    1
    99    34    33    1
   100    32    31    2
   101    42    44    1
   102    31    30    1
   103    33    30    1
   104    30    29    1
